MODEL 1
REMARK VINA RESULT:      -9.6      0.000      0.000
REMARK  10 active torsions:
REMARK  status: ('A' for Active; 'I' for Inactive)
REMARK    1  A    between atoms: C_3  and  N_4 
REMARK    2  A    between atoms: C_5  and  S_6 
REMARK    3  A    between atoms: S_6  and  C_7 
REMARK    4  A    between atoms: C_7  and  C_8 
REMARK       I    between atoms: C_8  and  N_9 
REMARK    5  A    between atoms: N_9  and  C_10 
REMARK    6  A    between atoms: C_10  and  C_11 
REMARK    7  A    between atoms: C_11  and  C_12 
REMARK    8  A    between atoms: C_14  and  O_15 
REMARK    9  A    between atoms: C_17  and  O_18 
REMARK   10  A    between atoms: C_26  and  N_27 
ROOT
HETATM    1  N   UNL     1       6.523  27.154  55.200  1.00  0.00    -0.275 N 
HETATM    2  C   UNL     1       7.425  27.701  56.150  1.00  0.00     0.177 A 
HETATM    3  N   UNL     1       8.243  27.021  56.916  1.00  0.00    -0.204 NA
HETATM    4  C   UNL     1       8.206  25.687  56.699  1.00  0.00     0.162 A 
HETATM    5  C   UNL     1       7.434  24.971  55.827  1.00  0.00     0.081 A 
HETATM    6  C   UNL     1       6.515  25.711  55.015  1.00  0.00     0.124 A 
HETATM    7  N   UNL     1       8.983  24.764  57.334  1.00  0.00    -0.260 N 
HETATM    8  H   UNL     1       9.684  24.928  58.046  1.00  0.00     0.191 HD
HETATM    9  N   UNL     1       8.744  23.499  56.923  1.00  0.00    -0.177 NA
HETATM   10  C   UNL     1       7.792  23.622  55.983  1.00  0.00     0.068 A 
HETATM   11  C   UNL     1       7.287  22.413  55.293  1.00  0.00     0.073 C 
ENDROOT
BRANCH   2  12
HETATM   12  S   UNL     1       7.460  29.455  56.419  1.00  0.00    -0.082 SA
BRANCH  12  13
HETATM   13  C   UNL     1       8.062  29.499  58.129  1.00  0.00     0.185 C 
BRANCH  13  14
HETATM   14  C   UNL     1       9.325  30.338  58.276  1.00  0.00     0.227 C 
HETATM   15  N   UNL     1       9.563  30.915  59.497  1.00  0.00    -0.360 N 
HETATM   16  H   UNL     1      10.401  31.488  59.523  1.00  0.00     0.162 HD
HETATM   17  O   UNL     1      10.150  30.500  57.374  1.00  0.00    -0.273 OA
BRANCH  15  18
HETATM   18  C   UNL     1       8.730  30.838  60.688  1.00  0.00     0.127 C 
BRANCH  18  19
HETATM   19  C   UNL     1       8.991  31.972  61.686  1.00  0.00     0.058 C 
BRANCH  19  20
HETATM   20  C   UNL     1       7.815  32.279  62.587  1.00  0.00    -0.054 A 
HETATM   21  C   UNL     1       6.508  31.917  62.224  1.00  0.00     0.046 A 
HETATM   22  C   UNL     1       5.419  32.219  63.052  1.00  0.00     0.102 A 
HETATM   23  C   UNL     1       5.639  32.862  64.284  1.00  0.00     0.101 A 
HETATM   24  C   UNL     1       6.942  33.199  64.659  1.00  0.00     0.040 A 
HETATM   25  C   UNL     1       8.021  32.911  63.817  1.00  0.00     0.010 A 
BRANCH  22  26
HETATM   26  O   UNL     1       4.114  31.911  62.753  1.00  0.00    -0.353 OA
HETATM   27  C   UNL     1       3.672  32.142  61.424  1.00  0.00     0.210 C 
ENDBRANCH  22  26
BRANCH  23  28
HETATM   28  O   UNL     1       4.522  33.117  65.040  1.00  0.00    -0.353 OA
HETATM   29  C   UNL     1       4.623  34.105  66.054  1.00  0.00     0.210 C 
ENDBRANCH  23  28
ENDBRANCH  19  20
ENDBRANCH  18  19
ENDBRANCH  15  18
ENDBRANCH  13  14
ENDBRANCH  12  13
ENDBRANCH   2  12
BRANCH   1  30
HETATM   30  C   UNL     1       5.708  27.986  54.373  1.00  0.00     0.051 A 
HETATM   31  C   UNL     1       4.474  28.506  54.821  1.00  0.00    -0.035 A 
HETATM   32  C   UNL     1       3.981  28.334  56.232  1.00  0.00     0.050 C 
HETATM   33  C   UNL     1       3.692  29.266  53.933  1.00  0.00     0.011 A 
HETATM   34  C   UNL     1       4.098  29.468  52.613  1.00  0.00     0.024 A 
HETATM   35  C   UNL     1       5.303  28.933  52.173  1.00  0.00     0.036 A 
HETATM   36  C   UNL     1       6.108  28.201  53.042  1.00  0.00     0.054 A 
HETATM   37 CL   UNL     1       5.790  29.152  50.539  1.00  0.00    -0.084 Cl
ENDBRANCH   1  30
BRANCH   6  38
HETATM   38  N   UNL     1       5.700  25.103  54.175  1.00  0.00    -0.384 N 
HETATM   39  H   UNL     1       5.818  25.167  53.176  1.00  0.00     0.157 HD
HETATM   40  H   UNL     1       4.934  24.546  54.534  1.00  0.00     0.157 HD
ENDBRANCH   6  38
TORSDOF 10
ENDMDL
MODEL 2
REMARK VINA RESULT:      -9.3      4.166      6.635
REMARK  10 active torsions:
REMARK  status: ('A' for Active; 'I' for Inactive)
REMARK    1  A    between atoms: C_3  and  N_4 
REMARK    2  A    between atoms: C_5  and  S_6 
REMARK    3  A    between atoms: S_6  and  C_7 
REMARK    4  A    between atoms: C_7  and  C_8 
REMARK       I    between atoms: C_8  and  N_9 
REMARK    5  A    between atoms: N_9  and  C_10 
REMARK    6  A    between atoms: C_10  and  C_11 
REMARK    7  A    between atoms: C_11  and  C_12 
REMARK    8  A    between atoms: C_14  and  O_15 
REMARK    9  A    between atoms: C_17  and  O_18 
REMARK   10  A    between atoms: C_26  and  N_27 
ROOT
HETATM    1  N   UNL     1       7.714  25.128  55.461  1.00  0.00    -0.275 N 
HETATM    2  C   UNL     1       7.620  25.159  54.045  1.00  0.00     0.177 A 
HETATM    3  N   UNL     1       7.744  24.130  53.242  1.00  0.00    -0.204 NA
HETATM    4  C   UNL     1       7.933  22.958  53.889  1.00  0.00     0.162 A 
HETATM    5  C   UNL     1       8.030  22.713  55.231  1.00  0.00     0.081 A 
HETATM    6  C   UNL     1       7.930  23.843  56.106  1.00  0.00     0.124 A 
HETATM    7  N   UNL     1       8.053  21.738  53.292  1.00  0.00    -0.260 N 
HETATM    8  H   UNL     1       8.022  21.528  52.301  1.00  0.00     0.191 HD
HETATM    9  N   UNL     1       8.230  20.731  54.175  1.00  0.00    -0.177 NA
HETATM   10  C   UNL     1       8.208  21.328  55.378  1.00  0.00     0.068 A 
HETATM   11  C   UNL     1       8.363  20.509  56.602  1.00  0.00     0.073 C 
ENDROOT
BRANCH   2  12
HETATM   12  S   UNL     1       7.371  26.707  53.213  1.00  0.00    -0.082 SA
BRANCH  12  13
HETATM   13  C   UNL     1       6.013  26.252  52.101  1.00  0.00     0.185 C 
BRANCH  13  14
HETATM   14  C   UNL     1       4.740  25.897  52.860  1.00  0.00     0.227 C 
HETATM   15  N   UNL     1       3.906  26.927  53.215  1.00  0.00    -0.360 N 
HETATM   16  H   UNL     1       3.093  26.631  53.747  1.00  0.00     0.162 HD
HETATM   17  O   UNL     1       4.408  24.744  53.143  1.00  0.00    -0.273 OA
BRANCH  15  18
HETATM   18  C   UNL     1       4.104  28.348  52.968  1.00  0.00     0.127 C 
BRANCH  18  19
HETATM   19  C   UNL     1       4.780  29.079  54.134  1.00  0.00     0.058 C 
BRANCH  19  20
HETATM   20  C   UNL     1       3.994  30.263  54.654  1.00  0.00    -0.054 A 
HETATM   21  C   UNL     1       3.956  30.563  56.025  1.00  0.00     0.046 A 
HETATM   22  C   UNL     1       3.213  31.649  56.505  1.00  0.00     0.102 A 
HETATM   23  C   UNL     1       2.524  32.476  55.599  1.00  0.00     0.101 A 
HETATM   24  C   UNL     1       2.582  32.194  54.232  1.00  0.00     0.040 A 
HETATM   25  C   UNL     1       3.310  31.096  53.764  1.00  0.00     0.010 A 
BRANCH  22  26
HETATM   26  O   UNL     1       3.118  31.991  57.832  1.00  0.00    -0.353 OA
HETATM   27  C   UNL     1       4.189  31.618  58.686  1.00  0.00     0.210 C 
ENDBRANCH  22  26
BRANCH  23  28
HETATM   28  O   UNL     1       1.825  33.523  56.148  1.00  0.00    -0.353 OA
HETATM   29  C   UNL     1       1.184  34.425  55.260  1.00  0.00     0.210 C 
ENDBRANCH  23  28
ENDBRANCH  19  20
ENDBRANCH  18  19
ENDBRANCH  15  18
ENDBRANCH  13  14
ENDBRANCH  12  13
ENDBRANCH   2  12
BRANCH   1  30
HETATM   30  C   UNL     1       7.510  26.300  56.251  1.00  0.00     0.051 A 
HETATM   31  C   UNL     1       6.230  26.677  56.715  1.00  0.00    -0.035 A 
HETATM   32  C   UNL     1       5.009  25.818  56.524  1.00  0.00     0.050 C 
HETATM   33  C   UNL     1       6.091  27.876  57.435  1.00  0.00     0.011 A 
HETATM   34  C   UNL     1       7.187  28.713  57.653  1.00  0.00     0.024 A 
HETATM   35  C   UNL     1       8.439  28.348  57.173  1.00  0.00     0.036 A 
HETATM   36  C   UNL     1       8.607  27.150  56.482  1.00  0.00     0.054 A 
HETATM   37 CL   UNL     1       9.785  29.391  57.409  1.00  0.00    -0.084 Cl
ENDBRANCH   1  30
BRANCH   6  38
HETATM   38  N   UNL     1       8.054  23.711  57.412  1.00  0.00    -0.384 N 
HETATM   39  H   UNL     1       8.946  23.532  57.848  1.00  0.00     0.157 HD
HETATM   40  H   UNL     1       7.239  23.800  58.005  1.00  0.00     0.157 HD
ENDBRANCH   6  38
TORSDOF 10
ENDMDL
MODEL 3
REMARK VINA RESULT:      -9.2      2.025      4.155
REMARK  10 active torsions:
REMARK  status: ('A' for Active; 'I' for Inactive)
REMARK    1  A    between atoms: C_3  and  N_4 
REMARK    2  A    between atoms: C_5  and  S_6 
REMARK    3  A    between atoms: S_6  and  C_7 
REMARK    4  A    between atoms: C_7  and  C_8 
REMARK       I    between atoms: C_8  and  N_9 
REMARK    5  A    between atoms: N_9  and  C_10 
REMARK    6  A    between atoms: C_10  and  C_11 
REMARK    7  A    between atoms: C_11  and  C_12 
REMARK    8  A    between atoms: C_14  and  O_15 
REMARK    9  A    between atoms: C_17  and  O_18 
REMARK   10  A    between atoms: C_26  and  N_27 
ROOT
HETATM    1  N   UNL     1       5.998  27.045  54.784  1.00  0.00    -0.275 N 
HETATM    2  C   UNL     1       6.552  28.136  55.504  1.00  0.00     0.177 A 
HETATM    3  N   UNL     1       6.213  29.396  55.375  1.00  0.00    -0.204 NA
HETATM    4  C   UNL     1       5.208  29.599  54.493  1.00  0.00     0.162 A 
HETATM    5  C   UNL     1       4.532  28.693  53.723  1.00  0.00     0.081 A 
HETATM    6  C   UNL     1       4.927  27.321  53.838  1.00  0.00     0.124 A 
HETATM    7  N   UNL     1       4.645  30.806  54.205  1.00  0.00    -0.260 N 
HETATM    8  H   UNL     1       4.885  31.711  54.593  1.00  0.00     0.191 HD
HETATM    9  N   UNL     1       3.655  30.724  53.289  1.00  0.00    -0.177 NA
HETATM   10  C   UNL     1       3.575  29.416  52.994  1.00  0.00     0.068 A 
HETATM   11  C   UNL     1       2.567  28.949  52.014  1.00  0.00     0.073 C 
ENDROOT
BRANCH   2  12
HETATM   12  S   UNL     1       7.870  27.849  56.658  1.00  0.00    -0.082 SA
BRANCH  12  13
HETATM   13  C   UNL     1       7.870  29.436  57.535  1.00  0.00     0.185 C 
BRANCH  13  14
HETATM   14  C   UNL     1       9.274  29.876  57.931  1.00  0.00     0.227 C 
HETATM   15  N   UNL     1       9.424  30.496  59.146  1.00  0.00    -0.360 N 
HETATM   16  H   UNL     1      10.375  30.796  59.338  1.00  0.00     0.162 HD
HETATM   17  O   UNL     1      10.276  29.680  57.241  1.00  0.00    -0.273 OA
BRANCH  15  18
HETATM   18  C   UNL     1       8.381  30.811  60.111  1.00  0.00     0.127 C 
BRANCH  18  19
HETATM   19  C   UNL     1       8.897  31.574  61.336  1.00  0.00     0.058 C 
BRANCH  19  20
HETATM   20  C   UNL     1       7.811  31.991  62.303  1.00  0.00    -0.054 A 
HETATM   21  C   UNL     1       6.464  31.675  62.061  1.00  0.00     0.046 A 
HETATM   22  C   UNL     1       5.458  32.078  62.949  1.00  0.00     0.102 A 
HETATM   23  C   UNL     1       5.803  32.777  64.121  1.00  0.00     0.101 A 
HETATM   24  C   UNL     1       7.145  33.070  64.375  1.00  0.00     0.040 A 
HETATM   25  C   UNL     1       8.140  32.680  63.474  1.00  0.00     0.010 A 
BRANCH  22  26
HETATM   26  O   UNL     1       4.121  31.819  62.768  1.00  0.00    -0.353 OA
HETATM   27  C   UNL     1       3.475  32.437  61.665  1.00  0.00     0.210 C 
ENDBRANCH  22  26
BRANCH  23  28
HETATM   28  O   UNL     1       4.761  33.130  64.941  1.00  0.00    -0.353 OA
HETATM   29  C   UNL     1       4.412  34.505  65.010  1.00  0.00     0.210 C 
ENDBRANCH  23  28
ENDBRANCH  19  20
ENDBRANCH  18  19
ENDBRANCH  15  18
ENDBRANCH  13  14
ENDBRANCH  12  13
ENDBRANCH   2  12
BRANCH   1  30
HETATM   30  C   UNL     1       6.400  25.698  55.036  1.00  0.00     0.051 A 
HETATM   31  C   UNL     1       5.996  25.001  56.196  1.00  0.00    -0.035 A 
HETATM   32  C   UNL     1       5.017  25.569  57.188  1.00  0.00     0.050 C 
HETATM   33  C   UNL     1       6.480  23.699  56.413  1.00  0.00     0.011 A 
HETATM   34  C   UNL     1       7.384  23.114  55.526  1.00  0.00     0.024 A 
HETATM   35  C   UNL     1       7.796  23.814  54.399  1.00  0.00     0.036 A 
HETATM   36  C   UNL     1       7.308  25.095  54.147  1.00  0.00     0.054 A 
HETATM   37 CL   UNL     1       8.936  23.110  53.321  1.00  0.00    -0.084 Cl
ENDBRANCH   1  30
BRANCH   6  38
HETATM   38  N   UNL     1       4.363  26.381  53.105  1.00  0.00    -0.384 N 
HETATM   39  H   UNL     1       3.367  26.221  53.117  1.00  0.00     0.157 HD
HETATM   40  H   UNL     1       4.936  25.804  52.502  1.00  0.00     0.157 HD
ENDBRANCH   6  38
TORSDOF 10
ENDMDL
MODEL 4
REMARK VINA RESULT:      -9.0      5.409      9.846
REMARK  10 active torsions:
REMARK  status: ('A' for Active; 'I' for Inactive)
REMARK    1  A    between atoms: C_3  and  N_4 
REMARK    2  A    between atoms: C_5  and  S_6 
REMARK    3  A    between atoms: S_6  and  C_7 
REMARK    4  A    between atoms: C_7  and  C_8 
REMARK       I    between atoms: C_8  and  N_9 
REMARK    5  A    between atoms: N_9  and  C_10 
REMARK    6  A    between atoms: C_10  and  C_11 
REMARK    7  A    between atoms: C_11  and  C_12 
REMARK    8  A    between atoms: C_14  and  O_15 
REMARK    9  A    between atoms: C_17  and  O_18 
REMARK   10  A    between atoms: C_26  and  N_27 
ROOT
HETATM    1  N   UNL     1       5.530  29.805  56.162  1.00  0.00    -0.275 N 
HETATM    2  C   UNL     1       4.945  29.843  54.869  1.00  0.00     0.177 A 
HETATM    3  N   UNL     1       3.999  30.662  54.475  1.00  0.00    -0.204 NA
HETATM    4  C   UNL     1       3.626  31.553  55.421  1.00  0.00     0.162 A 
HETATM    5  C   UNL     1       4.075  31.697  56.704  1.00  0.00     0.081 A 
HETATM    6  C   UNL     1       5.083  30.779  57.146  1.00  0.00     0.124 A 
HETATM    7  N   UNL     1       2.694  32.534  55.254  1.00  0.00    -0.260 N 
HETATM    8  H   UNL     1       2.152  32.740  54.424  1.00  0.00     0.191 HD
HETATM    9  N   UNL     1       2.517  33.289  56.362  1.00  0.00    -0.177 NA
HETATM   10  C   UNL     1       3.376  32.780  57.259  1.00  0.00     0.068 A 
HETATM   11  C   UNL     1       3.463  33.383  58.609  1.00  0.00     0.073 C 
ENDROOT
BRANCH   2  12
HETATM   12  S   UNL     1       5.449  28.665  53.640  1.00  0.00    -0.082 SA
BRANCH  12  13
HETATM   13  C   UNL     1       3.889  28.464  52.739  1.00  0.00     0.185 C 
BRANCH  13  14
HETATM   14  C   UNL     1       4.108  28.269  51.243  1.00  0.00     0.227 C 
HETATM   15  N   UNL     1       4.556  27.043  50.824  1.00  0.00    -0.360 N 
HETATM   16  H   UNL     1       4.715  26.986  49.822  1.00  0.00     0.162 HD
HETATM   17  O   UNL     1       3.877  29.136  50.397  1.00  0.00    -0.273 OA
BRANCH  15  18
HETATM   18  C   UNL     1       4.875  25.888  51.651  1.00  0.00     0.127 C 
BRANCH  18  19
HETATM   19  C   UNL     1       6.364  25.525  51.638  1.00  0.00     0.058 C 
BRANCH  19  20
HETATM   20  C   UNL     1       6.787  24.629  52.782  1.00  0.00    -0.054 A 
HETATM   21  C   UNL     1       7.706  23.586  52.586  1.00  0.00     0.046 A 
HETATM   22  C   UNL     1       8.081  22.747  53.643  1.00  0.00     0.102 A 
HETATM   23  C   UNL     1       7.559  22.973  54.931  1.00  0.00     0.101 A 
HETATM   24  C   UNL     1       6.664  24.027  55.133  1.00  0.00     0.040 A 
HETATM   25  C   UNL     1       6.281  24.847  54.067  1.00  0.00     0.010 A 
BRANCH  22  26
HETATM   26  O   UNL     1       8.961  21.699  53.521  1.00  0.00    -0.353 OA
HETATM   27  C   UNL     1       8.464  20.483  52.982  1.00  0.00     0.210 C 
ENDBRANCH  22  26
BRANCH  23  28
HETATM   28  O   UNL     1       7.981  22.112  55.913  1.00  0.00    -0.353 OA
HETATM   29  C   UNL     1       8.461  22.678  57.124  1.00  0.00     0.210 C 
ENDBRANCH  23  28
ENDBRANCH  19  20
ENDBRANCH  18  19
ENDBRANCH  15  18
ENDBRANCH  13  14
ENDBRANCH  12  13
ENDBRANCH   2  12
BRANCH   1  30
HETATM   30  C   UNL     1       6.595  28.907  56.477  1.00  0.00     0.051 A 
HETATM   31  C   UNL     1       6.355  27.583  56.907  1.00  0.00    -0.035 A 
HETATM   32  C   UNL     1       4.979  26.976  56.947  1.00  0.00     0.050 C 
HETATM   33  C   UNL     1       7.447  26.773  57.262  1.00  0.00     0.011 A 
HETATM   34  C   UNL     1       8.750  27.275  57.238  1.00  0.00     0.024 A 
HETATM   35  C   UNL     1       8.976  28.585  56.836  1.00  0.00     0.036 A 
HETATM   36  C   UNL     1       7.913  29.399  56.453  1.00  0.00     0.054 A 
HETATM   37 CL   UNL     1      10.575  29.218  56.838  1.00  0.00    -0.084 Cl
ENDBRANCH   1  30
BRANCH   6  38
HETATM   38  N   UNL     1       5.547  30.812  58.380  1.00  0.00    -0.384 N 
HETATM   39  H   UNL     1       5.049  30.389  59.148  1.00  0.00     0.157 HD
HETATM   40  H   UNL     1       6.432  31.265  58.571  1.00  0.00     0.157 HD
ENDBRANCH   6  38
TORSDOF 10
ENDMDL
MODEL 5
REMARK VINA RESULT:      -8.9      3.612      9.868
REMARK  10 active torsions:
REMARK  status: ('A' for Active; 'I' for Inactive)
REMARK    1  A    between atoms: C_3  and  N_4 
REMARK    2  A    between atoms: C_5  and  S_6 
REMARK    3  A    between atoms: S_6  and  C_7 
REMARK    4  A    between atoms: C_7  and  C_8 
REMARK       I    between atoms: C_8  and  N_9 
REMARK    5  A    between atoms: N_9  and  C_10 
REMARK    6  A    between atoms: C_10  and  C_11 
REMARK    7  A    between atoms: C_11  and  C_12 
REMARK    8  A    between atoms: C_14  and  O_15 
REMARK    9  A    between atoms: C_17  and  O_18 
REMARK   10  A    between atoms: C_26  and  N_27 
ROOT
HETATM    1  N   UNL     1       7.519  30.898  59.321  1.00  0.00    -0.275 N 
HETATM    2  C   UNL     1       6.378  31.529  58.759  1.00  0.00     0.177 A 
HETATM    3  N   UNL     1       5.551  32.329  59.387  1.00  0.00    -0.204 NA
HETATM    4  C   UNL     1       5.900  32.567  60.672  1.00  0.00     0.162 A 
HETATM    5  C   UNL     1       6.959  32.081  61.389  1.00  0.00     0.081 A 
HETATM    6  C   UNL     1       7.842  31.179  60.711  1.00  0.00     0.124 A 
HETATM    7  N   UNL     1       5.233  33.390  61.529  1.00  0.00    -0.260 N 
HETATM    8  H   UNL     1       4.398  33.933  61.344  1.00  0.00     0.191 HD
HETATM    9  N   UNL     1       5.800  33.450  62.755  1.00  0.00    -0.177 NA
HETATM   10  C   UNL     1       6.874  32.648  62.670  1.00  0.00     0.068 A 
HETATM   11  C   UNL     1       7.756  32.482  63.849  1.00  0.00     0.073 C 
ENDROOT
BRANCH   2  12
HETATM   12  S   UNL     1       5.938  31.204  57.070  1.00  0.00    -0.082 SA
BRANCH  12  13
HETATM   13  C   UNL     1       5.055  29.634  57.271  1.00  0.00     0.185 C 
BRANCH  13  14
HETATM   14  C   UNL     1       3.906  29.486  56.281  1.00  0.00     0.227 C 
HETATM   15  N   UNL     1       3.972  28.449  55.386  1.00  0.00    -0.360 N 
HETATM   16  H   UNL     1       3.196  28.423  54.731  1.00  0.00     0.162 HD
HETATM   17  O   UNL     1       2.917  30.222  56.262  1.00  0.00    -0.273 OA
BRANCH  15  18
HETATM   18  C   UNL     1       5.037  27.466  55.249  1.00  0.00     0.127 C 
BRANCH  18  19
HETATM   19  C   UNL     1       5.210  26.952  53.816  1.00  0.00     0.058 C 
BRANCH  19  20
HETATM   20  C   UNL     1       6.115  25.745  53.701  1.00  0.00    -0.054 A 
HETATM   21  C   UNL     1       6.203  24.802  54.738  1.00  0.00     0.046 A 
HETATM   22  C   UNL     1       7.055  23.696  54.636  1.00  0.00     0.102 A 
HETATM   23  C   UNL     1       7.809  23.503  53.463  1.00  0.00     0.101 A 
HETATM   24  C   UNL     1       7.703  24.426  52.420  1.00  0.00     0.040 A 
HETATM   25  C   UNL     1       6.864  25.539  52.539  1.00  0.00     0.010 A 
BRANCH  22  26
HETATM   26  O   UNL     1       7.203  22.744  55.615  1.00  0.00    -0.353 OA
HETATM   27  C   UNL     1       8.133  23.010  56.655  1.00  0.00     0.210 C 
ENDBRANCH  22  26
BRANCH  23  28
HETATM   28  O   UNL     1       8.614  22.391  53.439  1.00  0.00    -0.353 OA
HETATM   29  C   UNL     1       8.050  21.178  52.964  1.00  0.00     0.210 C 
ENDBRANCH  23  28
ENDBRANCH  19  20
ENDBRANCH  18  19
ENDBRANCH  15  18
ENDBRANCH  13  14
ENDBRANCH  12  13
ENDBRANCH   2  12
BRANCH   1  30
HETATM   30  C   UNL     1       8.389  30.083  58.535  1.00  0.00     0.051 A 
HETATM   31  C   UNL     1       9.632  30.557  58.060  1.00  0.00    -0.035 A 
HETATM   32  C   UNL     1      10.192  31.901  58.443  1.00  0.00     0.050 C 
HETATM   33  C   UNL     1      10.411  29.724  57.238  1.00  0.00     0.011 A 
HETATM   34  C   UNL     1       9.951  28.464  56.854  1.00  0.00     0.024 A 
HETATM   35  C   UNL     1       8.717  28.012  57.306  1.00  0.00     0.036 A 
HETATM   36  C   UNL     1       7.940  28.808  58.144  1.00  0.00     0.054 A 
HETATM   37 CL   UNL     1       8.132  26.475  56.808  1.00  0.00    -0.084 Cl
ENDBRANCH   1  30
BRANCH   6  38
HETATM   38  N   UNL     1       8.865  30.626  61.333  1.00  0.00    -0.384 N 
HETATM   39  H   UNL     1       8.838  29.673  61.661  1.00  0.00     0.157 HD
HETATM   40  H   UNL     1       9.710  31.162  61.482  1.00  0.00     0.157 HD
ENDBRANCH   6  38
TORSDOF 10
ENDMDL
MODEL 6
REMARK VINA RESULT:      -8.7      6.842     10.603
REMARK  10 active torsions:
REMARK  status: ('A' for Active; 'I' for Inactive)
REMARK    1  A    between atoms: C_3  and  N_4 
REMARK    2  A    between atoms: C_5  and  S_6 
REMARK    3  A    between atoms: S_6  and  C_7 
REMARK    4  A    between atoms: C_7  and  C_8 
REMARK       I    between atoms: C_8  and  N_9 
REMARK    5  A    between atoms: N_9  and  C_10 
REMARK    6  A    between atoms: C_10  and  C_11 
REMARK    7  A    between atoms: C_11  and  C_12 
REMARK    8  A    between atoms: C_14  and  O_15 
REMARK    9  A    between atoms: C_17  and  O_18 
REMARK   10  A    between atoms: C_26  and  N_27 
ROOT
HETATM    1  N   UNL     1       3.837  29.865  48.632  1.00  0.00    -0.275 N 
HETATM    2  C   UNL     1       3.838  30.115  50.030  1.00  0.00     0.177 A 
HETATM    3  N   UNL     1       4.469  31.090  50.638  1.00  0.00    -0.204 NA
HETATM    4  C   UNL     1       5.122  31.921  49.795  1.00  0.00     0.162 A 
HETATM    5  C   UNL     1       5.227  31.869  48.432  1.00  0.00     0.081 A 
HETATM    6  C   UNL     1       4.566  30.784  47.771  1.00  0.00     0.124 A 
HETATM    7  N   UNL     1       5.821  33.030  50.167  1.00  0.00    -0.260 N 
HETATM    8  H   UNL     1       5.958  33.392  51.104  1.00  0.00     0.191 HD
HETATM    9  N   UNL     1       6.374  33.684  49.121  1.00  0.00    -0.177 NA
HETATM   10  C   UNL     1       6.001  32.974  48.044  1.00  0.00     0.068 A 
HETATM   11  C   UNL     1       6.424  33.417  46.695  1.00  0.00     0.073 C 
ENDROOT
BRANCH   2  12
HETATM   12  S   UNL     1       2.973  29.012  51.120  1.00  0.00    -0.082 SA
BRANCH  12  13
HETATM   13  C   UNL     1       4.357  27.995  51.700  1.00  0.00     0.185 C 
BRANCH  13  14
HETATM   14  C   UNL     1       4.221  27.620  53.171  1.00  0.00     0.227 C 
HETATM   15  N   UNL     1       4.602  26.355  53.539  1.00  0.00    -0.360 N 
HETATM   16  H   UNL     1       4.456  26.153  54.524  1.00  0.00     0.162 HD
HETATM   17  O   UNL     1       3.820  28.394  54.043  1.00  0.00    -0.273 OA
BRANCH  15  18
HETATM   18  C   UNL     1       5.110  25.299  52.676  1.00  0.00     0.127 C 
BRANCH  18  19
HETATM   19  C   UNL     1       6.636  25.311  52.533  1.00  0.00     0.058 C 
BRANCH  19  20
HETATM   20  C   UNL     1       7.337  24.242  53.343  1.00  0.00    -0.054 A 
HETATM   21  C   UNL     1       7.561  24.404  54.719  1.00  0.00     0.046 A 
HETATM   22  C   UNL     1       8.226  23.420  55.462  1.00  0.00     0.102 A 
HETATM   23  C   UNL     1       8.644  22.234  54.830  1.00  0.00     0.101 A 
HETATM   24  C   UNL     1       8.398  22.061  53.465  1.00  0.00     0.040 A 
HETATM   25  C   UNL     1       7.751  23.057  52.728  1.00  0.00     0.010 A 
BRANCH  22  26
HETATM   26  O   UNL     1       8.494  23.517  56.806  1.00  0.00    -0.353 OA
HETATM   27  C   UNL     1       8.672  24.818  57.347  1.00  0.00     0.210 C 
ENDBRANCH  22  26
BRANCH  23  28
HETATM   28  O   UNL     1       9.283  21.317  55.627  1.00  0.00    -0.353 OA
HETATM   29  C   UNL     1       8.590  20.116  55.936  1.00  0.00     0.210 C 
ENDBRANCH  23  28
ENDBRANCH  19  20
ENDBRANCH  18  19
ENDBRANCH  15  18
ENDBRANCH  13  14
ENDBRANCH  12  13
ENDBRANCH   2  12
BRANCH   1  30
HETATM   30  C   UNL     1       3.071  28.804  48.060  1.00  0.00     0.051 A 
HETATM   31  C   UNL     1       3.635  27.539  47.783  1.00  0.00    -0.035 A 
HETATM   32  C   UNL     1       5.039  27.169  48.178  1.00  0.00     0.050 C 
HETATM   33  C   UNL     1       2.842  26.560  47.160  1.00  0.00     0.011 A 
HETATM   34  C   UNL     1       1.529  26.839  46.776  1.00  0.00     0.024 A 
HETATM   35  C   UNL     1       0.988  28.093  47.031  1.00  0.00     0.036 A 
HETATM   36  C   UNL     1       1.746  29.071  47.672  1.00  0.00     0.054 A 
HETATM   37 CL   UNL     1      -0.617  28.452  46.529  1.00  0.00    -0.084 Cl
ENDBRANCH   1  30
BRANCH   6  38
HETATM   38  N   UNL     1       4.646  30.627  46.464  1.00  0.00    -0.384 N 
HETATM   39  H   UNL     1       4.745  29.716  46.042  1.00  0.00     0.157 HD
HETATM   40  H   UNL     1       4.598  31.436  45.858  1.00  0.00     0.157 HD
ENDBRANCH   6  38
TORSDOF 10
ENDMDL
MODEL 7
REMARK VINA RESULT:      -8.6      2.215      2.755
REMARK  10 active torsions:
REMARK  status: ('A' for Active; 'I' for Inactive)
REMARK    1  A    between atoms: C_3  and  N_4 
REMARK    2  A    between atoms: C_5  and  S_6 
REMARK    3  A    between atoms: S_6  and  C_7 
REMARK    4  A    between atoms: C_7  and  C_8 
REMARK       I    between atoms: C_8  and  N_9 
REMARK    5  A    between atoms: N_9  and  C_10 
REMARK    6  A    between atoms: C_10  and  C_11 
REMARK    7  A    between atoms: C_11  and  C_12 
REMARK    8  A    between atoms: C_14  and  O_15 
REMARK    9  A    between atoms: C_17  and  O_18 
REMARK   10  A    between atoms: C_26  and  N_27 
ROOT
HETATM    1  N   UNL     1       5.568  29.446  56.670  1.00  0.00    -0.275 N 
HETATM    2  C   UNL     1       6.672  29.504  57.561  1.00  0.00     0.177 A 
HETATM    3  N   UNL     1       7.452  28.502  57.887  1.00  0.00    -0.204 NA
HETATM    4  C   UNL     1       7.150  27.350  57.247  1.00  0.00     0.162 A 
HETATM    5  C   UNL     1       6.154  27.092  56.347  1.00  0.00     0.081 A 
HETATM    6  C   UNL     1       5.279  28.178  56.018  1.00  0.00     0.124 A 
HETATM    7  N   UNL     1       7.829  26.175  57.378  1.00  0.00    -0.260 N 
HETATM    8  H   UNL     1       8.639  25.988  57.958  1.00  0.00     0.191 HD
HETATM    9  N   UNL     1       7.317  25.180  56.620  1.00  0.00    -0.177 NA
HETATM   10  C   UNL     1       6.284  25.745  55.973  1.00  0.00     0.068 A 
HETATM   11  C   UNL     1       5.485  24.934  55.026  1.00  0.00     0.073 C 
ENDROOT
BRANCH   2  12
HETATM   12  S   UNL     1       7.053  31.027  58.390  1.00  0.00    -0.082 SA
BRANCH  12  13
HETATM   13  C   UNL     1       8.532  30.522  59.310  1.00  0.00     0.185 C 
BRANCH  13  14
HETATM   14  C   UNL     1       9.400  31.710  59.704  1.00  0.00     0.227 C 
HETATM   15  N   UNL     1       9.440  32.052  61.032  1.00  0.00    -0.360 N 
HETATM   16  H   UNL     1      10.008  32.871  61.227  1.00  0.00     0.162 HD
HETATM   17  O   UNL     1      10.085  32.355  58.907  1.00  0.00    -0.273 OA
BRANCH  15  18
HETATM   18  C   UNL     1       8.723  31.419  62.129  1.00  0.00     0.127 C 
BRANCH  18  19
HETATM   19  C   UNL     1       7.218  31.713  62.122  1.00  0.00     0.058 C 
BRANCH  19  20
HETATM   20  C   UNL     1       6.750  32.541  63.299  1.00  0.00    -0.054 A 
HETATM   21  C   UNL     1       5.383  32.768  63.529  1.00  0.00     0.046 A 
HETATM   22  C   UNL     1       4.953  33.550  64.608  1.00  0.00     0.102 A 
HETATM   23  C   UNL     1       5.901  34.086  65.500  1.00  0.00     0.101 A 
HETATM   24  C   UNL     1       7.260  33.839  65.288  1.00  0.00     0.040 A 
HETATM   25  C   UNL     1       7.680  33.074  64.196  1.00  0.00     0.010 A 
BRANCH  22  26
HETATM   26  O   UNL     1       3.636  33.827  64.884  1.00  0.00    -0.353 OA
HETATM   27  C   UNL     1       2.804  34.208  63.798  1.00  0.00     0.210 C 
ENDBRANCH  22  26
BRANCH  23  28
HETATM   28  O   UNL     1       5.399  34.835  66.536  1.00  0.00    -0.353 OA
HETATM   29  C   UNL     1       5.355  34.235  67.822  1.00  0.00     0.210 C 
ENDBRANCH  23  28
ENDBRANCH  19  20
ENDBRANCH  18  19
ENDBRANCH  15  18
ENDBRANCH  13  14
ENDBRANCH  12  13
ENDBRANCH   2  12
BRANCH   1  30
HETATM   30  C   UNL     1       4.809  30.610  56.339  1.00  0.00     0.051 A 
HETATM   31  C   UNL     1       3.712  31.036  57.120  1.00  0.00    -0.035 A 
HETATM   32  C   UNL     1       3.334  30.380  58.420  1.00  0.00     0.050 C 
HETATM   33  C   UNL     1       2.970  32.154  56.701  1.00  0.00     0.011 A 
HETATM   34  C   UNL     1       3.275  32.811  55.508  1.00  0.00     0.024 A 
HETATM   35  C   UNL     1       4.341  32.372  54.732  1.00  0.00     0.036 A 
HETATM   36  C   UNL     1       5.109  31.284  55.141  1.00  0.00     0.054 A 
HETATM   37 CL   UNL     1       4.700  33.157  53.245  1.00  0.00    -0.084 Cl
ENDBRANCH   1  30
BRANCH   6  38
HETATM   38  N   UNL     1       4.263  28.014  55.193  1.00  0.00    -0.384 N 
HETATM   39  H   UNL     1       3.475  27.430  55.427  1.00  0.00     0.157 HD
HETATM   40  H   UNL     1       4.261  28.490  54.300  1.00  0.00     0.157 HD
ENDBRANCH   6  38
TORSDOF 10
ENDMDL
MODEL 8
REMARK VINA RESULT:      -8.5      6.719     10.626
REMARK  10 active torsions:
REMARK  status: ('A' for Active; 'I' for Inactive)
REMARK    1  A    between atoms: C_3  and  N_4 
REMARK    2  A    between atoms: C_5  and  S_6 
REMARK    3  A    between atoms: S_6  and  C_7 
REMARK    4  A    between atoms: C_7  and  C_8 
REMARK       I    between atoms: C_8  and  N_9 
REMARK    5  A    between atoms: N_9  and  C_10 
REMARK    6  A    between atoms: C_10  and  C_11 
REMARK    7  A    between atoms: C_11  and  C_12 
REMARK    8  A    between atoms: C_14  and  O_15 
REMARK    9  A    between atoms: C_17  and  O_18 
REMARK   10  A    between atoms: C_26  and  N_27 
ROOT
HETATM    1  N   UNL     1       3.727  30.105  48.336  1.00  0.00    -0.275 N 
HETATM    2  C   UNL     1       3.843  30.319  49.735  1.00  0.00     0.177 A 
HETATM    3  N   UNL     1       4.587  31.228  50.316  1.00  0.00    -0.204 NA
HETATM    4  C   UNL     1       5.242  32.029  49.446  1.00  0.00     0.162 A 
HETATM    5  C   UNL     1       5.249  32.004  48.079  1.00  0.00     0.081 A 
HETATM    6  C   UNL     1       4.463  30.988  47.444  1.00  0.00     0.124 A 
HETATM    7  N   UNL     1       6.048  33.073  49.790  1.00  0.00    -0.260 N 
HETATM    8  H   UNL     1       6.275  33.400  50.722  1.00  0.00     0.191 HD
HETATM    9  N   UNL     1       6.575  33.710  48.721  1.00  0.00    -0.177 NA
HETATM   10  C   UNL     1       6.076  33.057  47.659  1.00  0.00     0.068 A 
HETATM   11  C   UNL     1       6.439  33.501  46.293  1.00  0.00     0.073 C 
ENDROOT
BRANCH   2  12
HETATM   12  S   UNL     1       2.974  29.257  50.861  1.00  0.00    -0.082 SA
BRANCH  12  13
HETATM   13  C   UNL     1       4.301  28.099  51.289  1.00  0.00     0.185 C 
BRANCH  13  14
HETATM   14  C   UNL     1       4.149  27.541  52.699  1.00  0.00     0.227 C 
HETATM   15  N   UNL     1       4.653  26.289  52.942  1.00  0.00    -0.360 N 
HETATM   16  H   UNL     1       4.491  25.959  53.890  1.00  0.00     0.162 HD
HETATM   17  O   UNL     1       3.629  28.160  53.630  1.00  0.00    -0.273 OA
BRANCH  15  18
HETATM   18  C   UNL     1       5.310  25.402  51.994  1.00  0.00     0.127 C 
BRANCH  18  19
HETATM   19  C   UNL     1       6.833  25.354  52.161  1.00  0.00     0.058 C 
BRANCH  19  20
HETATM   20  C   UNL     1       7.306  24.362  53.201  1.00  0.00    -0.054 A 
HETATM   21  C   UNL     1       7.290  24.680  54.568  1.00  0.00     0.046 A 
HETATM   22  C   UNL     1       7.746  23.767  55.527  1.00  0.00     0.102 A 
HETATM   23  C   UNL     1       8.192  22.495  55.120  1.00  0.00     0.101 A 
HETATM   24  C   UNL     1       8.184  22.168  53.762  1.00  0.00     0.040 A 
HETATM   25  C   UNL     1       7.745  23.093  52.810  1.00  0.00     0.010 A 
BRANCH  22  26
HETATM   26  O   UNL     1       7.774  24.016  56.877  1.00  0.00    -0.353 OA
HETATM   27  C   UNL     1       8.239  25.289  57.301  1.00  0.00     0.210 C 
ENDBRANCH  22  26
BRANCH  23  28
HETATM   28  O   UNL     1       8.615  21.656  56.120  1.00  0.00    -0.353 OA
HETATM   29  C   UNL     1       8.145  20.316  56.100  1.00  0.00     0.210 C 
ENDBRANCH  23  28
ENDBRANCH  19  20
ENDBRANCH  18  19
ENDBRANCH  15  18
ENDBRANCH  13  14
ENDBRANCH  12  13
ENDBRANCH   2  12
BRANCH   1  30
HETATM   30  C   UNL     1       2.845  29.118  47.798  1.00  0.00     0.051 A 
HETATM   31  C   UNL     1       1.500  29.410  47.483  1.00  0.00    -0.035 A 
HETATM   32  C   UNL     1       0.926  30.798  47.567  1.00  0.00     0.050 C 
HETATM   33  C   UNL     1       0.669  28.376  47.017  1.00  0.00     0.011 A 
HETATM   34  C   UNL     1       1.145  27.068  46.908  1.00  0.00     0.024 A 
HETATM   35  C   UNL     1       2.463  26.784  47.243  1.00  0.00     0.036 A 
HETATM   36  C   UNL     1       3.313  27.797  47.680  1.00  0.00     0.054 A 
HETATM   37 CL   UNL     1       3.043  25.168  47.144  1.00  0.00    -0.084 Cl
ENDBRANCH   1  30
BRANCH   6  38
HETATM   38  N   UNL     1       4.441  30.858  46.132  1.00  0.00    -0.384 N 
HETATM   39  H   UNL     1       5.139  31.284  45.542  1.00  0.00     0.157 HD
HETATM   40  H   UNL     1       3.712  30.309  45.695  1.00  0.00     0.157 HD
ENDBRANCH   6  38
TORSDOF 10
ENDMDL
MODEL 9
REMARK VINA RESULT:      -8.5      5.405     11.694
REMARK  10 active torsions:
REMARK  status: ('A' for Active; 'I' for Inactive)
REMARK    1  A    between atoms: C_3  and  N_4 
REMARK    2  A    between atoms: C_5  and  S_6 
REMARK    3  A    between atoms: S_6  and  C_7 
REMARK    4  A    between atoms: C_7  and  C_8 
REMARK       I    between atoms: C_8  and  N_9 
REMARK    5  A    between atoms: N_9  and  C_10 
REMARK    6  A    between atoms: C_10  and  C_11 
REMARK    7  A    between atoms: C_11  and  C_12 
REMARK    8  A    between atoms: C_14  and  O_15 
REMARK    9  A    between atoms: C_17  and  O_18 
REMARK   10  A    between atoms: C_26  and  N_27 
ROOT
HETATM    1  N   UNL     1       4.686  36.318  63.316  1.00  0.00    -0.275 N 
HETATM    2  C   UNL     1       3.498  36.021  62.599  1.00  0.00     0.177 A 
HETATM    3  N   UNL     1       2.831  36.852  61.834  1.00  0.00    -0.204 NA
HETATM    4  C   UNL     1       3.407  38.070  61.727  1.00  0.00     0.162 A 
HETATM    5  C   UNL     1       4.549  38.545  62.311  1.00  0.00     0.081 A 
HETATM    6  C   UNL     1       5.257  37.649  63.175  1.00  0.00     0.124 A 
HETATM    7  N   UNL     1       2.938  39.099  60.965  1.00  0.00    -0.260 N 
HETATM    8  H   UNL     1       2.111  39.110  60.380  1.00  0.00     0.191 HD
HETATM    9  N   UNL     1       3.711  40.206  61.037  1.00  0.00    -0.177 NA
HETATM   10  C   UNL     1       4.714  39.865  61.863  1.00  0.00     0.068 A 
HETATM   11  C   UNL     1       5.776  40.852  62.165  1.00  0.00     0.073 C 
ENDROOT
BRANCH   2  12
HETATM   12  S   UNL     1       2.757  34.415  62.751  1.00  0.00    -0.082 SA
BRANCH  12  13
HETATM   13  C   UNL     1       3.492  33.592  61.312  1.00  0.00     0.185 C 
BRANCH  13  14
HETATM   14  C   UNL     1       4.172  32.280  61.681  1.00  0.00     0.227 C 
HETATM   15  N   UNL     1       5.283  31.918  60.962  1.00  0.00    -0.360 N 
HETATM   16  H   UNL     1       5.671  31.019  61.232  1.00  0.00     0.162 HD
HETATM   17  O   UNL     1       3.799  31.548  62.601  1.00  0.00    -0.273 OA
BRANCH  15  18
HETATM   18  C   UNL     1       5.891  32.639  59.854  1.00  0.00     0.127 C 
BRANCH  18  19
HETATM   19  C   UNL     1       5.530  32.061  58.481  1.00  0.00     0.058 C 
BRANCH  19  20
HETATM   20  C   UNL     1       6.332  30.836  58.101  1.00  0.00    -0.054 A 
HETATM   21  C   UNL     1       7.736  30.854  58.117  1.00  0.00     0.046 A 
HETATM   22  C   UNL     1       8.476  29.724  57.747  1.00  0.00     0.102 A 
HETATM   23  C   UNL     1       7.806  28.539  57.389  1.00  0.00     0.101 A 
HETATM   24  C   UNL     1       6.409  28.512  57.397  1.00  0.00     0.040 A 
HETATM   25  C   UNL     1       5.679  29.651  57.749  1.00  0.00     0.010 A 
BRANCH  22  26
HETATM   26  O   UNL     1       9.849  29.675  57.723  1.00  0.00    -0.353 OA
HETATM   27  C   UNL     1      10.552  30.908  57.777  1.00  0.00     0.210 C 
ENDBRANCH  22  26
BRANCH  23  28
HETATM   28  O   UNL     1       8.603  27.475  57.045  1.00  0.00    -0.353 OA
HETATM   29  C   UNL     1       8.114  26.171  57.319  1.00  0.00     0.210 C 
ENDBRANCH  23  28
ENDBRANCH  19  20
ENDBRANCH  18  19
ENDBRANCH  15  18
ENDBRANCH  13  14
ENDBRANCH  12  13
ENDBRANCH   2  12
BRANCH   1  30
HETATM   30  C   UNL     1       5.368  35.325  64.083  1.00  0.00     0.051 A 
HETATM   31  C   UNL     1       5.198  35.210  65.480  1.00  0.00    -0.035 A 
HETATM   32  C   UNL     1       4.200  36.034  66.249  1.00  0.00     0.050 C 
HETATM   33  C   UNL     1       5.948  34.251  66.183  1.00  0.00     0.011 A 
HETATM   34  C   UNL     1       6.884  33.451  65.525  1.00  0.00     0.024 A 
HETATM   35  C   UNL     1       7.063  33.585  64.154  1.00  0.00     0.036 A 
HETATM   36  C   UNL     1       6.311  34.509  63.431  1.00  0.00     0.054 A 
HETATM   37 CL   UNL     1       8.239  32.626  63.345  1.00  0.00    -0.084 Cl
ENDBRANCH   1  30
BRANCH   6  38
HETATM   38  N   UNL     1       6.344  38.031  63.816  1.00  0.00    -0.384 N 
HETATM   39  H   UNL     1       7.008  37.366  64.184  1.00  0.00     0.157 HD
HETATM   40  H   UNL     1       6.532  39.018  63.941  1.00  0.00     0.157 HD
ENDBRANCH   6  38
TORSDOF 10
ENDMDL
MODEL 10
REMARK VINA RESULT:      -8.1      5.583      9.595
REMARK  10 active torsions:
REMARK  status: ('A' for Active; 'I' for Inactive)
REMARK    1  A    between atoms: C_3  and  N_4 
REMARK    2  A    between atoms: C_5  and  S_6 
REMARK    3  A    between atoms: S_6  and  C_7 
REMARK    4  A    between atoms: C_7  and  C_8 
REMARK       I    between atoms: C_8  and  N_9 
REMARK    5  A    between atoms: N_9  and  C_10 
REMARK    6  A    between atoms: C_10  and  C_11 
REMARK    7  A    between atoms: C_11  and  C_12 
REMARK    8  A    between atoms: C_14  and  O_15 
REMARK    9  A    between atoms: C_17  and  O_18 
REMARK   10  A    between atoms: C_26  and  N_27 
ROOT
HETATM    1  N   UNL     1       3.581  30.833  52.528  1.00  0.00    -0.275 N 
HETATM    2  C   UNL     1       3.215  29.505  52.186  1.00  0.00     0.177 A 
HETATM    3  N   UNL     1       3.390  28.441  52.931  1.00  0.00    -0.204 NA
HETATM    4  C   UNL     1       3.933  28.710  54.139  1.00  0.00     0.162 A 
HETATM    5  C   UNL     1       4.333  29.908  54.665  1.00  0.00     0.081 A 
HETATM    6  C   UNL     1       4.173  31.065  53.836  1.00  0.00     0.124 A 
HETATM    7  N   UNL     1       4.182  27.789  55.113  1.00  0.00    -0.260 N 
HETATM    8  H   UNL     1       4.007  26.792  55.083  1.00  0.00     0.191 HD
HETATM    9  N   UNL     1       4.726  28.330  56.226  1.00  0.00    -0.177 NA
HETATM   10  C   UNL     1       4.813  29.643  55.957  1.00  0.00     0.068 A 
HETATM   11  C   UNL     1       5.363  30.562  56.979  1.00  0.00     0.073 C 
ENDROOT
BRANCH   2  12
HETATM   12  S   UNL     1       2.501  29.173  50.594  1.00  0.00    -0.082 SA
BRANCH  12  13
HETATM   13  C   UNL     1       3.948  28.494  49.737  1.00  0.00     0.185 C 
BRANCH  13  14
HETATM   14  C   UNL     1       3.685  27.103  49.174  1.00  0.00     0.227 C 
HETATM   15  N   UNL     1       4.340  26.049  49.760  1.00  0.00    -0.360 N 
HETATM   16  H   UNL     1       4.151  25.153  49.320  1.00  0.00     0.162 HD
HETATM   17  O   UNL     1       2.902  26.872  48.250  1.00  0.00    -0.273 OA
BRANCH  15  18
HETATM   18  C   UNL     1       5.290  26.102  50.862  1.00  0.00     0.127 C 
BRANCH  18  19
HETATM   19  C   UNL     1       4.827  25.327  52.101  1.00  0.00     0.058 C 
BRANCH  19  20
HETATM   20  C   UNL     1       5.960  24.756  52.926  1.00  0.00    -0.054 A 
HETATM   21  C   UNL     1       5.930  24.799  54.329  1.00  0.00     0.046 A 
HETATM   22  C   UNL     1       6.988  24.286  55.089  1.00  0.00     0.102 A 
HETATM   23  C   UNL     1       8.083  23.684  54.441  1.00  0.00     0.101 A 
HETATM   24  C   UNL     1       8.102  23.616  53.046  1.00  0.00     0.040 A 
HETATM   25  C   UNL     1       7.050  24.149  52.294  1.00  0.00     0.010 A 
BRANCH  22  26
HETATM   26  O   UNL     1       7.033  24.309  56.462  1.00  0.00    -0.353 OA
HETATM   27  C   UNL     1       6.169  25.215  57.133  1.00  0.00     0.210 C 
ENDBRANCH  22  26
BRANCH  23  28
HETATM   28  O   UNL     1       9.075  23.200  55.257  1.00  0.00    -0.353 OA
HETATM   29  C   UNL     1       9.081  21.807  55.533  1.00  0.00     0.210 C 
ENDBRANCH  23  28
ENDBRANCH  19  20
ENDBRANCH  18  19
ENDBRANCH  15  18
ENDBRANCH  13  14
ENDBRANCH  12  13
ENDBRANCH   2  12
BRANCH   1  30
HETATM   30  C   UNL     1       3.298  31.936  51.665  1.00  0.00     0.051 A 
HETATM   31  C   UNL     1       4.244  32.421  50.736  1.00  0.00    -0.035 A 
HETATM   32  C   UNL     1       5.567  31.747  50.492  1.00  0.00     0.050 C 
HETATM   33  C   UNL     1       3.924  33.550  49.962  1.00  0.00     0.011 A 
HETATM   34  C   UNL     1       2.709  34.216  50.135  1.00  0.00     0.024 A 
HETATM   35  C   UNL     1       1.792  33.747  51.068  1.00  0.00     0.036 A 
HETATM   36  C   UNL     1       2.076  32.613  51.827  1.00  0.00     0.054 A 
HETATM   37 CL   UNL     1       0.310  34.584  51.309  1.00  0.00    -0.084 Cl
ENDBRANCH   1  30
BRANCH   6  38
HETATM   38  N   UNL     1       4.569  32.257  54.240  1.00  0.00    -0.384 N 
HETATM   39  H   UNL     1       3.913  32.977  54.498  1.00  0.00     0.157 HD
HETATM   40  H   UNL     1       5.558  32.461  54.304  1.00  0.00     0.157 HD
ENDBRANCH   6  38
TORSDOF 10
ENDMDL
