MODEL 1
REMARK VINA RESULT:     -10.1      0.000      0.000
REMARK  5 active torsions:
REMARK  status: ('A' for Active; 'I' for Inactive)
REMARK    1  A    between atoms: C_7  and  C_8 
REMARK    2  A    between atoms: C_8  and  O_9 
REMARK    3  A    between atoms: N_12  and  C_13 
REMARK    4  A    between atoms: C_13  and  C_14 
REMARK    5  A    between atoms: C_14  and  C_15 
ROOT
HETATM    1  C   UNL     1       6.584  28.039  56.911  1.00  0.00     0.199 A 
HETATM    2  C   UNL     1       7.010  26.605  57.376  1.00  0.00     0.269 A 
HETATM    3  O   UNL     1       7.631  26.306  58.387  1.00  0.00    -0.269 OA
HETATM    4  N   UNL     1       6.534  25.696  56.411  1.00  0.00    -0.314 N 
HETATM    5  C   UNL     1       5.902  26.367  55.354  1.00  0.00     0.047 A 
HETATM    6  C   UNL     1       5.910  27.749  55.591  1.00  0.00     0.017 A 
HETATM    7  C   UNL     1       5.332  25.841  54.209  1.00  0.00     0.030 A 
HETATM    8  C   UNL     1       4.748  26.725  53.295  1.00  0.00     0.002 A 
HETATM    9  C   UNL     1       4.738  28.108  53.537  1.00  0.00     0.001 A 
HETATM   10  C   UNL     1       5.314  28.629  54.696  1.00  0.00     0.013 A 
ENDROOT
BRANCH   1  11
HETATM   11  C   UNL     1       7.818  28.897  56.691  1.00  0.00     0.025 A 
HETATM   12  C   UNL     1       8.686  28.960  55.595  1.00  0.00     0.016 A 
HETATM   13  C   UNL     1       8.703  28.256  54.283  1.00  0.00     0.069 C 
HETATM   14  N   UNL     1       9.689  29.846  55.899  1.00  0.00    -0.359 N 
HETATM   15  H   UNL     1      10.456  30.084  55.286  1.00  0.00     0.166 HD
HETATM   16  C   UNL     1       9.570  30.303  57.184  1.00  0.00     0.043 A 
HETATM   17  C   UNL     1       8.410  29.739  57.710  1.00  0.00     0.003 A 
HETATM   18  C   UNL     1      10.410  31.153  57.916  1.00  0.00     0.030 A 
HETATM   19  C   UNL     1       8.082  30.045  59.050  1.00  0.00     0.014 A 
HETATM   20  C   UNL     1       8.909  30.891  59.800  1.00  0.00     0.001 A 
HETATM   21  C   UNL     1      10.058  31.435  59.238  1.00  0.00     0.002 A 
ENDBRANCH   1  11
BRANCH   1  22
HETATM   22  O   UNL     1       5.615  28.635  57.769  1.00  0.00    -0.371 OA
HETATM   23  H   UNL     1       4.790  28.142  57.647  1.00  0.00     0.212 HD
ENDBRANCH   1  22
BRANCH   4  24
HETATM   24  C   UNL     1       6.910  24.298  56.416  1.00  0.00     0.137 C 
BRANCH  24  25
HETATM   25  C   UNL     1       8.278  24.027  55.778  1.00  0.00     0.058 C 
BRANCH  25  26
HETATM   26  C   UNL     1       8.245  22.772  54.939  1.00  0.00    -0.057 A 
HETATM   27  C   UNL     1       7.991  22.857  53.562  1.00  0.00     0.007 A 
HETATM   28  C   UNL     1       7.917  21.703  52.782  1.00  0.00     0.001 A 
HETATM   29  C   UNL     1       8.102  20.454  53.370  1.00  0.00     0.000 A 
HETATM   30  C   UNL     1       8.364  20.360  54.737  1.00  0.00     0.001 A 
HETATM   31  C   UNL     1       8.434  21.513  55.520  1.00  0.00     0.007 A 
ENDBRANCH  25  26
ENDBRANCH  24  25
ENDBRANCH   4  24
TORSDOF 5
ENDMDL
MODEL 2
REMARK VINA RESULT:     -10.1      3.374      5.761
REMARK  5 active torsions:
REMARK  status: ('A' for Active; 'I' for Inactive)
REMARK    1  A    between atoms: C_7  and  C_8 
REMARK    2  A    between atoms: C_8  and  O_9 
REMARK    3  A    between atoms: N_12  and  C_13 
REMARK    4  A    between atoms: C_13  and  C_14 
REMARK    5  A    between atoms: C_14  and  C_15 
ROOT
HETATM    1  C   UNL     1       6.462  27.536  53.083  1.00  0.00     0.199 A 
HETATM    2  C   UNL     1       7.447  26.387  53.487  1.00  0.00     0.269 A 
HETATM    3  O   UNL     1       8.304  25.863  52.786  1.00  0.00    -0.269 OA
HETATM    4  N   UNL     1       7.179  26.060  54.830  1.00  0.00    -0.314 N 
HETATM    5  C   UNL     1       6.107  26.815  55.328  1.00  0.00     0.047 A 
HETATM    6  C   UNL     1       5.640  27.693  54.341  1.00  0.00     0.017 A 
HETATM    7  C   UNL     1       5.524  26.772  56.582  1.00  0.00     0.030 A 
HETATM    8  C   UNL     1       4.459  27.641  56.845  1.00  0.00     0.002 A 
HETATM    9  C   UNL     1       4.000  28.535  55.865  1.00  0.00     0.001 A 
HETATM   10  C   UNL     1       4.596  28.572  54.604  1.00  0.00     0.013 A 
ENDROOT
BRANCH   1  11
HETATM   11  C   UNL     1       5.578  27.077  51.936  1.00  0.00     0.025 A 
HETATM   12  C   UNL     1       4.966  25.839  51.712  1.00  0.00     0.016 A 
HETATM   13  C   UNL     1       4.935  24.575  52.497  1.00  0.00     0.069 C 
HETATM   14  N   UNL     1       4.320  25.898  50.501  1.00  0.00    -0.359 N 
HETATM   15  H   UNL     1       3.795  25.141  50.089  1.00  0.00     0.166 HD
HETATM   16  C   UNL     1       4.555  27.093  49.876  1.00  0.00     0.043 A 
HETATM   17  C   UNL     1       5.331  27.859  50.742  1.00  0.00     0.003 A 
HETATM   18  C   UNL     1       4.155  27.537  48.609  1.00  0.00     0.030 A 
HETATM   19  C   UNL     1       5.730  29.143  50.303  1.00  0.00     0.014 A 
HETATM   20  C   UNL     1       5.342  29.604  49.040  1.00  0.00     0.001 A 
HETATM   21  C   UNL     1       4.565  28.808  48.205  1.00  0.00     0.002 A 
ENDBRANCH   1  11
BRANCH   1  22
HETATM   22  O   UNL     1       7.122  28.774  52.840  1.00  0.00    -0.371 OA
HETATM   23  H   UNL     1       7.719  28.926  53.589  1.00  0.00     0.212 HD
ENDBRANCH   1  22
BRANCH   4  24
HETATM   24  C   UNL     1       7.770  24.908  55.478  1.00  0.00     0.137 C 
BRANCH  24  25
HETATM   25  C   UNL     1       6.840  23.690  55.535  1.00  0.00     0.058 C 
BRANCH  25  26
HETATM   26  C   UNL     1       7.507  22.472  54.943  1.00  0.00    -0.057 A 
HETATM   27  C   UNL     1       7.702  22.384  53.556  1.00  0.00     0.007 A 
HETATM   28  C   UNL     1       8.280  21.245  52.993  1.00  0.00     0.001 A 
HETATM   29  C   UNL     1       8.675  20.189  53.810  1.00  0.00     0.000 A 
HETATM   30  C   UNL     1       8.494  20.271  55.191  1.00  0.00     0.001 A 
HETATM   31  C   UNL     1       7.911  21.407  55.756  1.00  0.00     0.007 A 
ENDBRANCH  25  26
ENDBRANCH  24  25
ENDBRANCH   4  24
TORSDOF 5
ENDMDL
MODEL 3
REMARK VINA RESULT:     -10.0      1.653      2.408
REMARK  5 active torsions:
REMARK  status: ('A' for Active; 'I' for Inactive)
REMARK    1  A    between atoms: C_7  and  C_8 
REMARK    2  A    between atoms: C_8  and  O_9 
REMARK    3  A    between atoms: N_12  and  C_13 
REMARK    4  A    between atoms: C_13  and  C_14 
REMARK    5  A    between atoms: C_14  and  C_15 
ROOT
HETATM    1  C   UNL     1       5.226  27.815  56.261  1.00  0.00     0.199 A 
HETATM    2  C   UNL     1       6.115  26.526  56.301  1.00  0.00     0.269 A 
HETATM    3  O   UNL     1       6.410  25.858  57.284  1.00  0.00    -0.269 OA
HETATM    4  N   UNL     1       6.516  26.255  54.979  1.00  0.00    -0.314 N 
HETATM    5  C   UNL     1       6.044  27.237  54.097  1.00  0.00     0.047 A 
HETATM    6  C   UNL     1       5.287  28.186  54.798  1.00  0.00     0.017 A 
HETATM    7  C   UNL     1       6.243  27.348  52.733  1.00  0.00     0.030 A 
HETATM    8  C   UNL     1       5.655  28.427  52.064  1.00  0.00     0.002 A 
HETATM    9  C   UNL     1       4.881  29.369  52.759  1.00  0.00     0.001 A 
HETATM   10  C   UNL     1       4.684  29.249  54.136  1.00  0.00     0.013 A 
ENDROOT
BRANCH   1  11
HETATM   11  C   UNL     1       5.864  28.906  57.103  1.00  0.00     0.025 A 
HETATM   12  C   UNL     1       5.276  29.980  57.781  1.00  0.00     0.016 A 
HETATM   13  C   UNL     1       3.861  30.416  57.940  1.00  0.00     0.069 C 
HETATM   14  N   UNL     1       6.280  30.724  58.350  1.00  0.00    -0.359 N 
HETATM   15  H   UNL     1       6.140  31.561  58.897  1.00  0.00     0.166 HD
HETATM   16  C   UNL     1       7.511  30.238  58.001  1.00  0.00     0.043 A 
HETATM   17  C   UNL     1       7.294  29.099  57.229  1.00  0.00     0.003 A 
HETATM   18  C   UNL     1       8.789  30.732  58.297  1.00  0.00     0.030 A 
HETATM   19  C   UNL     1       8.429  28.424  56.724  1.00  0.00     0.014 A 
HETATM   20  C   UNL     1       9.714  28.903  57.005  1.00  0.00     0.001 A 
HETATM   21  C   UNL     1       9.888  30.043  57.782  1.00  0.00     0.002 A 
ENDBRANCH   1  11
BRANCH   1  22
HETATM   22  O   UNL     1       3.864  27.561  56.587  1.00  0.00    -0.371 OA
HETATM   23  H   UNL     1       3.574  28.279  57.169  1.00  0.00     0.212 HD
ENDBRANCH   1  22
BRANCH   4  24
HETATM   24  C   UNL     1       7.505  25.245  54.664  1.00  0.00     0.137 C 
BRANCH  24  25
HETATM   25  C   UNL     1       7.013  24.197  53.657  1.00  0.00     0.058 C 
BRANCH  25  26
HETATM   26  C   UNL     1       7.492  22.816  54.036  1.00  0.00    -0.057 A 
HETATM   27  C   UNL     1       7.899  21.918  53.039  1.00  0.00     0.007 A 
HETATM   28  C   UNL     1       8.305  20.625  53.373  1.00  0.00     0.001 A 
HETATM   29  C   UNL     1       8.316  20.222  54.706  1.00  0.00     0.000 A 
HETATM   30  C   UNL     1       7.922  21.112  55.706  1.00  0.00     0.001 A 
HETATM   31  C   UNL     1       7.511  22.404  55.374  1.00  0.00     0.007 A 
ENDBRANCH  25  26
ENDBRANCH  24  25
ENDBRANCH   4  24
TORSDOF 5
ENDMDL
MODEL 4
REMARK VINA RESULT:      -9.9      2.179      7.660
REMARK  5 active torsions:
REMARK  status: ('A' for Active; 'I' for Inactive)
REMARK    1  A    between atoms: C_7  and  C_8 
REMARK    2  A    between atoms: C_8  and  O_9 
REMARK    3  A    between atoms: N_12  and  C_13 
REMARK    4  A    between atoms: C_13  and  C_14 
REMARK    5  A    between atoms: C_14  and  C_15 
ROOT
HETATM    1  C   UNL     1       7.283  28.343  55.009  1.00  0.00     0.199 A 
HETATM    2  C   UNL     1       8.369  29.095  55.853  1.00  0.00     0.269 A 
HETATM    3  O   UNL     1       9.584  28.977  55.772  1.00  0.00    -0.269 OA
HETATM    4  N   UNL     1       7.688  29.957  56.734  1.00  0.00    -0.314 N 
HETATM    5  C   UNL     1       6.299  29.818  56.605  1.00  0.00     0.047 A 
HETATM    6  C   UNL     1       6.003  28.874  55.611  1.00  0.00     0.017 A 
HETATM    7  C   UNL     1       5.293  30.459  57.304  1.00  0.00     0.030 A 
HETATM    8  C   UNL     1       3.966  30.153  56.982  1.00  0.00     0.002 A 
HETATM    9  C   UNL     1       3.665  29.223  55.976  1.00  0.00     0.001 A 
HETATM   10  C   UNL     1       4.687  28.581  55.275  1.00  0.00     0.013 A 
ENDROOT
BRANCH   1  11
HETATM   11  C   UNL     1       7.391  26.847  55.248  1.00  0.00     0.025 A 
HETATM   12  C   UNL     1       7.516  26.133  56.444  1.00  0.00     0.016 A 
HETATM   13  C   UNL     1       7.562  26.559  57.870  1.00  0.00     0.069 C 
HETATM   14  N   UNL     1       7.639  24.801  56.133  1.00  0.00    -0.359 N 
HETATM   15  H   UNL     1       7.747  24.058  56.808  1.00  0.00     0.166 HD
HETATM   16  C   UNL     1       7.690  24.615  54.778  1.00  0.00     0.043 A 
HETATM   17  C   UNL     1       7.532  25.868  54.190  1.00  0.00     0.003 A 
HETATM   18  C   UNL     1       7.883  23.440  54.040  1.00  0.00     0.030 A 
HETATM   19  C   UNL     1       7.575  25.939  52.778  1.00  0.00     0.014 A 
HETATM   20  C   UNL     1       7.769  24.777  52.022  1.00  0.00     0.001 A 
HETATM   21  C   UNL     1       7.922  23.544  52.648  1.00  0.00     0.002 A 
ENDBRANCH   1  11
BRANCH   1  22
HETATM   22  O   UNL     1       7.298  28.709  53.633  1.00  0.00    -0.371 OA
HETATM   23  H   UNL     1       8.205  28.981  53.424  1.00  0.00     0.212 HD
ENDBRANCH   1  22
BRANCH   4  24
HETATM   24  C   UNL     1       8.368  30.667  57.797  1.00  0.00     0.137 C 
BRANCH  24  25
HETATM   25  C   UNL     1       8.327  29.939  59.147  1.00  0.00     0.058 C 
BRANCH  25  26
HETATM   26  C   UNL     1       8.116  30.914  60.281  1.00  0.00    -0.057 A 
HETATM   27  C   UNL     1       8.888  30.809  61.447  1.00  0.00     0.007 A 
HETATM   28  C   UNL     1       8.675  31.678  62.518  1.00  0.00     0.001 A 
HETATM   29  C   UNL     1       7.694  32.663  62.430  1.00  0.00     0.000 A 
HETATM   30  C   UNL     1       6.928  32.780  61.271  1.00  0.00     0.001 A 
HETATM   31  C   UNL     1       7.135  31.910  60.200  1.00  0.00     0.007 A 
ENDBRANCH  25  26
ENDBRANCH  24  25
ENDBRANCH   4  24
TORSDOF 5
ENDMDL
MODEL 5
REMARK VINA RESULT:      -9.8      2.726      6.900
REMARK  5 active torsions:
REMARK  status: ('A' for Active; 'I' for Inactive)
REMARK    1  A    between atoms: C_7  and  C_8 
REMARK    2  A    between atoms: C_8  and  O_9 
REMARK    3  A    between atoms: N_12  and  C_13 
REMARK    4  A    between atoms: C_13  and  C_14 
REMARK    5  A    between atoms: C_14  and  C_15 
ROOT
HETATM    1  C   UNL     1       6.299  24.975  55.128  1.00  0.00     0.199 A 
HETATM    2  C   UNL     1       5.291  25.570  54.087  1.00  0.00     0.269 A 
HETATM    3  O   UNL     1       4.495  24.955  53.389  1.00  0.00    -0.269 OA
HETATM    4  N   UNL     1       5.455  26.968  54.100  1.00  0.00    -0.314 N 
HETATM    5  C   UNL     1       6.480  27.348  54.978  1.00  0.00     0.047 A 
HETATM    6  C   UNL     1       7.018  26.215  55.604  1.00  0.00     0.017 A 
HETATM    7  C   UNL     1       6.963  28.614  55.253  1.00  0.00     0.030 A 
HETATM    8  C   UNL     1       7.999  28.738  56.185  1.00  0.00     0.002 A 
HETATM    9  C   UNL     1       8.529  27.609  56.828  1.00  0.00     0.001 A 
HETATM   10  C   UNL     1       8.033  26.335  56.545  1.00  0.00     0.013 A 
ENDROOT
BRANCH   1  11
HETATM   11  C   UNL     1       7.272  24.043  54.428  1.00  0.00     0.025 A 
HETATM   12  C   UNL     1       7.872  24.149  53.169  1.00  0.00     0.016 A 
HETATM   13  C   UNL     1       7.800  25.188  52.105  1.00  0.00     0.069 C 
HETATM   14  N   UNL     1       8.628  23.021  52.962  1.00  0.00    -0.359 N 
HETATM   15  H   UNL     1       9.169  22.833  52.131  1.00  0.00     0.166 HD
HETATM   16  C   UNL     1       8.480  22.134  53.994  1.00  0.00     0.043 A 
HETATM   17  C   UNL     1       7.646  22.737  54.932  1.00  0.00     0.003 A 
HETATM   18  C   UNL     1       9.005  20.844  54.151  1.00  0.00     0.030 A 
HETATM   19  C   UNL     1       7.321  21.997  56.092  1.00  0.00     0.014 A 
HETATM   20  C   UNL     1       7.833  20.706  56.267  1.00  0.00     0.001 A 
HETATM   21  C   UNL     1       8.664  20.139  55.307  1.00  0.00     0.002 A 
ENDBRANCH   1  11
BRANCH   1  22
HETATM   22  O   UNL     1       5.653  24.391  56.255  1.00  0.00    -0.371 OA
HETATM   23  H   UNL     1       4.966  23.799  55.911  1.00  0.00     0.212 HD
ENDBRANCH   1  22
BRANCH   4  24
HETATM   24  C   UNL     1       4.821  27.829  53.124  1.00  0.00     0.137 C 
BRANCH  24  25
HETATM   25  C   UNL     1       5.790  28.385  52.072  1.00  0.00     0.058 C 
BRANCH  25  26
HETATM   26  C   UNL     1       5.389  27.950  50.683  1.00  0.00    -0.057 A 
HETATM   27  C   UNL     1       5.557  28.824  49.599  1.00  0.00     0.007 A 
HETATM   28  C   UNL     1       5.153  28.449  48.317  1.00  0.00     0.001 A 
HETATM   29  C   UNL     1       4.584  27.195  48.106  1.00  0.00     0.000 A 
HETATM   30  C   UNL     1       4.422  26.315  49.176  1.00  0.00     0.001 A 
HETATM   31  C   UNL     1       4.821  26.690  50.460  1.00  0.00     0.007 A 
ENDBRANCH  25  26
ENDBRANCH  24  25
ENDBRANCH   4  24
TORSDOF 5
ENDMDL
MODEL 6
REMARK VINA RESULT:      -9.6      1.732      2.344
REMARK  5 active torsions:
REMARK  status: ('A' for Active; 'I' for Inactive)
REMARK    1  A    between atoms: C_7  and  C_8 
REMARK    2  A    between atoms: C_8  and  O_9 
REMARK    3  A    between atoms: N_12  and  C_13 
REMARK    4  A    between atoms: C_13  and  C_14 
REMARK    5  A    between atoms: C_14  and  C_15 
ROOT
HETATM    1  C   UNL     1       5.121  27.604  56.162  1.00  0.00     0.199 A 
HETATM    2  C   UNL     1       5.370  26.061  56.269  1.00  0.00     0.269 A 
HETATM    3  O   UNL     1       5.401  25.383  57.288  1.00  0.00    -0.269 OA
HETATM    4  N   UNL     1       5.547  25.575  54.959  1.00  0.00    -0.314 N 
HETATM    5  C   UNL     1       5.497  26.619  54.024  1.00  0.00     0.047 A 
HETATM    6  C   UNL     1       5.258  27.837  54.675  1.00  0.00     0.017 A 
HETATM    7  C   UNL     1       5.652  26.562  52.650  1.00  0.00     0.030 A 
HETATM    8  C   UNL     1       5.551  27.753  51.924  1.00  0.00     0.002 A 
HETATM    9  C   UNL     1       5.294  28.972  52.570  1.00  0.00     0.001 A 
HETATM   10  C   UNL     1       5.137  29.019  53.956  1.00  0.00     0.013 A 
ENDROOT
BRANCH   1  11
HETATM   11  C   UNL     1       6.209  28.354  56.911  1.00  0.00     0.025 A 
HETATM   12  C   UNL     1       7.498  27.948  57.270  1.00  0.00     0.016 A 
HETATM   13  C   UNL     1       8.258  26.689  57.037  1.00  0.00     0.069 C 
HETATM   14  N   UNL     1       8.078  28.962  57.992  1.00  0.00    -0.359 N 
HETATM   15  H   UNL     1       9.010  28.936  58.379  1.00  0.00     0.166 HD
HETATM   16  C   UNL     1       7.193  29.985  58.201  1.00  0.00     0.043 A 
HETATM   17  C   UNL     1       6.016  29.647  57.536  1.00  0.00     0.003 A 
HETATM   18  C   UNL     1       7.344  31.165  58.941  1.00  0.00     0.030 A 
HETATM   19  C   UNL     1       4.930  30.548  57.627  1.00  0.00     0.014 A 
HETATM   20  C   UNL     1       5.059  31.731  58.363  1.00  0.00     0.001 A 
HETATM   21  C   UNL     1       6.252  32.033  59.011  1.00  0.00     0.002 A 
ENDBRANCH   1  11
BRANCH   1  22
HETATM   22  O   UNL     1       3.800  27.980  56.538  1.00  0.00    -0.371 OA
HETATM   23  H   UNL     1       3.290  28.075  55.719  1.00  0.00     0.212 HD
ENDBRANCH   1  22
BRANCH   4  24
HETATM   24  C   UNL     1       5.988  24.223  54.690  1.00  0.00     0.137 C 
BRANCH  24  25
HETATM   25  C   UNL     1       7.513  24.076  54.625  1.00  0.00     0.058 C 
BRANCH  25  26
HETATM   26  C   UNL     1       7.910  22.629  54.454  1.00  0.00    -0.057 A 
HETATM   27  C   UNL     1       8.194  21.843  55.581  1.00  0.00     0.007 A 
HETATM   28  C   UNL     1       8.602  20.516  55.435  1.00  0.00     0.001 A 
HETATM   29  C   UNL     1       8.721  19.962  54.163  1.00  0.00     0.000 A 
HETATM   30  C   UNL     1       8.432  20.733  53.037  1.00  0.00     0.001 A 
HETATM   31  C   UNL     1       8.029  22.061  53.180  1.00  0.00     0.007 A 
ENDBRANCH  25  26
ENDBRANCH  24  25
ENDBRANCH   4  24
TORSDOF 5
ENDMDL
MODEL 7
REMARK VINA RESULT:      -9.5     10.433     13.904
REMARK  5 active torsions:
REMARK  status: ('A' for Active; 'I' for Inactive)
REMARK    1  A    between atoms: C_7  and  C_8 
REMARK    2  A    between atoms: C_8  and  O_9 
REMARK    3  A    between atoms: N_12  and  C_13 
REMARK    4  A    between atoms: C_13  and  C_14 
REMARK    5  A    between atoms: C_14  and  C_15 
ROOT
HETATM    1  C   UNL     1       3.788  34.512  64.005  1.00  0.00     0.199 A 
HETATM    2  C   UNL     1       3.768  34.976  65.501  1.00  0.00     0.269 A 
HETATM    3  O   UNL     1       2.850  35.525  66.096  1.00  0.00    -0.269 OA
HETATM    4  N   UNL     1       5.015  34.634  66.059  1.00  0.00    -0.314 N 
HETATM    5  C   UNL     1       5.858  34.058  65.098  1.00  0.00     0.047 A 
HETATM    6  C   UNL     1       5.191  33.969  63.868  1.00  0.00     0.017 A 
HETATM    7  C   UNL     1       7.161  33.616  65.238  1.00  0.00     0.030 A 
HETATM    8  C   UNL     1       7.795  33.064  64.120  1.00  0.00     0.002 A 
HETATM    9  C   UNL     1       7.125  32.957  62.891  1.00  0.00     0.001 A 
HETATM   10  C   UNL     1       5.810  33.404  62.760  1.00  0.00     0.013 A 
ENDROOT
BRANCH   1  11
HETATM   11  C   UNL     1       3.600  35.711  63.092  1.00  0.00     0.025 A 
HETATM   12  C   UNL     1       2.823  35.850  61.937  1.00  0.00     0.016 A 
HETATM   13  C   UNL     1       1.909  34.918  61.221  1.00  0.00     0.069 C 
HETATM   14  N   UNL     1       3.033  37.110  61.432  1.00  0.00    -0.359 N 
HETATM   15  H   UNL     1       2.598  37.479  60.599  1.00  0.00     0.166 HD
HETATM   16  C   UNL     1       3.985  37.777  62.155  1.00  0.00     0.043 A 
HETATM   17  C   UNL     1       4.359  36.940  63.204  1.00  0.00     0.003 A 
HETATM   18  C   UNL     1       4.550  39.042  61.944  1.00  0.00     0.030 A 
HETATM   19  C   UNL     1       5.362  37.403  64.087  1.00  0.00     0.014 A 
HETATM   20  C   UNL     1       5.940  38.663  63.893  1.00  0.00     0.001 A 
HETATM   21  C   UNL     1       5.538  39.470  62.833  1.00  0.00     0.002 A 
ENDBRANCH   1  11
BRANCH   1  22
HETATM   22  O   UNL     1       2.884  33.443  63.744  1.00  0.00    -0.371 OA
HETATM   23  H   UNL     1       3.420  32.649  63.600  1.00  0.00     0.212 HD
ENDBRANCH   1  22
BRANCH   4  24
HETATM   24  C   UNL     1       5.422  35.084  67.374  1.00  0.00     0.137 C 
BRANCH  24  25
HETATM   25  C   UNL     1       5.242  34.025  68.469  1.00  0.00     0.058 C 
BRANCH  25  26
HETATM   26  C   UNL     1       6.418  34.022  69.417  1.00  0.00    -0.057 A 
HETATM   27  C   UNL     1       6.398  33.203  70.555  1.00  0.00     0.007 A 
HETATM   28  C   UNL     1       7.460  33.221  71.460  1.00  0.00     0.001 A 
HETATM   29  C   UNL     1       8.553  34.053  71.232  1.00  0.00     0.000 A 
HETATM   30  C   UNL     1       8.587  34.864  70.098  1.00  0.00     0.001 A 
HETATM   31  C   UNL     1       7.523  34.851  69.194  1.00  0.00     0.007 A 
ENDBRANCH  25  26
ENDBRANCH  24  25
ENDBRANCH   4  24
TORSDOF 5
ENDMDL
MODEL 8
REMARK VINA RESULT:      -9.1      8.064     11.628
REMARK  5 active torsions:
REMARK  status: ('A' for Active; 'I' for Inactive)
REMARK    1  A    between atoms: C_7  and  C_8 
REMARK    2  A    between atoms: C_8  and  O_9 
REMARK    3  A    between atoms: N_12  and  C_13 
REMARK    4  A    between atoms: C_13  and  C_14 
REMARK    5  A    between atoms: C_14  and  C_15 
ROOT
HETATM    1  C   UNL     1       4.014  35.402  64.568  1.00  0.00     0.199 A 
HETATM    2  C   UNL     1       3.060  34.790  63.486  1.00  0.00     0.269 A 
HETATM    3  O   UNL     1       2.469  33.719  63.538  1.00  0.00    -0.269 OA
HETATM    4  N   UNL     1       2.990  35.711  62.423  1.00  0.00    -0.314 N 
HETATM    5  C   UNL     1       3.821  36.816  62.657  1.00  0.00     0.047 A 
HETATM    6  C   UNL     1       4.456  36.684  63.900  1.00  0.00     0.017 A 
HETATM    7  C   UNL     1       4.053  37.915  61.850  1.00  0.00     0.030 A 
HETATM    8  C   UNL     1       4.930  38.902  62.313  1.00  0.00     0.002 A 
HETATM    9  C   UNL     1       5.553  38.782  63.565  1.00  0.00     0.001 A 
HETATM   10  C   UNL     1       5.312  37.670  64.374  1.00  0.00     0.013 A 
ENDROOT
BRANCH   1  11
HETATM   11  C   UNL     1       5.206  34.486  64.781  1.00  0.00     0.025 A 
HETATM   12  C   UNL     1       5.884  34.151  65.957  1.00  0.00     0.016 A 
HETATM   13  C   UNL     1       5.679  34.534  67.381  1.00  0.00     0.069 C 
HETATM   14  N   UNL     1       6.935  33.332  65.623  1.00  0.00    -0.359 N 
HETATM   15  H   UNL     1       7.594  32.941  66.280  1.00  0.00     0.166 HD
HETATM   16  C   UNL     1       7.032  33.185  64.266  1.00  0.00     0.043 A 
HETATM   17  C   UNL     1       5.966  33.885  63.704  1.00  0.00     0.003 A 
HETATM   18  C   UNL     1       7.990  32.505  63.503  1.00  0.00     0.030 A 
HETATM   19  C   UNL     1       5.865  33.903  62.294  1.00  0.00     0.014 A 
HETATM   20  C   UNL     1       6.812  33.231  61.513  1.00  0.00     0.001 A 
HETATM   21  C   UNL     1       7.861  32.542  62.113  1.00  0.00     0.002 A 
ENDBRANCH   1  11
BRANCH   1  22
HETATM   22  O   UNL     1       3.336  35.753  65.770  1.00  0.00    -0.371 OA
HETATM   23  H   UNL     1       3.751  35.248  66.486  1.00  0.00     0.212 HD
ENDBRANCH   1  22
BRANCH   4  24
HETATM   24  C   UNL     1       2.351  35.390  61.164  1.00  0.00     0.137 C 
BRANCH  24  25
HETATM   25  C   UNL     1       3.290  35.489  59.955  1.00  0.00     0.058 C 
BRANCH  25  26
HETATM   26  C   UNL     1       3.697  34.117  59.474  1.00  0.00    -0.057 A 
HETATM   27  C   UNL     1       3.132  32.973  60.058  1.00  0.00     0.007 A 
HETATM   28  C   UNL     1       3.530  31.699  59.650  1.00  0.00     0.001 A 
HETATM   29  C   UNL     1       4.490  31.557  58.652  1.00  0.00     0.000 A 
HETATM   30  C   UNL     1       5.051  32.688  58.059  1.00  0.00     0.001 A 
HETATM   31  C   UNL     1       4.659  33.963  58.468  1.00  0.00     0.007 A 
ENDBRANCH  25  26
ENDBRANCH  24  25
ENDBRANCH   4  24
TORSDOF 5
ENDMDL
MODEL 9
REMARK VINA RESULT:      -9.1      1.715      2.640
REMARK  5 active torsions:
REMARK  status: ('A' for Active; 'I' for Inactive)
REMARK    1  A    between atoms: C_7  and  C_8 
REMARK    2  A    between atoms: C_8  and  O_9 
REMARK    3  A    between atoms: N_12  and  C_13 
REMARK    4  A    between atoms: C_13  and  C_14 
REMARK    5  A    between atoms: C_14  and  C_15 
ROOT
HETATM    1  C   UNL     1       5.638  29.412  57.137  1.00  0.00     0.199 A 
HETATM    2  C   UNL     1       5.733  27.910  56.697  1.00  0.00     0.269 A 
HETATM    3  O   UNL     1       6.168  26.972  57.351  1.00  0.00    -0.269 OA
HETATM    4  N   UNL     1       5.208  27.824  55.394  1.00  0.00    -0.314 N 
HETATM    5  C   UNL     1       4.836  29.088  54.914  1.00  0.00     0.047 A 
HETATM    6  C   UNL     1       5.076  30.062  55.894  1.00  0.00     0.017 A 
HETATM    7  C   UNL     1       4.311  29.430  53.681  1.00  0.00     0.030 A 
HETATM    8  C   UNL     1       4.011  30.775  53.440  1.00  0.00     0.002 A 
HETATM    9  C   UNL     1       4.233  31.750  54.425  1.00  0.00     0.001 A 
HETATM   10  C   UNL     1       4.762  31.396  55.667  1.00  0.00     0.013 A 
ENDROOT
BRANCH   1  11
HETATM   11  C   UNL     1       7.028  29.951  57.426  1.00  0.00     0.025 A 
HETATM   12  C   UNL     1       8.258  29.628  56.843  1.00  0.00     0.016 A 
HETATM   13  C   UNL     1       8.639  28.690  55.751  1.00  0.00     0.069 C 
HETATM   14  N   UNL     1       9.236  30.343  57.490  1.00  0.00    -0.359 N 
HETATM   15  H   UNL     1      10.221  30.301  57.274  1.00  0.00     0.166 HD
HETATM   16  C   UNL     1       8.713  31.058  58.534  1.00  0.00     0.043 A 
HETATM   17  C   UNL     1       7.337  30.845  58.523  1.00  0.00     0.003 A 
HETATM   18  C   UNL     1       9.359  31.855  59.489  1.00  0.00     0.030 A 
HETATM   19  C   UNL     1       6.570  31.467  59.535  1.00  0.00     0.014 A 
HETATM   20  C   UNL     1       7.195  32.265  60.500  1.00  0.00     0.001 A 
HETATM   21  C   UNL     1       8.573  32.454  60.475  1.00  0.00     0.002 A 
ENDBRANCH   1  11
BRANCH   1  22
HETATM   22  O   UNL     1       4.708  29.623  58.194  1.00  0.00    -0.371 OA
HETATM   23  H   UNL     1       4.666  28.798  58.701  1.00  0.00     0.212 HD
ENDBRANCH   1  22
BRANCH   4  24
HETATM   24  C   UNL     1       5.311  26.619  54.598  1.00  0.00     0.137 C 
BRANCH  24  25
HETATM   25  C   UNL     1       6.627  26.510  53.817  1.00  0.00     0.058 C 
BRANCH  25  26
HETATM   26  C   UNL     1       7.187  25.110  53.893  1.00  0.00    -0.057 A 
HETATM   27  C   UNL     1       7.558  24.570  55.134  1.00  0.00     0.007 A 
HETATM   28  C   UNL     1       8.115  23.293  55.213  1.00  0.00     0.001 A 
HETATM   29  C   UNL     1       8.298  22.541  54.055  1.00  0.00     0.000 A 
HETATM   30  C   UNL     1       7.924  23.065  52.818  1.00  0.00     0.001 A 
HETATM   31  C   UNL     1       7.371  24.345  52.736  1.00  0.00     0.007 A 
ENDBRANCH  25  26
ENDBRANCH  24  25
ENDBRANCH   4  24
TORSDOF 5
ENDMDL
MODEL 10
REMARK VINA RESULT:      -9.0      2.006      3.311
REMARK  5 active torsions:
REMARK  status: ('A' for Active; 'I' for Inactive)
REMARK    1  A    between atoms: C_7  and  C_8 
REMARK    2  A    between atoms: C_8  and  O_9 
REMARK    3  A    between atoms: N_12  and  C_13 
REMARK    4  A    between atoms: C_13  and  C_14 
REMARK    5  A    between atoms: C_14  and  C_15 
ROOT
HETATM    1  C   UNL     1       5.253  29.645  57.288  1.00  0.00     0.199 A 
HETATM    2  C   UNL     1       5.459  28.183  56.761  1.00  0.00     0.269 A 
HETATM    3  O   UNL     1       5.843  27.212  57.399  1.00  0.00    -0.269 OA
HETATM    4  N   UNL     1       5.110  28.180  55.397  1.00  0.00    -0.314 N 
HETATM    5  C   UNL     1       4.756  29.465  54.963  1.00  0.00     0.047 A 
HETATM    6  C   UNL     1       4.831  30.369  56.032  1.00  0.00     0.017 A 
HETATM    7  C   UNL     1       4.380  29.882  53.699  1.00  0.00     0.030 A 
HETATM    8  C   UNL     1       4.063  31.233  53.516  1.00  0.00     0.002 A 
HETATM    9  C   UNL     1       4.120  32.138  54.587  1.00  0.00     0.001 A 
HETATM   10  C   UNL     1       4.498  31.707  55.859  1.00  0.00     0.013 A 
ENDROOT
BRANCH   1  11
HETATM   11  C   UNL     1       6.573  30.200  57.793  1.00  0.00     0.025 A 
HETATM   12  C   UNL     1       6.827  31.170  58.769  1.00  0.00     0.016 A 
HETATM   13  C   UNL     1       5.932  31.965  59.655  1.00  0.00     0.069 C 
HETATM   14  N   UNL     1       8.184  31.373  58.824  1.00  0.00    -0.359 N 
HETATM   15  H   UNL     1       8.647  32.024  59.442  1.00  0.00     0.166 HD
HETATM   16  C   UNL     1       8.830  30.643  57.862  1.00  0.00     0.043 A 
HETATM   17  C   UNL     1       7.860  29.892  57.202  1.00  0.00     0.003 A 
HETATM   18  C   UNL     1      10.189  30.609  57.522  1.00  0.00     0.030 A 
HETATM   19  C   UNL     1       8.284  29.066  56.137  1.00  0.00     0.014 A 
HETATM   20  C   UNL     1       9.636  29.019  55.779  1.00  0.00     0.001 A 
HETATM   21  C   UNL     1      10.575  29.783  56.465  1.00  0.00     0.002 A 
ENDBRANCH   1  11
BRANCH   1  22
HETATM   22  O   UNL     1       4.188  29.751  58.227  1.00  0.00    -0.371 OA
HETATM   23  H   UNL     1       3.371  29.856  57.715  1.00  0.00     0.212 HD
ENDBRANCH   1  22
BRANCH   4  24
HETATM   24  C   UNL     1       5.359  27.040  54.539  1.00  0.00     0.137 C 
BRANCH  24  25
HETATM   25  C   UNL     1       6.792  26.985  53.992  1.00  0.00     0.058 C 
BRANCH  25  26
HETATM   26  C   UNL     1       7.288  25.561  53.920  1.00  0.00    -0.057 A 
HETATM   27  C   UNL     1       7.576  24.982  52.675  1.00  0.00     0.007 A 
HETATM   28  C   UNL     1       7.997  23.655  52.591  1.00  0.00     0.001 A 
HETATM   29  C   UNL     1       8.141  22.896  53.750  1.00  0.00     0.000 A 
HETATM   30  C   UNL     1       7.866  23.466  54.993  1.00  0.00     0.001 A 
HETATM   31  C   UNL     1       7.440  24.793  55.080  1.00  0.00     0.007 A 
ENDBRANCH  25  26
ENDBRANCH  24  25
ENDBRANCH   4  24
TORSDOF 5
ENDMDL
