MODEL 1
REMARK VINA RESULT:      -8.7      0.000      0.000
REMARK  5 active torsions:
REMARK  status: ('A' for Active; 'I' for Inactive)
REMARK    1  A    between atoms: C_8  and  N_9 
REMARK       I    between atoms: N_9  and  C_10 
REMARK    2  A    between atoms: C_10  and  C_11 
REMARK    3  A    between atoms: C_11  and  N_12 
REMARK    4  A    between atoms: N_12  and  C_13 
REMARK    5  A    between atoms: C_13  and  C_14 
ROOT
HETATM    1  C   UNL     1       6.726  27.158  57.185  1.00  0.00     0.372 C 
ENDROOT
BRANCH   1   2
HETATM    2  C   UNL     1       7.289  28.582  57.046  1.00  0.00     0.250 C 
HETATM    3  N   UNL     1       8.154  28.904  58.071  1.00  0.00    -0.322 N 
HETATM    4  H   UNL     1       8.301  28.157  58.744  1.00  0.00     0.169 HD
HETATM    5  O   UNL     1       6.985  29.281  56.086  1.00  0.00    -0.271 OA
BRANCH   3   6
HETATM    6  C   UNL     1       8.806  30.102  58.296  1.00  0.00     0.085 A 
HETATM    7  C   UNL     1      10.060  30.351  57.767  1.00  0.00     0.052 A 
HETATM    8  C   UNL     1      10.967  29.546  56.917  1.00  0.00     0.072 C 
HETATM    9  N   UNL     1      10.401  31.603  58.190  1.00  0.00    -0.280 N 
HETATM   10  H   UNL     1      11.252  32.120  57.998  1.00  0.00     0.189 HD
HETATM   11  N   UNL     1       9.475  32.188  58.954  1.00  0.00    -0.177 NA
HETATM   12  C   UNL     1       8.486  31.283  59.029  1.00  0.00     0.079 A 
HETATM   13  C   UNL     1       7.286  31.630  59.829  1.00  0.00     0.075 C 
ENDBRANCH   3   6
ENDBRANCH   1   2
BRANCH   1  14
HETATM   14  N   UNL     1       7.372  26.245  56.210  1.00  0.00     0.100 N 
HETATM   15  H   UNL     1       7.896  25.549  56.747  1.00  0.00     0.317 HD
BRANCH  14  16
HETATM   16  C   UNL     1       6.410  25.511  55.362  1.00  0.00     0.250 C 
HETATM   17  C   UNL     1       5.672  26.441  54.388  1.00  0.00     0.048 C 
BRANCH  16  18
HETATM   18  C   UNL     1       7.005  24.252  54.746  1.00  0.00    -0.024 A 
HETATM   19  C   UNL     1       7.226  23.075  55.484  1.00  0.00     0.036 A 
HETATM   20  C   UNL     1       7.774  21.944  54.873  1.00  0.00     0.073 A 
HETATM   21 CL   UNL     1       8.036  20.522  55.809  1.00  0.00    -0.081 Cl
HETATM   22  C   UNL     1       8.100  21.972  53.521  1.00  0.00     0.138 A 
HETATM   23  F   UNL     1       8.630  20.898  52.919  1.00  0.00    -0.204 F 
HETATM   24  C   UNL     1       7.881  23.120  52.768  1.00  0.00     0.044 A 
HETATM   25  C   UNL     1       7.333  24.251  53.376  1.00  0.00     0.012 A 
ENDBRANCH  16  18
ENDBRANCH  14  16
ENDBRANCH   1  14
TORSDOF 5
ENDMDL
MODEL 2
REMARK VINA RESULT:      -8.7      5.037      7.436
REMARK  5 active torsions:
REMARK  status: ('A' for Active; 'I' for Inactive)
REMARK    1  A    between atoms: C_8  and  N_9 
REMARK       I    between atoms: N_9  and  C_10 
REMARK    2  A    between atoms: C_10  and  C_11 
REMARK    3  A    between atoms: C_11  and  N_12 
REMARK    4  A    between atoms: N_12  and  C_13 
REMARK    5  A    between atoms: C_13  and  C_14 
ROOT
HETATM    1  C   UNL     1       4.799  26.359  53.050  1.00  0.00     0.372 C 
ENDROOT
BRANCH   1   2
HETATM    2  C   UNL     1       5.244  26.314  51.578  1.00  0.00     0.250 C 
HETATM    3  N   UNL     1       4.342  26.933  50.740  1.00  0.00    -0.322 N 
HETATM    4  H   UNL     1       3.539  27.337  51.215  1.00  0.00     0.169 HD
HETATM    5  O   UNL     1       6.312  25.797  51.267  1.00  0.00    -0.271 OA
BRANCH   3   6
HETATM    6  C   UNL     1       4.389  27.043  49.363  1.00  0.00     0.085 A 
HETATM    7  C   UNL     1       4.987  28.127  48.746  1.00  0.00     0.052 A 
HETATM    8  C   UNL     1       5.669  29.331  49.275  1.00  0.00     0.072 C 
HETATM    9  N   UNL     1       4.844  27.919  47.404  1.00  0.00    -0.280 N 
HETATM   10  H   UNL     1       5.161  28.507  46.641  1.00  0.00     0.189 HD
HETATM   11  N   UNL     1       4.200  26.791  47.098  1.00  0.00    -0.177 NA
HETATM   12  C   UNL     1       3.914  26.237  48.287  1.00  0.00     0.079 A 
HETATM   13  C   UNL     1       3.176  24.949  48.295  1.00  0.00     0.075 C 
ENDBRANCH   3   6
ENDBRANCH   1   2
BRANCH   1  14
HETATM   14  N   UNL     1       4.952  25.026  53.682  1.00  0.00     0.100 N 
HETATM   15  H   UNL     1       5.136  24.354  52.933  1.00  0.00     0.317 HD
BRANCH  14  16
HETATM   16  C   UNL     1       6.083  24.947  54.629  1.00  0.00     0.250 C 
HETATM   17  C   UNL     1       5.664  25.306  56.062  1.00  0.00     0.048 C 
BRANCH  16  18
HETATM   18  C   UNL     1       6.891  23.665  54.481  1.00  0.00    -0.024 A 
HETATM   19  C   UNL     1       7.319  22.903  55.583  1.00  0.00     0.036 A 
HETATM   20  C   UNL     1       8.057  21.731  55.395  1.00  0.00     0.073 A 
HETATM   21 CL   UNL     1       8.569  20.827  56.769  1.00  0.00    -0.081 Cl
HETATM   22  C   UNL     1       8.372  21.306  54.109  1.00  0.00     0.138 A 
HETATM   23  F   UNL     1       9.084  20.187  53.910  1.00  0.00    -0.204 F 
HETATM   24  C   UNL     1       7.952  22.036  53.004  1.00  0.00     0.044 A 
HETATM   25  C   UNL     1       7.212  23.206  53.189  1.00  0.00     0.012 A 
ENDBRANCH  16  18
ENDBRANCH  14  16
ENDBRANCH   1  14
TORSDOF 5
ENDMDL
MODEL 3
REMARK VINA RESULT:      -8.4      5.305      8.104
REMARK  5 active torsions:
REMARK  status: ('A' for Active; 'I' for Inactive)
REMARK    1  A    between atoms: C_8  and  N_9 
REMARK       I    between atoms: N_9  and  C_10 
REMARK    2  A    between atoms: C_10  and  C_11 
REMARK    3  A    between atoms: C_11  and  N_12 
REMARK    4  A    between atoms: N_12  and  C_13 
REMARK    5  A    between atoms: C_13  and  C_14 
ROOT
HETATM    1  C   UNL     1       5.471  25.920  51.595  1.00  0.00     0.372 C 
ENDROOT
BRANCH   1   2
HETATM    2  C   UNL     1       5.059  26.933  50.514  1.00  0.00     0.250 C 
HETATM    3  N   UNL     1       3.871  26.591  49.903  1.00  0.00    -0.322 N 
HETATM    4  H   UNL     1       3.443  25.744  50.266  1.00  0.00     0.169 HD
HETATM    5  O   UNL     1       5.743  27.927  50.300  1.00  0.00    -0.271 OA
BRANCH   3   6
HETATM    6  C   UNL     1       3.226  27.237  48.865  1.00  0.00     0.085 A 
HETATM    7  C   UNL     1       2.868  26.566  47.710  1.00  0.00     0.052 A 
HETATM    8  C   UNL     1       3.028  25.159  47.278  1.00  0.00     0.072 C 
HETATM    9  N   UNL     1       2.270  27.496  46.908  1.00  0.00    -0.280 N 
HETATM   10  H   UNL     1       1.880  27.367  45.981  1.00  0.00     0.189 HD
HETATM   11  N   UNL     1       2.213  28.716  47.445  1.00  0.00    -0.177 NA
HETATM   12  C   UNL     1       2.792  28.578  48.649  1.00  0.00     0.079 A 
HETATM   13  C   UNL     1       2.896  29.781  49.512  1.00  0.00     0.075 C 
ENDBRANCH   3   6
ENDBRANCH   1   2
BRANCH   1  14
HETATM   14  N   UNL     1       6.884  25.508  51.412  1.00  0.00     0.100 N 
HETATM   15  H   UNL     1       7.309  26.165  50.752  1.00  0.00     0.317 HD
BRANCH  14  16
HETATM   16  C   UNL     1       7.680  25.558  52.656  1.00  0.00     0.250 C 
HETATM   17  C   UNL     1       7.367  26.808  53.492  1.00  0.00     0.048 C 
BRANCH  16  18
HETATM   18  C   UNL     1       7.674  24.239  53.416  1.00  0.00    -0.024 A 
HETATM   19  C   UNL     1       7.963  23.006  52.805  1.00  0.00     0.036 A 
HETATM   20  C   UNL     1       7.946  21.822  53.546  1.00  0.00     0.073 A 
HETATM   21 CL   UNL     1       8.300  20.330  52.762  1.00  0.00    -0.081 Cl
HETATM   22  C   UNL     1       7.645  21.855  54.904  1.00  0.00     0.138 A 
HETATM   23  F   UNL     1       7.619  20.728  55.630  1.00  0.00    -0.204 F 
HETATM   24  C   UNL     1       7.365  23.063  55.533  1.00  0.00     0.044 A 
HETATM   25  C   UNL     1       7.384  24.248  54.795  1.00  0.00     0.012 A 
ENDBRANCH  16  18
ENDBRANCH  14  16
ENDBRANCH   1  14
TORSDOF 5
ENDMDL
MODEL 4
REMARK VINA RESULT:      -8.4      0.326      1.758
REMARK  5 active torsions:
REMARK  status: ('A' for Active; 'I' for Inactive)
REMARK    1  A    between atoms: C_8  and  N_9 
REMARK       I    between atoms: N_9  and  C_10 
REMARK    2  A    between atoms: C_10  and  C_11 
REMARK    3  A    between atoms: C_11  and  N_12 
REMARK    4  A    between atoms: N_12  and  C_13 
REMARK    5  A    between atoms: C_13  and  C_14 
ROOT
HETATM    1  C   UNL     1       6.681  27.353  56.848  1.00  0.00     0.372 C 
ENDROOT
BRANCH   1   2
HETATM    2  C   UNL     1       7.640  28.548  56.712  1.00  0.00     0.250 C 
HETATM    3  N   UNL     1       8.031  29.045  57.937  1.00  0.00    -0.322 N 
HETATM    4  H   UNL     1       7.648  28.543  58.733  1.00  0.00     0.169 HD
HETATM    5  O   UNL     1       7.998  28.936  55.606  1.00  0.00    -0.271 OA
BRANCH   3   6
HETATM    6  C   UNL     1       8.843  30.133  58.199  1.00  0.00     0.085 A 
HETATM    7  C   UNL     1       8.394  31.201  58.955  1.00  0.00     0.052 A 
HETATM    8  C   UNL     1       7.105  31.482  59.627  1.00  0.00     0.072 C 
HETATM    9  N   UNL     1       9.433  32.086  59.003  1.00  0.00    -0.280 N 
HETATM   10  H   UNL     1       9.469  32.986  59.470  1.00  0.00     0.189 HD
HETATM   11  N   UNL     1      10.518  31.683  58.339  1.00  0.00    -0.177 NA
HETATM   12  C   UNL     1      10.177  30.484  57.840  1.00  0.00     0.079 A 
HETATM   13  C   UNL     1      11.184  29.757  57.027  1.00  0.00     0.075 C 
ENDBRANCH   3   6
ENDBRANCH   1   2
BRANCH   1  14
HETATM   14  N   UNL     1       7.276  26.135  56.243  1.00  0.00     0.100 N 
HETATM   15  H   UNL     1       7.434  25.466  57.000  1.00  0.00     0.317 HD
BRANCH  14  16
HETATM   16  C   UNL     1       6.399  25.479  55.252  1.00  0.00     0.250 C 
HETATM   17  C   UNL     1       5.853  26.471  54.216  1.00  0.00     0.048 C 
BRANCH  16  18
HETATM   18  C   UNL     1       6.999  24.199  54.687  1.00  0.00    -0.024 A 
HETATM   19  C   UNL     1       7.260  23.065  55.477  1.00  0.00     0.036 A 
HETATM   20  C   UNL     1       7.811  21.913  54.911  1.00  0.00     0.073 A 
HETATM   21 CL   UNL     1       8.122  20.546  55.911  1.00  0.00    -0.081 Cl
HETATM   22  C   UNL     1       8.102  21.877  53.551  1.00  0.00     0.138 A 
HETATM   23  F   UNL     1       8.634  20.781  52.990  1.00  0.00    -0.204 F 
HETATM   24  C   UNL     1       7.843  22.981  52.746  1.00  0.00     0.044 A 
HETATM   25  C   UNL     1       7.291  24.133  53.310  1.00  0.00     0.012 A 
ENDBRANCH  16  18
ENDBRANCH  14  16
ENDBRANCH   1  14
TORSDOF 5
ENDMDL
MODEL 5
REMARK VINA RESULT:      -8.2      7.075     10.420
REMARK  5 active torsions:
REMARK  status: ('A' for Active; 'I' for Inactive)
REMARK    1  A    between atoms: C_8  and  N_9 
REMARK       I    between atoms: N_9  and  C_10 
REMARK    2  A    between atoms: C_10  and  C_11 
REMARK    3  A    between atoms: C_11  and  N_12 
REMARK    4  A    between atoms: N_12  and  C_13 
REMARK    5  A    between atoms: C_13  and  C_14 
ROOT
HETATM    1  C   UNL     1       8.846  31.054  61.200  1.00  0.00     0.372 C 
ENDROOT
BRANCH   1   2
HETATM    2  C   UNL     1       8.967  31.182  59.673  1.00  0.00     0.250 C 
HETATM    3  N   UNL     1       8.539  30.047  59.018  1.00  0.00    -0.322 N 
HETATM    4  H   UNL     1       8.197  29.314  59.632  1.00  0.00     0.169 HD
HETATM    5  O   UNL     1       9.374  32.222  59.166  1.00  0.00    -0.271 OA
BRANCH   3   6
HETATM    6  C   UNL     1       8.546  29.788  57.660  1.00  0.00     0.085 A 
HETATM    7  C   UNL     1       7.369  29.652  56.946  1.00  0.00     0.052 A 
HETATM    8  C   UNL     1       5.944  29.731  57.338  1.00  0.00     0.072 C 
HETATM    9  N   UNL     1       7.742  29.396  55.657  1.00  0.00    -0.280 N 
HETATM   10  H   UNL     1       7.147  29.239  54.851  1.00  0.00     0.189 HD
HETATM   11  N   UNL     1       9.064  29.351  55.475  1.00  0.00    -0.177 NA
HETATM   12  C   UNL     1       9.576  29.592  56.693  1.00  0.00     0.079 A 
HETATM   13  C   UNL     1      11.053  29.604  56.836  1.00  0.00     0.075 C 
ENDBRANCH   3   6
ENDBRANCH   1   2
BRANCH   1  14
HETATM   14  N   UNL     1       7.421  31.063  61.613  1.00  0.00     0.100 N 
HETATM   15  H   UNL     1       7.384  30.735  62.582  1.00  0.00     0.317 HD
BRANCH  14  16
HETATM   16  C   UNL     1       6.805  32.405  61.580  1.00  0.00     0.250 C 
HETATM   17  C   UNL     1       5.655  32.488  60.565  1.00  0.00     0.048 C 
BRANCH  16  18
HETATM   18  C   UNL     1       6.498  32.951  62.968  1.00  0.00    -0.024 A 
HETATM   19  C   UNL     1       5.213  33.375  63.352  1.00  0.00     0.036 A 
HETATM   20  C   UNL     1       4.982  33.867  64.640  1.00  0.00     0.073 A 
HETATM   21 CL   UNL     1       3.397  34.384  65.073  1.00  0.00    -0.081 Cl
HETATM   22  C   UNL     1       6.026  33.937  65.557  1.00  0.00     0.138 A 
HETATM   23  F   UNL     1       5.823  34.410  66.795  1.00  0.00    -0.204 F 
HETATM   24  C   UNL     1       7.302  33.513  65.203  1.00  0.00     0.044 A 
HETATM   25  C   UNL     1       7.535  33.019  63.918  1.00  0.00     0.012 A 
ENDBRANCH  16  18
ENDBRANCH  14  16
ENDBRANCH   1  14
TORSDOF 5
ENDMDL
MODEL 6
REMARK VINA RESULT:      -8.1      2.306      3.313
REMARK  5 active torsions:
REMARK  status: ('A' for Active; 'I' for Inactive)
REMARK    1  A    between atoms: C_8  and  N_9 
REMARK       I    between atoms: N_9  and  C_10 
REMARK    2  A    between atoms: C_10  and  C_11 
REMARK    3  A    between atoms: C_11  and  N_12 
REMARK    4  A    between atoms: N_12  and  C_13 
REMARK    5  A    between atoms: C_13  and  C_14 
ROOT
HETATM    1  C   UNL     1       4.750  27.220  53.690  1.00  0.00     0.372 C 
ENDROOT
BRANCH   1   2
HETATM    2  C   UNL     1       5.845  27.922  54.510  1.00  0.00     0.250 C 
HETATM    3  N   UNL     1       5.484  28.088  55.830  1.00  0.00    -0.322 N 
HETATM    4  H   UNL     1       4.569  27.712  56.064  1.00  0.00     0.169 HD
HETATM    5  O   UNL     1       6.908  28.238  53.987  1.00  0.00    -0.271 OA
BRANCH   3   6
HETATM    6  C   UNL     1       6.192  28.714  56.839  1.00  0.00     0.085 A 
HETATM    7  C   UNL     1       5.686  29.823  57.494  1.00  0.00     0.052 A 
HETATM    8  C   UNL     1       4.420  30.578  57.355  1.00  0.00     0.072 C 
HETATM    9  N   UNL     1       6.636  30.182  58.407  1.00  0.00    -0.280 N 
HETATM   10  H   UNL     1       6.612  30.951  59.068  1.00  0.00     0.189 HD
HETATM   11  N   UNL     1       7.719  29.401  58.397  1.00  0.00    -0.177 NA
HETATM   12  C   UNL     1       7.464  28.492  57.442  1.00  0.00     0.079 A 
HETATM   13  C   UNL     1       8.498  27.461  57.171  1.00  0.00     0.075 C 
ENDBRANCH   3   6
ENDBRANCH   1   2
BRANCH   1  14
HETATM   14  N   UNL     1       4.647  25.791  54.074  1.00  0.00     0.100 N 
HETATM   15  H   UNL     1       3.652  25.555  54.102  1.00  0.00     0.317 HD
BRANCH  14  16
HETATM   16  C   UNL     1       5.288  24.873  53.110  1.00  0.00     0.250 C 
HETATM   17  C   UNL     1       5.486  25.525  51.734  1.00  0.00     0.048 C 
BRANCH  16  18
HETATM   18  C   UNL     1       6.509  24.168  53.686  1.00  0.00    -0.024 A 
HETATM   19  C   UNL     1       6.911  24.314  55.026  1.00  0.00     0.036 A 
HETATM   20  C   UNL     1       8.039  23.644  55.508  1.00  0.00     0.073 A 
HETATM   21 CL   UNL     1       8.504  23.851  57.153  1.00  0.00    -0.081 Cl
HETATM   22  C   UNL     1       8.774  22.820  54.662  1.00  0.00     0.138 A 
HETATM   23  F   UNL     1       9.861  22.174  55.106  1.00  0.00    -0.204 F 
HETATM   24  C   UNL     1       8.391  22.652  53.336  1.00  0.00     0.044 A 
HETATM   25  C   UNL     1       7.263  23.318  52.853  1.00  0.00     0.012 A 
ENDBRANCH  16  18
ENDBRANCH  14  16
ENDBRANCH   1  14
TORSDOF 5
ENDMDL
MODEL 7
REMARK VINA RESULT:      -8.0      2.399      3.211
REMARK  5 active torsions:
REMARK  status: ('A' for Active; 'I' for Inactive)
REMARK    1  A    between atoms: C_8  and  N_9 
REMARK       I    between atoms: N_9  and  C_10 
REMARK    2  A    between atoms: C_10  and  C_11 
REMARK    3  A    between atoms: C_11  and  N_12 
REMARK    4  A    between atoms: N_12  and  C_13 
REMARK    5  A    between atoms: C_13  and  C_14 
ROOT
HETATM    1  C   UNL     1       5.308  26.218  53.911  1.00  0.00     0.372 C 
ENDROOT
BRANCH   1   2
HETATM    2  C   UNL     1       5.723  27.558  54.541  1.00  0.00     0.250 C 
HETATM    3  N   UNL     1       5.268  27.689  55.836  1.00  0.00    -0.322 N 
HETATM    4  H   UNL     1       4.750  26.886  56.181  1.00  0.00     0.169 HD
HETATM    5  O   UNL     1       6.410  28.355  53.912  1.00  0.00    -0.271 OA
BRANCH   3   6
HETATM    6  C   UNL     1       5.410  28.769  56.687  1.00  0.00     0.085 A 
HETATM    7  C   UNL     1       6.519  28.905  57.501  1.00  0.00     0.052 A 
HETATM    8  C   UNL     1       7.729  28.073  57.693  1.00  0.00     0.072 C 
HETATM    9  N   UNL     1       6.328  30.060  58.204  1.00  0.00    -0.280 N 
HETATM   10  H   UNL     1       6.936  30.480  58.898  1.00  0.00     0.189 HD
HETATM   11  N   UNL     1       5.183  30.684  57.917  1.00  0.00    -0.177 NA
HETATM   12  C   UNL     1       4.606  29.909  56.985  1.00  0.00     0.079 A 
HETATM   13  C   UNL     1       3.287  30.331  56.450  1.00  0.00     0.075 C 
ENDBRANCH   3   6
ENDBRANCH   1   2
BRANCH   1  14
HETATM   14  N   UNL     1       6.174  25.119  54.405  1.00  0.00     0.100 N 
HETATM   15  H   UNL     1       5.572  24.460  54.905  1.00  0.00     0.317 HD
BRANCH  14  16
HETATM   16  C   UNL     1       6.848  24.368  53.326  1.00  0.00     0.250 C 
HETATM   17  C   UNL     1       7.820  25.249  52.528  1.00  0.00     0.048 C 
BRANCH  16  18
HETATM   18  C   UNL     1       7.405  23.030  53.795  1.00  0.00    -0.024 A 
HETATM   19  C   UNL     1       7.595  22.719  55.152  1.00  0.00     0.036 A 
HETATM   20  C   UNL     1       8.109  21.475  55.533  1.00  0.00     0.073 A 
HETATM   21 CL   UNL     1       8.333  21.131  57.205  1.00  0.00    -0.081 Cl
HETATM   22  C   UNL     1       8.433  20.531  54.564  1.00  0.00     0.138 A 
HETATM   23  F   UNL     1       8.930  19.335  54.910  1.00  0.00    -0.204 F 
HETATM   24  C   UNL     1       8.244  20.812  53.216  1.00  0.00     0.044 A 
HETATM   25  C   UNL     1       7.729  22.053  52.834  1.00  0.00     0.012 A 
ENDBRANCH  16  18
ENDBRANCH  14  16
ENDBRANCH   1  14
TORSDOF 5
ENDMDL
MODEL 8
REMARK VINA RESULT:      -7.9      4.867      7.397
REMARK  5 active torsions:
REMARK  status: ('A' for Active; 'I' for Inactive)
REMARK    1  A    between atoms: C_8  and  N_9 
REMARK       I    between atoms: N_9  and  C_10 
REMARK    2  A    between atoms: C_10  and  C_11 
REMARK    3  A    between atoms: C_11  and  N_12 
REMARK    4  A    between atoms: N_12  and  C_13 
REMARK    5  A    between atoms: C_13  and  C_14 
ROOT
HETATM    1  C   UNL     1       5.300  25.364  52.088  1.00  0.00     0.372 C 
ENDROOT
BRANCH   1   2
HETATM    2  C   UNL     1       6.663  24.880  52.611  1.00  0.00     0.250 C 
HETATM    3  N   UNL     1       6.541  23.823  53.487  1.00  0.00    -0.322 N 
HETATM    4  H   UNL     1       5.585  23.515  53.640  1.00  0.00     0.169 HD
HETATM    5  O   UNL     1       7.701  25.403  52.220  1.00  0.00    -0.271 OA
BRANCH   3   6
HETATM    6  C   UNL     1       7.540  23.169  54.183  1.00  0.00     0.085 A 
HETATM    7  C   UNL     1       8.087  23.704  55.336  1.00  0.00     0.052 A 
HETATM    8  C   UNL     1       7.818  24.953  56.085  1.00  0.00     0.072 C 
HETATM    9  N   UNL     1       9.037  22.814  55.746  1.00  0.00    -0.280 N 
HETATM   10  H   UNL     1       9.643  22.874  56.558  1.00  0.00     0.189 HD
HETATM   11  N   UNL     1       9.157  21.746  54.955  1.00  0.00    -0.177 NA
HETATM   12  C   UNL     1       8.244  21.944  53.990  1.00  0.00     0.079 A 
HETATM   13  C   UNL     1       8.127  20.917  52.924  1.00  0.00     0.075 C 
ENDBRANCH   3   6
ENDBRANCH   1   2
BRANCH   1  14
HETATM   14  N   UNL     1       4.517  25.994  53.180  1.00  0.00     0.100 N 
HETATM   15  H   UNL     1       4.806  25.551  54.056  1.00  0.00     0.317 HD
BRANCH  14  16
HETATM   16  C   UNL     1       4.762  27.445  53.320  1.00  0.00     0.250 C 
HETATM   17  C   UNL     1       3.502  28.274  53.032  1.00  0.00     0.048 C 
BRANCH  16  18
HETATM   18  C   UNL     1       5.504  27.798  54.602  1.00  0.00    -0.024 A 
HETATM   19  C   UNL     1       6.813  28.312  54.607  1.00  0.00     0.036 A 
HETATM   20  C   UNL     1       7.451  28.623  55.811  1.00  0.00     0.073 A 
HETATM   21 CL   UNL     1       9.057  29.246  55.778  1.00  0.00    -0.081 Cl
HETATM   22  C   UNL     1       6.790  28.429  57.019  1.00  0.00     0.138 A 
HETATM   23  F   UNL     1       7.389  28.718  58.184  1.00  0.00    -0.204 F 
HETATM   24  C   UNL     1       5.493  27.932  57.040  1.00  0.00     0.044 A 
HETATM   25  C   UNL     1       4.852  27.623  55.838  1.00  0.00     0.012 A 
ENDBRANCH  16  18
ENDBRANCH  14  16
ENDBRANCH   1  14
TORSDOF 5
ENDMDL
MODEL 9
REMARK VINA RESULT:      -7.7      1.889      2.797
REMARK  5 active torsions:
REMARK  status: ('A' for Active; 'I' for Inactive)
REMARK    1  A    between atoms: C_8  and  N_9 
REMARK       I    between atoms: N_9  and  C_10 
REMARK    2  A    between atoms: C_10  and  C_11 
REMARK    3  A    between atoms: C_11  and  N_12 
REMARK    4  A    between atoms: N_12  and  C_13 
REMARK    5  A    between atoms: C_13  and  C_14 
ROOT
HETATM    1  C   UNL     1       5.420  26.205  55.738  1.00  0.00     0.372 C 
ENDROOT
BRANCH   1   2
HETATM    2  C   UNL     1       5.972  27.637  55.831  1.00  0.00     0.250 C 
HETATM    3  N   UNL     1       5.800  28.182  57.086  1.00  0.00    -0.322 N 
HETATM    4  H   UNL     1       5.359  27.558  57.756  1.00  0.00     0.169 HD
HETATM    5  O   UNL     1       6.519  28.157  54.866  1.00  0.00    -0.271 OA
BRANCH   3   6
HETATM    6  C   UNL     1       6.128  29.453  57.519  1.00  0.00     0.085 A 
HETATM    7  C   UNL     1       5.175  30.452  57.610  1.00  0.00     0.052 A 
HETATM    8  C   UNL     1       3.723  30.480  57.324  1.00  0.00     0.072 C 
HETATM    9  N   UNL     1       5.838  31.560  58.054  1.00  0.00    -0.280 N 
HETATM   10  H   UNL     1       5.462  32.484  58.239  1.00  0.00     0.189 HD
HETATM   11  N   UNL     1       7.143  31.366  58.255  1.00  0.00    -0.177 NA
HETATM   12  C   UNL     1       7.341  30.077  57.935  1.00  0.00     0.079 A 
HETATM   13  C   UNL     1       8.719  29.537  58.045  1.00  0.00     0.075 C 
ENDBRANCH   3   6
ENDBRANCH   1   2
BRANCH   1  14
HETATM   14  N   UNL     1       6.207  25.286  56.597  1.00  0.00     0.100 N 
HETATM   15  H   UNL     1       5.740  24.376  56.577  1.00  0.00     0.317 HD
BRANCH  14  16
HETATM   16  C   UNL     1       7.593  25.080  56.127  1.00  0.00     0.250 C 
HETATM   17  C   UNL     1       8.613  25.184  57.270  1.00  0.00     0.048 C 
BRANCH  16  18
HETATM   18  C   UNL     1       7.736  23.860  55.226  1.00  0.00    -0.024 A 
HETATM   19  C   UNL     1       7.941  22.563  55.728  1.00  0.00     0.036 A 
HETATM   20  C   UNL     1       8.066  21.475  54.860  1.00  0.00     0.073 A 
HETATM   21 CL   UNL     1       8.321  19.901  55.510  1.00  0.00    -0.081 Cl
HETATM   22  C   UNL     1       7.983  21.669  53.485  1.00  0.00     0.138 A 
HETATM   23  F   UNL     1       8.104  20.638  52.636  1.00  0.00    -0.204 F 
HETATM   24  C   UNL     1       7.771  22.941  52.965  1.00  0.00     0.044 A 
HETATM   25  C   UNL     1       7.644  24.029  53.831  1.00  0.00     0.012 A 
ENDBRANCH  16  18
ENDBRANCH  14  16
ENDBRANCH   1  14
TORSDOF 5
ENDMDL
MODEL 10
REMARK VINA RESULT:      -7.7      5.617      8.406
REMARK  5 active torsions:
REMARK  status: ('A' for Active; 'I' for Inactive)
REMARK    1  A    between atoms: C_8  and  N_9 
REMARK       I    between atoms: N_9  and  C_10 
REMARK    2  A    between atoms: C_10  and  C_11 
REMARK    3  A    between atoms: C_11  and  N_12 
REMARK    4  A    between atoms: N_12  and  C_13 
REMARK    5  A    between atoms: C_13  and  C_14 
ROOT
HETATM    1  C   UNL     1       7.044  31.423  62.679  1.00  0.00     0.372 C 
ENDROOT
BRANCH   1   2
HETATM    2  C   UNL     1       5.551  31.701  62.915  1.00  0.00     0.250 C 
HETATM    3  N   UNL     1       5.212  33.007  62.633  1.00  0.00    -0.322 N 
HETATM    4  H   UNL     1       5.984  33.577  62.299  1.00  0.00     0.169 HD
HETATM    5  O   UNL     1       4.801  30.803  63.281  1.00  0.00    -0.271 OA
BRANCH   3   6
HETATM    6  C   UNL     1       3.981  33.622  62.773  1.00  0.00     0.085 A 
HETATM    7  C   UNL     1       3.567  34.138  63.988  1.00  0.00     0.052 A 
HETATM    8  C   UNL     1       4.206  34.197  65.322  1.00  0.00     0.072 C 
HETATM    9  N   UNL     1       2.321  34.652  63.769  1.00  0.00    -0.280 N 
HETATM   10  H   UNL     1       1.707  35.112  64.432  1.00  0.00     0.189 HD
HETATM   11  N   UNL     1       1.890  34.509  62.514  1.00  0.00    -0.177 NA
HETATM   12  C   UNL     1       2.896  33.881  61.885  1.00  0.00     0.079 A 
HETATM   13  C   UNL     1       2.725  33.562  60.446  1.00  0.00     0.075 C 
ENDBRANCH   3   6
ENDBRANCH   1   2
BRANCH   1  14
HETATM   14  N   UNL     1       7.285  31.033  61.267  1.00  0.00     0.100 N 
HETATM   15  H   UNL     1       6.443  31.273  60.738  1.00  0.00     0.317 HD
BRANCH  14  16
HETATM   16  C   UNL     1       8.416  31.749  60.642  1.00  0.00     0.250 C 
HETATM   17  C   UNL     1       9.478  32.163  61.670  1.00  0.00     0.048 C 
BRANCH  16  18
HETATM   18  C   UNL     1       8.942  31.050  59.396  1.00  0.00    -0.024 A 
HETATM   19  C   UNL     1       8.345  29.895  58.860  1.00  0.00     0.036 A 
HETATM   20  C   UNL     1       8.865  29.291  57.712  1.00  0.00     0.073 A 
HETATM   21 CL   UNL     1       8.109  27.875  57.088  1.00  0.00    -0.081 Cl
HETATM   22  C   UNL     1       9.982  29.833  57.086  1.00  0.00     0.138 A 
HETATM   23  F   UNL     1      10.498  29.264  55.987  1.00  0.00    -0.204 F 
HETATM   24  C   UNL     1      10.585  30.980  57.591  1.00  0.00     0.044 A 
HETATM   25  C   UNL     1      10.065  31.587  58.736  1.00  0.00     0.012 A 
ENDBRANCH  16  18
ENDBRANCH  14  16
ENDBRANCH   1  14
TORSDOF 5
ENDMDL
