MODEL 1
REMARK VINA RESULT:     -10.4      0.000      0.000
REMARK  8 active torsions:
REMARK  status: ('A' for Active; 'I' for Inactive)
REMARK    1  A    between atoms: O_2  and  C_3 
REMARK    2  A    between atoms: C_6  and  C_7 
REMARK    3  A    between atoms: C_7  and  N_8 
REMARK       I    between atoms: N_8  and  C_9 
REMARK    4  A    between atoms: C_9  and  C_10 
REMARK    5  A    between atoms: C_10  and  C_11 
REMARK    6  A    between atoms: C_11  and  N_12 
REMARK    7  A    between atoms: N_12  and  S_13 
REMARK    8  A    between atoms: S_13  and  C_14 
ROOT
HETATM    1  N   UNL     1       7.269  28.494  57.975  1.00  0.00    -0.315 N 
HETATM    2  H   UNL     1       6.837  27.932  58.707  1.00  0.00     0.172 HD
ENDROOT
BRANCH   1   3
HETATM    3  C   UNL     1       7.529  29.919  58.227  1.00  0.00     0.141 C 
BRANCH   3   4
HETATM    4  C   UNL     1       9.017  30.118  58.458  1.00  0.00     0.123 C 
BRANCH   4   5
HETATM    5  C   UNL     1       9.254  31.229  59.451  1.00  0.00     0.219 C 
HETATM    6  N   UNL     1       8.918  30.928  60.748  1.00  0.00    -0.357 N 
HETATM    7  H   UNL     1       8.552  30.016  60.989  1.00  0.00     0.162 HD
HETATM    8  O   UNL     1       9.696  32.317  59.097  1.00  0.00    -0.274 OA
BRANCH   6   9
HETATM    9  C   UNL     1       9.182  31.849  61.835  1.00  0.00     0.161 C 
BRANCH   9  10
HETATM   10  C   UNL     1       7.941  32.245  62.594  1.00  0.00    -0.040 A 
HETATM   11  C   UNL     1       6.686  31.789  62.162  1.00  0.00     0.011 A 
HETATM   12  C   UNL     1       5.528  32.057  62.901  1.00  0.00     0.037 A 
HETATM   13  C   UNL     1       5.609  32.778  64.090  1.00  0.00     0.068 A 
HETATM   14  C   UNL     1       6.850  33.251  64.519  1.00  0.00     0.037 A 
HETATM   15  C   UNL     1       8.009  32.974  63.788  1.00  0.00     0.011 A 
BRANCH  13  16
HETATM   16  O   UNL     1       4.557  33.087  64.908  1.00  0.00    -0.356 OA
HETATM   17  C   UNL     1       4.875  33.819  66.087  1.00  0.00     0.210 C 
ENDBRANCH  13  16
ENDBRANCH   9  10
ENDBRANCH   6   9
ENDBRANCH   4   5
ENDBRANCH   3   4
ENDBRANCH   1   3
BRANCH   1  18
HETATM   18  S   UNL     1       6.728  28.031  56.452  1.00  0.00     0.258 S 
HETATM   19  O   UNL     1       5.293  27.902  56.562  1.00  0.00    -0.201 OA
HETATM   20  O   UNL     1       7.342  28.913  55.484  1.00  0.00    -0.201 OA
BRANCH  18  21
HETATM   21  C   UNL     1       7.394  26.403  56.259  1.00  0.00     0.080 A 
HETATM   22  C   UNL     1       7.421  25.804  54.998  1.00  0.00     0.034 A 
HETATM   23  C   UNL     1       7.880  24.476  54.820  1.00  0.00    -0.030 A 
HETATM   24  C   UNL     1       8.350  23.773  55.938  1.00  0.00     0.041 A 
HETATM   25  C   UNL     1       7.840  23.965  53.405  1.00  0.00     0.041 C 
HETATM   26  N   UNL     1       8.847  22.459  55.968  1.00  0.00    -0.327 N 
HETATM   27  C   UNL     1       8.325  24.405  57.201  1.00  0.00     0.031 A 
HETATM   28  C   UNL     1       9.043  21.484  55.049  1.00  0.00     0.222 C 
HETATM   29  H   UNL     1       9.123  22.111  56.880  1.00  0.00     0.169 HD
HETATM   30  O   UNL     1       9.516  20.414  55.451  1.00  0.00    -0.273 OA
HETATM   31  C   UNL     1       8.787  21.675  53.583  1.00  0.00     0.103 C 
HETATM   32  C   UNL     1       7.551  22.482  53.268  1.00  0.00     0.014 C 
HETATM   33  C   UNL     1       7.845  25.706  57.370  1.00  0.00     0.027 A 
ENDBRANCH  18  21
ENDBRANCH   1  18
TORSDOF 8
ENDMDL
MODEL 2
REMARK VINA RESULT:     -10.2      1.698      2.312
REMARK  8 active torsions:
REMARK  status: ('A' for Active; 'I' for Inactive)
REMARK    1  A    between atoms: O_2  and  C_3 
REMARK    2  A    between atoms: C_6  and  C_7 
REMARK    3  A    between atoms: C_7  and  N_8 
REMARK       I    between atoms: N_8  and  C_9 
REMARK    4  A    between atoms: C_9  and  C_10 
REMARK    5  A    between atoms: C_10  and  C_11 
REMARK    6  A    between atoms: C_11  and  N_12 
REMARK    7  A    between atoms: N_12  and  S_13 
REMARK    8  A    between atoms: S_13  and  C_14 
ROOT
HETATM    1  N   UNL     1       7.601  27.730  56.312  1.00  0.00    -0.315 N 
HETATM    2  H   UNL     1       8.175  26.930  56.575  1.00  0.00     0.172 HD
ENDROOT
BRANCH   1   3
HETATM    3  C   UNL     1       6.568  28.205  57.245  1.00  0.00     0.141 C 
BRANCH   3   4
HETATM    4  C   UNL     1       6.783  29.687  57.509  1.00  0.00     0.123 C 
BRANCH   4   5
HETATM    5  C   UNL     1       7.841  29.887  58.565  1.00  0.00     0.219 C 
HETATM    6  N   UNL     1       7.500  30.762  59.567  1.00  0.00    -0.357 N 
HETATM    7  H   UNL     1       6.594  31.213  59.574  1.00  0.00     0.162 HD
HETATM    8  O   UNL     1       8.924  29.315  58.499  1.00  0.00    -0.274 OA
BRANCH   6   9
HETATM    9  C   UNL     1       8.363  30.982  60.710  1.00  0.00     0.161 C 
BRANCH   9  10
HETATM   10  C   UNL     1       7.819  32.002  61.678  1.00  0.00    -0.040 A 
HETATM   11  C   UNL     1       6.757  32.833  61.290  1.00  0.00     0.011 A 
HETATM   12  C   UNL     1       6.166  33.719  62.197  1.00  0.00     0.037 A 
HETATM   13  C   UNL     1       6.621  33.779  63.513  1.00  0.00     0.068 A 
HETATM   14  C   UNL     1       7.687  32.970  63.904  1.00  0.00     0.037 A 
HETATM   15  C   UNL     1       8.272  32.076  63.002  1.00  0.00     0.011 A 
BRANCH  13  16
HETATM   16  O   UNL     1       6.115  34.586  64.495  1.00  0.00    -0.356 OA
HETATM   17  C   UNL     1       5.907  33.974  65.763  1.00  0.00     0.210 C 
ENDBRANCH  13  16
ENDBRANCH   9  10
ENDBRANCH   6   9
ENDBRANCH   4   5
ENDBRANCH   3   4
ENDBRANCH   1   3
BRANCH   1  18
HETATM   18  S   UNL     1       7.258  27.720  54.667  1.00  0.00     0.258 S 
HETATM   19  O   UNL     1       5.852  28.036  54.552  1.00  0.00    -0.201 OA
HETATM   20  O   UNL     1       8.274  28.509  54.005  1.00  0.00    -0.201 OA
BRANCH  18  21
HETATM   21  C   UNL     1       7.458  26.020  54.217  1.00  0.00     0.080 A 
HETATM   22  C   UNL     1       7.446  25.030  55.201  1.00  0.00     0.034 A 
HETATM   23  C   UNL     1       7.676  23.669  54.884  1.00  0.00    -0.030 A 
HETATM   24  C   UNL     1       7.881  23.318  53.542  1.00  0.00     0.041 A 
HETATM   25  C   UNL     1       7.642  22.721  56.052  1.00  0.00     0.041 C 
HETATM   26  N   UNL     1       8.119  22.033  53.027  1.00  0.00    -0.327 N 
HETATM   27  C   UNL     1       7.875  24.336  52.562  1.00  0.00     0.031 A 
HETATM   28  C   UNL     1       8.228  20.790  53.555  1.00  0.00     0.222 C 
HETATM   29  H   UNL     1       8.264  21.978  52.025  1.00  0.00     0.169 HD
HETATM   30  O   UNL     1       8.450  19.860  52.771  1.00  0.00    -0.273 OA
HETATM   31  C   UNL     1       8.018  20.497  55.011  1.00  0.00     0.103 C 
HETATM   32  C   UNL     1       8.586  21.538  55.944  1.00  0.00     0.014 C 
HETATM   33  C   UNL     1       7.674  25.679  52.890  1.00  0.00     0.027 A 
ENDBRANCH  18  21
ENDBRANCH   1  18
TORSDOF 8
ENDMDL
MODEL 3
REMARK VINA RESULT:      -9.7      2.051     11.815
REMARK  8 active torsions:
REMARK  status: ('A' for Active; 'I' for Inactive)
REMARK    1  A    between atoms: O_2  and  C_3 
REMARK    2  A    between atoms: C_6  and  C_7 
REMARK    3  A    between atoms: C_7  and  N_8 
REMARK       I    between atoms: N_8  and  C_9 
REMARK    4  A    between atoms: C_9  and  C_10 
REMARK    5  A    between atoms: C_10  and  C_11 
REMARK    6  A    between atoms: C_11  and  N_12 
REMARK    7  A    between atoms: N_12  and  S_13 
REMARK    8  A    between atoms: S_13  and  C_14 
ROOT
HETATM    1  N   UNL     1       7.888  30.219  59.434  1.00  0.00    -0.315 N 
HETATM    2  H   UNL     1       8.102  29.865  60.366  1.00  0.00     0.172 HD
ENDROOT
BRANCH   1   3
HETATM    3  C   UNL     1       8.420  29.512  58.260  1.00  0.00     0.141 C 
BRANCH   3   4
HETATM    4  C   UNL     1       7.354  28.573  57.721  1.00  0.00     0.123 C 
BRANCH   4   5
HETATM    5  C   UNL     1       7.637  28.223  56.282  1.00  0.00     0.219 C 
HETATM    6  N   UNL     1       7.071  27.049  55.849  1.00  0.00    -0.357 N 
HETATM    7  H   UNL     1       6.502  26.489  56.471  1.00  0.00     0.162 HD
HETATM    8  O   UNL     1       8.340  28.941  55.577  1.00  0.00    -0.274 OA
BRANCH   6   9
HETATM    9  C   UNL     1       7.161  26.627  54.466  1.00  0.00     0.161 C 
BRANCH   9  10
HETATM   10  C   UNL     1       7.533  25.174  54.311  1.00  0.00    -0.040 A 
HETATM   11  C   UNL     1       7.542  24.589  53.035  1.00  0.00     0.011 A 
HETATM   12  C   UNL     1       7.977  23.273  52.848  1.00  0.00     0.037 A 
HETATM   13  C   UNL     1       8.423  22.523  53.934  1.00  0.00     0.068 A 
HETATM   14  C   UNL     1       8.403  23.089  55.209  1.00  0.00     0.037 A 
HETATM   15  C   UNL     1       7.978  24.407  55.396  1.00  0.00     0.011 A 
BRANCH  13  16
HETATM   16  O   UNL     1       8.890  21.238  53.878  1.00  0.00    -0.356 OA
HETATM   17  C   UNL     1       8.361  20.425  52.837  1.00  0.00     0.210 C 
ENDBRANCH  13  16
ENDBRANCH   9  10
ENDBRANCH   6   9
ENDBRANCH   4   5
ENDBRANCH   3   4
ENDBRANCH   1   3
BRANCH   1  18
HETATM   18  S   UNL     1       7.852  31.900  59.414  1.00  0.00     0.258 S 
HETATM   19  O   UNL     1       9.193  32.322  59.082  1.00  0.00    -0.201 OA
HETATM   20  O   UNL     1       6.708  32.302  58.626  1.00  0.00    -0.201 OA
BRANCH  18  21
HETATM   21  C   UNL     1       7.566  32.323  61.109  1.00  0.00     0.080 A 
HETATM   22  C   UNL     1       6.490  33.143  61.453  1.00  0.00     0.034 A 
HETATM   23  C   UNL     1       6.277  33.560  62.789  1.00  0.00    -0.030 A 
HETATM   24  C   UNL     1       7.150  33.100  63.785  1.00  0.00     0.041 A 
HETATM   25  C   UNL     1       5.082  34.450  63.003  1.00  0.00     0.041 C 
HETATM   26  N   UNL     1       7.105  33.394  65.157  1.00  0.00    -0.327 N 
HETATM   27  C   UNL     1       8.224  32.260  63.413  1.00  0.00     0.031 A 
HETATM   28  C   UNL     1       6.302  34.138  65.956  1.00  0.00     0.222 C 
HETATM   29  H   UNL     1       7.840  32.982  65.723  1.00  0.00     0.169 HD
HETATM   30  O   UNL     1       6.574  34.166  67.161  1.00  0.00    -0.273 OA
HETATM   31  C   UNL     1       5.080  34.849  65.455  1.00  0.00     0.103 C 
HETATM   32  C   UNL     1       5.243  35.487  64.097  1.00  0.00     0.014 C 
HETATM   33  C   UNL     1       8.442  31.877  62.088  1.00  0.00     0.027 A 
ENDBRANCH  18  21
ENDBRANCH   1  18
TORSDOF 8
ENDMDL
MODEL 4
REMARK VINA RESULT:      -9.1      2.297     10.579
REMARK  8 active torsions:
REMARK  status: ('A' for Active; 'I' for Inactive)
REMARK    1  A    between atoms: O_2  and  C_3 
REMARK    2  A    between atoms: C_6  and  C_7 
REMARK    3  A    between atoms: C_7  and  N_8 
REMARK       I    between atoms: N_8  and  C_9 
REMARK    4  A    between atoms: C_9  and  C_10 
REMARK    5  A    between atoms: C_10  and  C_11 
REMARK    6  A    between atoms: C_11  and  N_12 
REMARK    7  A    between atoms: N_12  and  S_13 
REMARK    8  A    between atoms: S_13  and  C_14 
ROOT
HETATM    1  N   UNL     1       5.861  29.546  55.329  1.00  0.00    -0.315 N 
HETATM    2  H   UNL     1       5.727  30.555  55.386  1.00  0.00     0.172 HD
ENDROOT
BRANCH   1   3
HETATM    3  C   UNL     1       4.684  28.676  55.187  1.00  0.00     0.141 C 
BRANCH   3   4
HETATM    4  C   UNL     1       4.487  28.344  53.717  1.00  0.00     0.123 C 
BRANCH   4   5
HETATM    5  C   UNL     1       5.767  27.812  53.120  1.00  0.00     0.219 C 
HETATM    6  N   UNL     1       5.950  26.458  53.253  1.00  0.00    -0.357 N 
HETATM    7  H   UNL     1       5.253  25.885  53.712  1.00  0.00     0.162 HD
HETATM    8  O   UNL     1       6.576  28.560  52.579  1.00  0.00    -0.274 OA
BRANCH   6   9
HETATM    9  C   UNL     1       7.074  25.779  52.642  1.00  0.00     0.161 C 
BRANCH   9  10
HETATM   10  C   UNL     1       7.539  24.577  53.424  1.00  0.00    -0.040 A 
HETATM   11  C   UNL     1       7.694  24.669  54.815  1.00  0.00     0.011 A 
HETATM   12  C   UNL     1       8.028  23.545  55.580  1.00  0.00     0.037 A 
HETATM   13  C   UNL     1       8.200  22.307  54.964  1.00  0.00     0.068 A 
HETATM   14  C   UNL     1       8.066  22.209  53.579  1.00  0.00     0.037 A 
HETATM   15  C   UNL     1       7.722  23.328  52.816  1.00  0.00     0.011 A 
BRANCH  13  16
HETATM   16  O   UNL     1       8.507  21.136  55.601  1.00  0.00    -0.356 OA
HETATM   17  C   UNL     1       8.800  20.025  54.762  1.00  0.00     0.210 C 
ENDBRANCH  13  16
ENDBRANCH   9  10
ENDBRANCH   6   9
ENDBRANCH   4   5
ENDBRANCH   3   4
ENDBRANCH   1   3
BRANCH   1  18
HETATM   18  S   UNL     1       7.121  29.041  56.320  1.00  0.00     0.258 S 
HETATM   19  O   UNL     1       6.742  27.736  56.813  1.00  0.00    -0.201 OA
HETATM   20  O   UNL     1       8.356  29.256  55.599  1.00  0.00    -0.201 OA
BRANCH  18  21
HETATM   21  C   UNL     1       7.043  30.166  57.685  1.00  0.00     0.080 A 
HETATM   22  C   UNL     1       7.948  30.046  58.742  1.00  0.00     0.034 A 
HETATM   23  C   UNL     1       7.867  30.882  59.882  1.00  0.00    -0.030 A 
HETATM   24  C   UNL     1       6.876  31.873  59.920  1.00  0.00     0.041 A 
HETATM   25  C   UNL     1       8.905  30.628  60.942  1.00  0.00     0.041 C 
HETATM   26  N   UNL     1       6.638  32.797  60.950  1.00  0.00    -0.327 N 
HETATM   27  C   UNL     1       5.981  31.983  58.832  1.00  0.00     0.031 A 
HETATM   28  C   UNL     1       7.198  33.061  62.154  1.00  0.00     0.222 C 
HETATM   29  H   UNL     1       5.857  33.429  60.806  1.00  0.00     0.169 HD
HETATM   30  O   UNL     1       6.707  33.982  62.817  1.00  0.00    -0.273 OA
HETATM   31  C   UNL     1       8.413  32.346  62.667  1.00  0.00     0.103 C 
HETATM   32  C   UNL     1       8.439  30.867  62.365  1.00  0.00     0.014 C 
HETATM   33  C   UNL     1       6.052  31.135  57.725  1.00  0.00     0.027 A 
ENDBRANCH  18  21
ENDBRANCH   1  18
TORSDOF 8
ENDMDL
MODEL 5
REMARK VINA RESULT:      -8.9      6.939     10.519
REMARK  8 active torsions:
REMARK  status: ('A' for Active; 'I' for Inactive)
REMARK    1  A    between atoms: O_2  and  C_3 
REMARK    2  A    between atoms: C_6  and  C_7 
REMARK    3  A    between atoms: C_7  and  N_8 
REMARK       I    between atoms: N_8  and  C_9 
REMARK    4  A    between atoms: C_9  and  C_10 
REMARK    5  A    between atoms: C_10  and  C_11 
REMARK    6  A    between atoms: C_11  and  N_12 
REMARK    7  A    between atoms: N_12  and  S_13 
REMARK    8  A    between atoms: S_13  and  C_14 
ROOT
HETATM    1  N   UNL     1       6.179  28.437  53.018  1.00  0.00    -0.315 N 
HETATM    2  H   UNL     1       6.443  29.370  52.703  1.00  0.00     0.172 HD
ENDROOT
BRANCH   1   3
HETATM    3  C   UNL     1       4.753  28.081  53.080  1.00  0.00     0.141 C 
BRANCH   3   4
HETATM    4  C   UNL     1       3.932  29.349  53.247  1.00  0.00     0.123 C 
BRANCH   4   5
HETATM    5  C   UNL     1       3.662  29.985  51.906  1.00  0.00     0.219 C 
HETATM    6  N   UNL     1       2.340  30.010  51.534  1.00  0.00    -0.357 N 
HETATM    7  H   UNL     1       1.624  29.634  52.142  1.00  0.00     0.162 HD
HETATM    8  O   UNL     1       4.575  30.420  51.211  1.00  0.00    -0.274 OA
BRANCH   6   9
HETATM    9  C   UNL     1       1.905  30.679  50.325  1.00  0.00     0.161 C 
BRANCH   9  10
HETATM   10  C   UNL     1       1.631  29.729  49.186  1.00  0.00    -0.040 A 
HETATM   11  C   UNL     1       1.689  28.345  49.405  1.00  0.00     0.011 A 
HETATM   12  C   UNL     1       1.344  27.439  48.396  1.00  0.00     0.037 A 
HETATM   13  C   UNL     1       0.924  27.906  47.152  1.00  0.00     0.068 A 
HETATM   14  C   UNL     1       0.879  29.281  46.918  1.00  0.00     0.037 A 
HETATM   15  C   UNL     1       1.214  30.187  47.929  1.00  0.00     0.011 A 
BRANCH  13  16
HETATM   16  O   UNL     1       0.543  27.126  46.094  1.00  0.00    -0.356 OA
HETATM   17  C   UNL     1      -0.546  27.613  45.318  1.00  0.00     0.210 C 
ENDBRANCH  13  16
ENDBRANCH   9  10
ENDBRANCH   6   9
ENDBRANCH   4   5
ENDBRANCH   3   4
ENDBRANCH   1   3
BRANCH   1  18
HETATM   18  S   UNL     1       7.198  27.893  54.238  1.00  0.00     0.258 S 
HETATM   19  O   UNL     1       8.476  28.525  54.000  1.00  0.00    -0.201 OA
HETATM   20  O   UNL     1       6.495  28.043  55.493  1.00  0.00    -0.201 OA
BRANCH  18  21
HETATM   21  C   UNL     1       7.383  26.170  53.879  1.00  0.00     0.080 A 
HETATM   22  C   UNL     1       7.397  25.237  54.917  1.00  0.00     0.034 A 
HETATM   23  C   UNL     1       7.617  23.860  54.671  1.00  0.00    -0.030 A 
HETATM   24  C   UNL     1       7.783  23.433  53.346  1.00  0.00     0.041 A 
HETATM   25  C   UNL     1       7.613  22.979  55.891  1.00  0.00     0.041 C 
HETATM   26  N   UNL     1       8.005  22.120  52.898  1.00  0.00    -0.327 N 
HETATM   27  C   UNL     1       7.752  24.394  52.311  1.00  0.00     0.031 A 
HETATM   28  C   UNL     1       8.127  20.909  53.491  1.00  0.00     0.222 C 
HETATM   29  H   UNL     1       8.122  22.008  51.896  1.00  0.00     0.169 HD
HETATM   30  O   UNL     1       8.325  19.936  52.755  1.00  0.00    -0.273 OA
HETATM   31  C   UNL     1       7.956  20.698  54.967  1.00  0.00     0.103 C 
HETATM   32  C   UNL     1       8.551  21.789  55.824  1.00  0.00     0.014 C 
HETATM   33  C   UNL     1       7.562  25.754  52.568  1.00  0.00     0.027 A 
ENDBRANCH  18  21
ENDBRANCH   1  18
TORSDOF 8
ENDMDL
MODEL 6
REMARK VINA RESULT:      -8.8      2.657     11.310
REMARK  8 active torsions:
REMARK  status: ('A' for Active; 'I' for Inactive)
REMARK    1  A    between atoms: O_2  and  C_3 
REMARK    2  A    between atoms: C_6  and  C_7 
REMARK    3  A    between atoms: C_7  and  N_8 
REMARK       I    between atoms: N_8  and  C_9 
REMARK    4  A    between atoms: C_9  and  C_10 
REMARK    5  A    between atoms: C_10  and  C_11 
REMARK    6  A    between atoms: C_11  and  N_12 
REMARK    7  A    between atoms: N_12  and  S_13 
REMARK    8  A    between atoms: S_13  and  C_14 
ROOT
HETATM    1  N   UNL     1       5.634  30.855  57.587  1.00  0.00    -0.315 N 
HETATM    2  H   UNL     1       6.436  31.070  56.996  1.00  0.00     0.172 HD
ENDROOT
BRANCH   1   3
HETATM    3  C   UNL     1       5.014  29.525  57.493  1.00  0.00     0.141 C 
BRANCH   3   4
HETATM    4  C   UNL     1       4.898  29.134  56.029  1.00  0.00     0.123 C 
BRANCH   4   5
HETATM    5  C   UNL     1       6.238  28.698  55.490  1.00  0.00     0.219 C 
HETATM    6  N   UNL     1       6.181  27.796  54.456  1.00  0.00    -0.357 N 
HETATM    7  H   UNL     1       5.290  27.477  54.098  1.00  0.00     0.162 HD
HETATM    8  O   UNL     1       7.285  29.118  55.972  1.00  0.00    -0.274 OA
BRANCH   6   9
HETATM    9  C   UNL     1       7.375  27.361  53.761  1.00  0.00     0.161 C 
BRANCH   9  10
HETATM   10  C   UNL     1       7.505  25.861  53.684  1.00  0.00    -0.040 A 
HETATM   11  C   UNL     1       7.081  25.069  54.762  1.00  0.00     0.011 A 
HETATM   12  C   UNL     1       7.097  23.673  54.682  1.00  0.00     0.037 A 
HETATM   13  C   UNL     1       7.526  23.045  53.515  1.00  0.00     0.068 A 
HETATM   14  C   UNL     1       7.966  23.822  52.443  1.00  0.00     0.037 A 
HETATM   15  C   UNL     1       7.940  25.218  52.518  1.00  0.00     0.011 A 
BRANCH  13  16
HETATM   16  O   UNL     1       7.570  21.693  53.306  1.00  0.00    -0.356 OA
HETATM   17  C   UNL     1       8.441  20.956  54.155  1.00  0.00     0.210 C 
ENDBRANCH  13  16
ENDBRANCH   9  10
ENDBRANCH   6   9
ENDBRANCH   4   5
ENDBRANCH   3   4
ENDBRANCH   1   3
BRANCH   1  18
HETATM   18  S   UNL     1       4.638  32.196  57.775  1.00  0.00     0.258 S 
HETATM   19  O   UNL     1       5.318  33.291  57.122  1.00  0.00    -0.201 OA
HETATM   20  O   UNL     1       3.298  31.800  57.404  1.00  0.00    -0.201 OA
BRANCH  18  21
HETATM   21  C   UNL     1       4.691  32.503  59.517  1.00  0.00     0.080 A 
HETATM   22  C   UNL     1       5.914  32.723  60.153  1.00  0.00     0.034 A 
HETATM   23  C   UNL     1       5.999  32.899  61.555  1.00  0.00    -0.030 A 
HETATM   24  C   UNL     1       4.814  32.889  62.305  1.00  0.00     0.041 A 
HETATM   25  C   UNL     1       7.386  33.116  62.095  1.00  0.00     0.041 C 
HETATM   26  N   UNL     1       4.688  33.049  63.695  1.00  0.00    -0.327 N 
HETATM   27  C   UNL     1       3.587  32.678  61.638  1.00  0.00     0.031 A 
HETATM   28  C   UNL     1       5.547  33.253  64.722  1.00  0.00     0.222 C 
HETATM   29  H   UNL     1       3.744  32.991  64.063  1.00  0.00     0.169 HD
HETATM   30  O   UNL     1       5.062  33.349  65.855  1.00  0.00    -0.273 OA
HETATM   31  C   UNL     1       7.023  33.439  64.531  1.00  0.00     0.103 C 
HETATM   32  C   UNL     1       7.632  32.545  63.478  1.00  0.00     0.014 C 
HETATM   33  C   UNL     1       3.518  32.478  60.258  1.00  0.00     0.027 A 
ENDBRANCH  18  21
ENDBRANCH   1  18
TORSDOF 8
ENDMDL
MODEL 7
REMARK VINA RESULT:      -8.7      2.382      3.444
REMARK  8 active torsions:
REMARK  status: ('A' for Active; 'I' for Inactive)
REMARK    1  A    between atoms: O_2  and  C_3 
REMARK    2  A    between atoms: C_6  and  C_7 
REMARK    3  A    between atoms: C_7  and  N_8 
REMARK       I    between atoms: N_8  and  C_9 
REMARK    4  A    between atoms: C_9  and  C_10 
REMARK    5  A    between atoms: C_10  and  C_11 
REMARK    6  A    between atoms: C_11  and  N_12 
REMARK    7  A    between atoms: N_12  and  S_13 
REMARK    8  A    between atoms: S_13  and  C_14 
ROOT
HETATM    1  N   UNL     1       6.154  27.437  55.749  1.00  0.00    -0.315 N 
HETATM    2  H   UNL     1       6.164  26.491  56.129  1.00  0.00     0.172 HD
ENDROOT
BRANCH   1   3
HETATM    3  C   UNL     1       5.087  28.361  56.159  1.00  0.00     0.141 C 
BRANCH   3   4
HETATM    4  C   UNL     1       5.629  29.780  56.151  1.00  0.00     0.123 C 
BRANCH   4   5
HETATM    5  C   UNL     1       5.040  30.578  57.287  1.00  0.00     0.219 C 
HETATM    6  N   UNL     1       5.628  31.800  57.503  1.00  0.00    -0.357 N 
HETATM    7  H   UNL     1       6.390  32.118  56.918  1.00  0.00     0.162 HD
HETATM    8  O   UNL     1       4.117  30.136  57.965  1.00  0.00    -0.274 OA
BRANCH   6   9
HETATM    9  C   UNL     1       5.110  32.729  58.487  1.00  0.00     0.161 C 
BRANCH   9  10
HETATM   10  C   UNL     1       5.928  32.772  59.753  1.00  0.00    -0.040 A 
HETATM   11  C   UNL     1       5.432  33.444  60.880  1.00  0.00     0.011 A 
HETATM   12  C   UNL     1       6.121  33.417  62.098  1.00  0.00     0.037 A 
HETATM   13  C   UNL     1       7.315  32.706  62.209  1.00  0.00     0.068 A 
HETATM   14  C   UNL     1       7.826  32.049  61.090  1.00  0.00     0.037 A 
HETATM   15  C   UNL     1       7.133  32.066  59.876  1.00  0.00     0.011 A 
BRANCH  13  16
HETATM   16  O   UNL     1       8.069  32.588  63.344  1.00  0.00    -0.356 OA
HETATM   17  C   UNL     1       7.581  33.270  64.494  1.00  0.00     0.210 C 
ENDBRANCH  13  16
ENDBRANCH   9  10
ENDBRANCH   6   9
ENDBRANCH   4   5
ENDBRANCH   3   4
ENDBRANCH   1   3
BRANCH   1  18
HETATM   18  S   UNL     1       6.664  27.455  54.148  1.00  0.00     0.258 S 
HETATM   19  O   UNL     1       5.494  27.773  53.361  1.00  0.00    -0.201 OA
HETATM   20  O   UNL     1       7.868  28.255  54.082  1.00  0.00    -0.201 OA
BRANCH  18  21
HETATM   21  C   UNL     1       7.074  25.763  53.829  1.00  0.00     0.080 A 
HETATM   22  C   UNL     1       7.067  24.833  54.870  1.00  0.00     0.034 A 
HETATM   23  C   UNL     1       7.460  23.489  54.664  1.00  0.00    -0.030 A 
HETATM   24  C   UNL     1       7.824  23.086  53.372  1.00  0.00     0.041 A 
HETATM   25  C   UNL     1       7.409  22.609  55.884  1.00  0.00     0.041 C 
HETATM   26  N   UNL     1       8.237  21.807  52.965  1.00  0.00    -0.327 N 
HETATM   27  C   UNL     1       7.811  24.042  52.331  1.00  0.00     0.031 A 
HETATM   28  C   UNL     1       8.418  20.614  53.580  1.00  0.00     0.222 C 
HETATM   29  H   UNL     1       8.482  21.712  51.985  1.00  0.00     0.169 HD
HETATM   30  O   UNL     1       8.804  19.670  52.881  1.00  0.00    -0.273 OA
HETATM   31  C   UNL     1       8.101  20.381  55.028  1.00  0.00     0.103 C 
HETATM   32  C   UNL     1       8.471  21.527  55.938  1.00  0.00     0.014 C 
HETATM   33  C   UNL     1       7.448  25.373  52.551  1.00  0.00     0.027 A 
ENDBRANCH  18  21
ENDBRANCH   1  18
TORSDOF 8
ENDMDL
MODEL 8
REMARK VINA RESULT:      -8.6      7.152     11.341
REMARK  8 active torsions:
REMARK  status: ('A' for Active; 'I' for Inactive)
REMARK    1  A    between atoms: O_2  and  C_3 
REMARK    2  A    between atoms: C_6  and  C_7 
REMARK    3  A    between atoms: C_7  and  N_8 
REMARK       I    between atoms: N_8  and  C_9 
REMARK    4  A    between atoms: C_9  and  C_10 
REMARK    5  A    between atoms: C_10  and  C_11 
REMARK    6  A    between atoms: C_11  and  N_12 
REMARK    7  A    between atoms: N_12  and  S_13 
REMARK    8  A    between atoms: S_13  and  C_14 
ROOT
HETATM    1  N   UNL     1       3.953  27.651  51.730  1.00  0.00    -0.315 N 
HETATM    2  H   UNL     1       3.354  28.473  51.658  1.00  0.00     0.172 HD
ENDROOT
BRANCH   1   3
HETATM    3  C   UNL     1       4.543  27.308  53.033  1.00  0.00     0.141 C 
BRANCH   3   4
HETATM    4  C   UNL     1       5.535  28.390  53.428  1.00  0.00     0.123 C 
BRANCH   4   5
HETATM    5  C   UNL     1       6.718  27.786  54.142  1.00  0.00     0.219 C 
HETATM    6  N   UNL     1       6.411  26.772  55.016  1.00  0.00    -0.357 N 
HETATM    7  H   UNL     1       5.454  26.467  55.139  1.00  0.00     0.162 HD
HETATM    8  O   UNL     1       7.857  28.203  53.955  1.00  0.00    -0.274 OA
BRANCH   6   9
HETATM    9  C   UNL     1       7.443  26.020  55.700  1.00  0.00     0.161 C 
BRANCH   9  10
HETATM   10  C   UNL     1       7.590  24.609  55.187  1.00  0.00    -0.040 A 
HETATM   11  C   UNL     1       7.532  23.533  56.085  1.00  0.00     0.011 A 
HETATM   12  C   UNL     1       7.565  22.210  55.629  1.00  0.00     0.037 A 
HETATM   13  C   UNL     1       7.645  21.944  54.264  1.00  0.00     0.068 A 
HETATM   14  C   UNL     1       7.721  23.007  53.364  1.00  0.00     0.037 A 
HETATM   15  C   UNL     1       7.677  24.329  53.817  1.00  0.00     0.011 A 
BRANCH  13  16
HETATM   16  O   UNL     1       7.666  20.700  53.694  1.00  0.00    -0.356 OA
HETATM   17  C   UNL     1       8.790  20.406  52.872  1.00  0.00     0.210 C 
ENDBRANCH  13  16
ENDBRANCH   9  10
ENDBRANCH   6   9
ENDBRANCH   4   5
ENDBRANCH   3   4
ENDBRANCH   1   3
BRANCH   1  18
HETATM   18  S   UNL     1       4.886  27.452  50.346  1.00  0.00     0.258 S 
HETATM   19  O   UNL     1       5.584  28.703  50.154  1.00  0.00    -0.201 OA
HETATM   20  O   UNL     1       5.591  26.196  50.472  1.00  0.00    -0.201 OA
BRANCH  18  21
HETATM   21  C   UNL     1       3.681  27.315  49.057  1.00  0.00     0.080 A 
HETATM   22  C   UNL     1       2.957  28.438  48.653  1.00  0.00     0.034 A 
HETATM   23  C   UNL     1       1.936  28.348  47.676  1.00  0.00    -0.030 A 
HETATM   24  C   UNL     1       1.683  27.103  47.082  1.00  0.00     0.041 A 
HETATM   25  C   UNL     1       1.239  29.641  47.352  1.00  0.00     0.041 C 
HETATM   26  N   UNL     1       0.723  26.811  46.099  1.00  0.00    -0.327 N 
HETATM   27  C   UNL     1       2.437  25.983  47.498  1.00  0.00     0.031 A 
HETATM   28  C   UNL     1      -0.211  27.522  45.425  1.00  0.00     0.222 C 
HETATM   29  H   UNL     1       0.673  25.841  45.804  1.00  0.00     0.169 HD
HETATM   30  O   UNL     1      -0.904  26.911  44.603  1.00  0.00    -0.273 OA
HETATM   31  C   UNL     1      -0.380  29.005  45.578  1.00  0.00     0.103 C 
HETATM   32  C   UNL     1      -0.229  29.505  46.994  1.00  0.00     0.014 C 
HETATM   33  C   UNL     1       3.424  26.078  48.482  1.00  0.00     0.027 A 
ENDBRANCH  18  21
ENDBRANCH   1  18
TORSDOF 8
ENDMDL
MODEL 9
REMARK VINA RESULT:      -8.5      3.607     11.484
REMARK  8 active torsions:
REMARK  status: ('A' for Active; 'I' for Inactive)
REMARK    1  A    between atoms: O_2  and  C_3 
REMARK    2  A    between atoms: C_6  and  C_7 
REMARK    3  A    between atoms: C_7  and  N_8 
REMARK       I    between atoms: N_8  and  C_9 
REMARK    4  A    between atoms: C_9  and  C_10 
REMARK    5  A    between atoms: C_10  and  C_11 
REMARK    6  A    between atoms: C_11  and  N_12 
REMARK    7  A    between atoms: N_12  and  S_13 
REMARK    8  A    between atoms: S_13  and  C_14 
ROOT
HETATM    1  N   UNL     1       7.853  30.344  59.564  1.00  0.00    -0.315 N 
HETATM    2  H   UNL     1       8.071  29.968  60.486  1.00  0.00     0.172 HD
ENDROOT
BRANCH   1   3
HETATM    3  C   UNL     1       8.373  29.658  58.371  1.00  0.00     0.141 C 
BRANCH   3   4
HETATM    4  C   UNL     1       7.536  28.417  58.109  1.00  0.00     0.123 C 
BRANCH   4   5
HETATM    5  C   UNL     1       6.328  28.761  57.274  1.00  0.00     0.219 C 
HETATM    6  N   UNL     1       5.797  27.713  56.562  1.00  0.00    -0.357 N 
HETATM    7  H   UNL     1       6.203  26.789  56.625  1.00  0.00     0.162 HD
HETATM    8  O   UNL     1       5.884  29.905  57.235  1.00  0.00    -0.274 OA
BRANCH   6   9
HETATM    9  C   UNL     1       4.576  27.856  55.796  1.00  0.00     0.161 C 
BRANCH   9  10
HETATM   10  C   UNL     1       4.802  27.828  54.306  1.00  0.00    -0.040 A 
HETATM   11  C   UNL     1       5.910  27.144  53.783  1.00  0.00     0.011 A 
HETATM   12  C   UNL     1       6.093  27.016  52.402  1.00  0.00     0.037 A 
HETATM   13  C   UNL     1       5.162  27.562  51.520  1.00  0.00     0.068 A 
HETATM   14  C   UNL     1       4.066  28.259  52.030  1.00  0.00     0.037 A 
HETATM   15  C   UNL     1       3.877  28.378  53.410  1.00  0.00     0.011 A 
BRANCH  13  16
HETATM   16  O   UNL     1       5.218  27.488  50.155  1.00  0.00    -0.356 OA
HETATM   17  C   UNL     1       4.551  26.381  49.560  1.00  0.00     0.210 C 
ENDBRANCH  13  16
ENDBRANCH   9  10
ENDBRANCH   6   9
ENDBRANCH   4   5
ENDBRANCH   3   4
ENDBRANCH   1   3
BRANCH   1  18
HETATM   18  S   UNL     1       7.829  32.024  59.580  1.00  0.00     0.258 S 
HETATM   19  O   UNL     1       9.197  32.444  59.384  1.00  0.00    -0.201 OA
HETATM   20  O   UNL     1       6.765  32.454  58.700  1.00  0.00    -0.201 OA
BRANCH  18  21
HETATM   21  C   UNL     1       7.391  32.410  61.251  1.00  0.00     0.080 A 
HETATM   22  C   UNL     1       6.103  32.858  61.551  1.00  0.00     0.034 A 
HETATM   23  C   UNL     1       5.741  33.245  62.864  1.00  0.00    -0.030 A 
HETATM   24  C   UNL     1       6.697  33.134  63.884  1.00  0.00     0.041 A 
HETATM   25  C   UNL     1       4.321  33.714  63.030  1.00  0.00     0.041 C 
HETATM   26  N   UNL     1       6.534  33.460  65.241  1.00  0.00    -0.327 N 
HETATM   27  C   UNL     1       7.990  32.666  63.558  1.00  0.00     0.031 A 
HETATM   28  C   UNL     1       5.521  33.943  65.999  1.00  0.00     0.222 C 
HETATM   29  H   UNL     1       7.351  33.331  65.828  1.00  0.00     0.169 HD
HETATM   30  O   UNL     1       5.746  34.112  67.203  1.00  0.00    -0.273 OA
HETATM   31  C   UNL     1       4.145  34.202  65.459  1.00  0.00     0.103 C 
HETATM   32  C   UNL     1       4.122  34.797  64.073  1.00  0.00     0.014 C 
HETATM   33  C   UNL     1       8.344  32.313  62.254  1.00  0.00     0.027 A 
ENDBRANCH  18  21
ENDBRANCH   1  18
TORSDOF 8
ENDMDL
MODEL 10
REMARK VINA RESULT:      -8.3      5.499      9.435
REMARK  8 active torsions:
REMARK  status: ('A' for Active; 'I' for Inactive)
REMARK    1  A    between atoms: O_2  and  C_3 
REMARK    2  A    between atoms: C_6  and  C_7 
REMARK    3  A    between atoms: C_7  and  N_8 
REMARK       I    between atoms: N_8  and  C_9 
REMARK    4  A    between atoms: C_9  and  C_10 
REMARK    5  A    between atoms: C_10  and  C_11 
REMARK    6  A    between atoms: C_11  and  N_12 
REMARK    7  A    between atoms: N_12  and  S_13 
REMARK    8  A    between atoms: S_13  and  C_14 
ROOT
HETATM    1  N   UNL     1       6.197  29.483  55.164  1.00  0.00    -0.315 N 
HETATM    2  H   UNL     1       6.499  30.450  55.057  1.00  0.00     0.172 HD
ENDROOT
BRANCH   1   3
HETATM    3  C   UNL     1       4.873  29.088  54.662  1.00  0.00     0.141 C 
BRANCH   3   4
HETATM    4  C   UNL     1       4.114  30.332  54.232  1.00  0.00     0.123 C 
BRANCH   4   5
HETATM    5  C   UNL     1       4.351  30.616  52.769  1.00  0.00     0.219 C 
HETATM    6  N   UNL     1       5.238  29.769  52.151  1.00  0.00    -0.357 N 
HETATM    7  H   UNL     1       5.675  29.014  52.664  1.00  0.00     0.162 HD
HETATM    8  O   UNL     1       3.794  31.551  52.203  1.00  0.00    -0.274 OA
BRANCH   6   9
HETATM    9  C   UNL     1       5.492  29.843  50.727  1.00  0.00     0.161 C 
BRANCH   9  10
HETATM   10  C   UNL     1       5.049  28.611  49.980  1.00  0.00    -0.040 A 
HETATM   11  C   UNL     1       5.222  27.345  50.559  1.00  0.00     0.011 A 
HETATM   12  C   UNL     1       4.732  26.192  49.936  1.00  0.00     0.037 A 
HETATM   13  C   UNL     1       4.049  26.289  48.725  1.00  0.00     0.068 A 
HETATM   14  C   UNL     1       3.887  27.541  48.132  1.00  0.00     0.037 A 
HETATM   15  C   UNL     1       4.366  28.695  48.759  1.00  0.00     0.011 A 
BRANCH  13  16
HETATM   16  O   UNL     1       3.508  25.244  48.029  1.00  0.00    -0.356 OA
HETATM   17  C   UNL     1       2.654  25.589  46.944  1.00  0.00     0.210 C 
ENDBRANCH  13  16
ENDBRANCH   9  10
ENDBRANCH   6   9
ENDBRANCH   4   5
ENDBRANCH   3   4
ENDBRANCH   1   3
BRANCH   1  18
HETATM   18  S   UNL     1       6.734  28.834  56.619  1.00  0.00     0.258 S 
HETATM   19  O   UNL     1       8.035  29.415  56.858  1.00  0.00    -0.201 OA
HETATM   20  O   UNL     1       5.656  28.957  57.575  1.00  0.00    -0.201 OA
BRANCH  18  21
HETATM   21  C   UNL     1       6.979  27.123  56.238  1.00  0.00     0.080 A 
HETATM   22  C   UNL     1       7.363  26.740  54.952  1.00  0.00     0.034 A 
HETATM   23  C   UNL     1       7.497  25.377  54.595  1.00  0.00    -0.030 A 
HETATM   24  C   UNL     1       7.273  24.400  55.576  1.00  0.00     0.041 A 
HETATM   25  C   UNL     1       7.909  25.121  53.170  1.00  0.00     0.041 C 
HETATM   26  N   UNL     1       7.358  23.007  55.423  1.00  0.00    -0.327 N 
HETATM   27  C   UNL     1       6.897  24.813  56.874  1.00  0.00     0.031 A 
HETATM   28  C   UNL     1       7.655  22.168  54.402  1.00  0.00     0.222 C 
HETATM   29  H   UNL     1       7.139  22.457  56.247  1.00  0.00     0.169 HD
HETATM   30  O   UNL     1       7.631  20.955  54.641  1.00  0.00    -0.273 OA
HETATM   31  C   UNL     1       8.078  22.646  53.044  1.00  0.00     0.103 C 
HETATM   32  C   UNL     1       7.331  23.862  52.553  1.00  0.00     0.014 C 
HETATM   33  C   UNL     1       6.742  26.160  57.208  1.00  0.00     0.027 A 
ENDBRANCH  18  21
ENDBRANCH   1  18
TORSDOF 8
ENDMDL
