MODEL 1
REMARK VINA RESULT:      -8.2      0.000      0.000
REMARK  9 active torsions:
REMARK  status: ('A' for Active; 'I' for Inactive)
REMARK       I    between atoms: C_2  and  N_3 
REMARK    1  A    between atoms: N_3  and  C_4 
REMARK    2  A    between atoms: C_4  and  C_5 
REMARK    3  A    between atoms: C_5  and  N_6 
REMARK       I    between atoms: N_6  and  C_7 
REMARK    4  A    between atoms: C_7  and  C_8 
REMARK    5  A    between atoms: C_8  and  C_9 
REMARK    6  A    between atoms: C_13  and  C_14 
REMARK    7  A    between atoms: C_14  and  O_15 
REMARK    8  A    between atoms: C_17  and  O_18 
REMARK    9  A    between atoms: C_25  and  C_26 
ROOT
HETATM    1  C   UNL     1       6.438  25.609  54.745  1.00  0.00     0.056 C 
HETATM    2  C   UNL     1       6.045  25.921  56.260  1.00  0.00    -0.030 C 
HETATM    3  C   UNL     1       4.732  25.151  56.628  1.00  0.00     0.016 C 
HETATM    4  C   UNL     1       5.759  27.461  56.529  1.00  0.00     0.012 C 
HETATM    5  C   UNL     1       7.003  28.415  56.787  1.00  0.00     0.008 C 
HETATM    6  C   UNL     1       6.509  29.540  57.752  1.00  0.00     0.020 C 
HETATM    7  C   UNL     1       8.150  27.662  57.536  1.00  0.00     0.128 C 
HETATM    8  C   UNL     1       7.661  26.395  58.230  1.00  0.00     0.033 C 
HETATM    9  C   UNL     1       7.161  25.379  57.206  1.00  0.00     0.013 C 
HETATM   10  C   UNL     1       4.689  28.039  55.563  1.00  0.00     0.054 C 
HETATM   11  C   UNL     1       4.891  27.555  54.176  1.00  0.00     0.010 A 
HETATM   12  C   UNL     1       5.627  26.458  53.787  1.00  0.00     0.054 A 
HETATM   13  N   UNL     1       5.641  26.232  52.417  1.00  0.00    -0.244 NA
HETATM   14  C   UNL     1       5.013  27.212  51.785  1.00  0.00     0.108 A 
HETATM   15  S   UNL     1       4.214  28.334  52.828  1.00  0.00    -0.072 SA
ENDROOT
BRANCH   1  16
HETATM   16  C   UNL     1       6.349  24.105  54.426  1.00  0.00     0.114 C 
BRANCH  16  17
HETATM   17  C   UNL     1       7.677  23.442  54.110  1.00  0.00     0.218 C 
HETATM   18  N   UNL     1       7.575  22.382  53.250  1.00  0.00    -0.359 N 
HETATM   19  H   UNL     1       6.798  22.419  52.587  1.00  0.00     0.162 HD
HETATM   20  O   UNL     1       8.723  23.781  54.657  1.00  0.00    -0.274 OA
BRANCH  18  21
HETATM   21  C   UNL     1       8.665  21.470  52.989  1.00  0.00     0.142 C 
BRANCH  21  22
HETATM   22  C   UNL     1       8.711  20.270  53.936  1.00  0.00     0.142 C 
BRANCH  22  23
HETATM   23  N   UNL     1       9.030  20.667  55.300  1.00  0.00    -0.360 N 
HETATM   24  C   UNL     1       8.083  20.650  56.297  1.00  0.00     0.213 C 
HETATM   25  C   UNL     1       8.555  21.193  57.619  1.00  0.00     0.117 C 
HETATM   26  O   UNL     1       6.936  20.242  56.141  1.00  0.00    -0.274 OA
HETATM   27  H   UNL     1       9.923  21.111  55.465  1.00  0.00     0.162 HD
ENDBRANCH  22  23
ENDBRANCH  21  22
ENDBRANCH  18  21
ENDBRANCH  16  17
ENDBRANCH   1  16
BRANCH   5  28
HETATM   28  C   UNL     1       7.537  29.161  55.537  1.00  0.00     0.176 C 
BRANCH  28  29
HETATM   29  O   UNL     1       8.765  29.824  55.766  1.00  0.00    -0.400 OA
HETATM   30  H   UNL     1       8.790  29.990  56.734  1.00  0.00     0.209 HD
ENDBRANCH  28  29
ENDBRANCH   5  28
BRANCH  14  31
HETATM   31  C   UNL     1       4.949  27.366  50.320  1.00  0.00    -0.000 A 
HETATM   32  C   UNL     1       4.514  26.293  49.526  1.00  0.00     0.014 A 
HETATM   33  C   UNL     1       4.485  26.390  48.132  1.00  0.00     0.001 A 
HETATM   34  C   UNL     1       4.887  27.566  47.506  1.00  0.00     0.000 A 
HETATM   35  C   UNL     1       5.321  28.644  48.271  1.00  0.00     0.001 A 
HETATM   36  C   UNL     1       5.356  28.542  49.665  1.00  0.00     0.014 A 
ENDBRANCH  14  31
BRANCH   7  37
HETATM   37  O   UNL     1       9.212  27.308  56.643  1.00  0.00    -0.395 OA
HETATM   38  H   UNL     1       8.823  27.193  55.756  1.00  0.00     0.210 HD
ENDBRANCH   7  37
TORSDOF 9
ENDMDL
MODEL 2
REMARK VINA RESULT:      -8.1      3.429      7.330
REMARK  9 active torsions:
REMARK  status: ('A' for Active; 'I' for Inactive)
REMARK       I    between atoms: C_2  and  N_3 
REMARK    1  A    between atoms: N_3  and  C_4 
REMARK    2  A    between atoms: C_4  and  C_5 
REMARK    3  A    between atoms: C_5  and  N_6 
REMARK       I    between atoms: N_6  and  C_7 
REMARK    4  A    between atoms: C_7  and  C_8 
REMARK    5  A    between atoms: C_8  and  C_9 
REMARK    6  A    between atoms: C_13  and  C_14 
REMARK    7  A    between atoms: C_14  and  O_15 
REMARK    8  A    between atoms: C_17  and  O_18 
REMARK    9  A    between atoms: C_25  and  C_26 
ROOT
HETATM    1  C   UNL     1       5.958  28.611  54.234  1.00  0.00     0.056 C 
HETATM    2  C   UNL     1       4.564  29.355  54.009  1.00  0.00    -0.030 C 
HETATM    3  C   UNL     1       3.690  29.227  55.301  1.00  0.00     0.016 C 
HETATM    4  C   UNL     1       3.710  28.738  52.819  1.00  0.00     0.012 C 
HETATM    5  C   UNL     1       4.054  29.201  51.339  1.00  0.00     0.008 C 
HETATM    6  C   UNL     1       2.716  29.148  50.534  1.00  0.00     0.020 C 
HETATM    7  C   UNL     1       4.531  30.689  51.305  1.00  0.00     0.128 C 
HETATM    8  C   UNL     1       4.130  31.459  52.559  1.00  0.00     0.033 C 
HETATM    9  C   UNL     1       4.820  30.879  53.791  1.00  0.00     0.013 C 
HETATM   10  C   UNL     1       3.487  27.211  52.985  1.00  0.00     0.054 C 
HETATM   11  C   UNL     1       4.721  26.527  53.441  1.00  0.00     0.010 A 
HETATM   12  C   UNL     1       5.815  27.116  54.036  1.00  0.00     0.054 A 
HETATM   13  N   UNL     1       6.834  26.232  54.368  1.00  0.00    -0.244 NA
HETATM   14  C   UNL     1       6.546  25.016  53.928  1.00  0.00     0.108 A 
HETATM   15  S   UNL     1       4.955  24.854  53.275  1.00  0.00    -0.072 SA
ENDROOT
BRANCH   1  16
HETATM   16  C   UNL     1       6.588  28.971  55.593  1.00  0.00     0.114 C 
BRANCH  16  17
HETATM   17  C   UNL     1       8.104  29.034  55.594  1.00  0.00     0.218 C 
HETATM   18  N   UNL     1       8.645  29.320  56.818  1.00  0.00    -0.359 N 
HETATM   19  H   UNL     1       8.098  29.020  57.628  1.00  0.00     0.162 HD
HETATM   20  O   UNL     1       8.764  28.929  54.563  1.00  0.00    -0.274 OA
BRANCH  18  21
HETATM   21  C   UNL     1      10.040  29.650  57.007  1.00  0.00     0.142 C 
BRANCH  21  22
HETATM   22  C   UNL     1      10.271  30.914  57.838  1.00  0.00     0.142 C 
BRANCH  22  23
HETATM   23  N   UNL     1       9.950  30.705  59.242  1.00  0.00    -0.360 N 
HETATM   24  C   UNL     1       9.424  31.711  60.019  1.00  0.00     0.213 C 
HETATM   25  C   UNL     1       9.253  31.355  61.472  1.00  0.00     0.117 C 
HETATM   26  O   UNL     1       9.124  32.820  59.588  1.00  0.00    -0.274 OA
HETATM   27  H   UNL     1      10.272  29.851  59.677  1.00  0.00     0.162 HD
ENDBRANCH  22  23
ENDBRANCH  21  22
ENDBRANCH  18  21
ENDBRANCH  16  17
ENDBRANCH   1  16
BRANCH   5  28
HETATM   28  C   UNL     1       5.029  28.276  50.564  1.00  0.00     0.176 C 
BRANCH  28  29
HETATM   29  O   UNL     1       5.282  28.714  49.244  1.00  0.00    -0.400 OA
HETATM   30  H   UNL     1       4.511  29.276  49.008  1.00  0.00     0.209 HD
ENDBRANCH  28  29
ENDBRANCH   5  28
BRANCH  14  31
HETATM   31  C   UNL     1       7.460  23.860  53.989  1.00  0.00    -0.000 A 
HETATM   32  C   UNL     1       7.425  22.893  52.972  1.00  0.00     0.014 A 
HETATM   33  C   UNL     1       8.246  21.763  53.023  1.00  0.00     0.001 A 
HETATM   34  C   UNL     1       9.121  21.581  54.090  1.00  0.00     0.000 A 
HETATM   35  C   UNL     1       9.173  22.527  55.109  1.00  0.00     0.001 A 
HETATM   36  C   UNL     1       8.346  23.654  55.060  1.00  0.00     0.014 A 
ENDBRANCH  14  31
BRANCH   7  37
HETATM   37  O   UNL     1       5.953  30.779  51.154  1.00  0.00    -0.395 OA
HETATM   38  H   UNL     1       6.356  30.314  51.911  1.00  0.00     0.210 HD
ENDBRANCH   7  37
TORSDOF 9
ENDMDL
MODEL 3
REMARK VINA RESULT:      -7.9      4.418      8.651
REMARK  9 active torsions:
REMARK  status: ('A' for Active; 'I' for Inactive)
REMARK       I    between atoms: C_2  and  N_3 
REMARK    1  A    between atoms: N_3  and  C_4 
REMARK    2  A    between atoms: C_4  and  C_5 
REMARK    3  A    between atoms: C_5  and  N_6 
REMARK       I    between atoms: N_6  and  C_7 
REMARK    4  A    between atoms: C_7  and  C_8 
REMARK    5  A    between atoms: C_8  and  C_9 
REMARK    6  A    between atoms: C_13  and  C_14 
REMARK    7  A    between atoms: C_14  and  O_15 
REMARK    8  A    between atoms: C_17  and  O_18 
REMARK    9  A    between atoms: C_25  and  C_26 
ROOT
HETATM    1  C   UNL     1       4.753  27.066  50.425  1.00  0.00     0.056 C 
HETATM    2  C   UNL     1       4.756  28.650  50.229  1.00  0.00    -0.030 C 
HETATM    3  C   UNL     1       5.986  29.065  49.353  1.00  0.00     0.016 C 
HETATM    4  C   UNL     1       4.879  29.451  51.596  1.00  0.00     0.012 C 
HETATM    5  C   UNL     1       3.556  29.684  52.443  1.00  0.00     0.008 C 
HETATM    6  C   UNL     1       3.740  31.044  53.190  1.00  0.00     0.020 C 
HETATM    7  C   UNL     1       2.310  29.855  51.516  1.00  0.00     0.128 C 
HETATM    8  C   UNL     1       2.692  30.211  50.083  1.00  0.00     0.033 C 
HETATM    9  C   UNL     1       3.480  29.075  49.436  1.00  0.00     0.013 C 
HETATM   10  C   UNL     1       6.112  29.008  52.428  1.00  0.00     0.054 C 
HETATM   11  C   UNL     1       6.274  27.534  52.417  1.00  0.00     0.010 A 
HETATM   12  C   UNL     1       5.717  26.652  51.517  1.00  0.00     0.054 A 
HETATM   13  N   UNL     1       6.043  25.321  51.741  1.00  0.00    -0.244 NA
HETATM   14  C   UNL     1       6.745  25.203  52.859  1.00  0.00     0.108 A 
HETATM   15  S   UNL     1       7.206  26.707  53.571  1.00  0.00    -0.072 SA
ENDROOT
BRANCH   1  16
HETATM   16  C   UNL     1       5.003  26.322  49.100  1.00  0.00     0.114 C 
BRANCH  16  17
HETATM   17  C   UNL     1       3.751  25.814  48.410  1.00  0.00     0.218 C 
HETATM   18  N   UNL     1       3.257  26.669  47.462  1.00  0.00    -0.359 N 
HETATM   19  H   UNL     1       3.945  27.268  47.001  1.00  0.00     0.162 HD
HETATM   20  O   UNL     1       3.194  24.773  48.749  1.00  0.00    -0.274 OA
BRANCH  18  21
HETATM   21  C   UNL     1       1.961  26.499  46.845  1.00  0.00     0.142 C 
BRANCH  21  22
HETATM   22  C   UNL     1       0.823  27.201  47.588  1.00  0.00     0.142 C 
BRANCH  22  23
HETATM   23  N   UNL     1       0.439  28.446  46.939  1.00  0.00    -0.360 N 
HETATM   24  C   UNL     1      -0.465  28.471  45.903  1.00  0.00     0.213 C 
HETATM   25  C   UNL     1      -0.665  29.826  45.278  1.00  0.00     0.117 C 
HETATM   26  O   UNL     1      -1.062  27.479  45.495  1.00  0.00    -0.274 OA
HETATM   27  H   UNL     1       0.973  29.276  47.159  1.00  0.00     0.162 HD
ENDBRANCH  22  23
ENDBRANCH  21  22
ENDBRANCH  18  21
ENDBRANCH  16  17
ENDBRANCH   1  16
BRANCH   5  28
HETATM   28  C   UNL     1       3.292  28.641  53.560  1.00  0.00     0.176 C 
BRANCH  28  29
HETATM   29  O   UNL     1       3.094  27.332  53.065  1.00  0.00    -0.400 OA
HETATM   30  H   UNL     1       3.563  27.310  52.202  1.00  0.00     0.209 HD
ENDBRANCH  28  29
ENDBRANCH   5  28
BRANCH  14  31
HETATM   31  C   UNL     1       7.147  23.923  53.471  1.00  0.00    -0.000 A 
HETATM   32  C   UNL     1       7.077  23.766  54.864  1.00  0.00     0.014 A 
HETATM   33  C   UNL     1       7.492  22.582  55.479  1.00  0.00     0.001 A 
HETATM   34  C   UNL     1       7.981  21.529  54.711  1.00  0.00     0.000 A 
HETATM   35  C   UNL     1       8.059  21.661  53.329  1.00  0.00     0.001 A 
HETATM   36  C   UNL     1       7.650  22.849  52.715  1.00  0.00     0.014 A 
ENDBRANCH  14  31
BRANCH   7  37
HETATM   37  O   UNL     1       1.512  28.665  51.487  1.00  0.00    -0.395 OA
HETATM   38  H   UNL     1       1.022  28.622  52.329  1.00  0.00     0.210 HD
ENDBRANCH   7  37
TORSDOF 9
ENDMDL
MODEL 4
REMARK VINA RESULT:      -7.6      7.526     11.175
REMARK  9 active torsions:
REMARK  status: ('A' for Active; 'I' for Inactive)
REMARK       I    between atoms: C_2  and  N_3 
REMARK    1  A    between atoms: N_3  and  C_4 
REMARK    2  A    between atoms: C_4  and  C_5 
REMARK    3  A    between atoms: C_5  and  N_6 
REMARK       I    between atoms: N_6  and  C_7 
REMARK    4  A    between atoms: C_7  and  C_8 
REMARK    5  A    between atoms: C_8  and  C_9 
REMARK    6  A    between atoms: C_13  and  C_14 
REMARK    7  A    between atoms: C_14  and  O_15 
REMARK    8  A    between atoms: C_17  and  O_18 
REMARK    9  A    between atoms: C_25  and  C_26 
ROOT
HETATM    1  C   UNL     1       5.199  34.240  62.697  1.00  0.00     0.056 C 
HETATM    2  C   UNL     1       4.320  35.306  63.495  1.00  0.00    -0.030 C 
HETATM    3  C   UNL     1       3.286  34.556  64.401  1.00  0.00     0.016 C 
HETATM    4  C   UNL     1       3.480  36.264  62.544  1.00  0.00     0.012 C 
HETATM    5  C   UNL     1       4.218  37.525  61.921  1.00  0.00     0.008 C 
HETATM    6  C   UNL     1       3.133  38.637  61.754  1.00  0.00     0.020 C 
HETATM    7  C   UNL     1       5.291  38.098  62.901  1.00  0.00     0.128 C 
HETATM    8  C   UNL     1       5.074  37.637  64.339  1.00  0.00     0.033 C 
HETATM    9  C   UNL     1       5.241  36.124  64.452  1.00  0.00     0.013 C 
HETATM   10  C   UNL     1       2.595  35.472  61.545  1.00  0.00     0.054 C 
HETATM   11  C   UNL     1       3.323  34.314  60.972  1.00  0.00     0.010 A 
HETATM   12  C   UNL     1       4.456  33.721  61.484  1.00  0.00     0.054 A 
HETATM   13  N   UNL     1       4.925  32.644  60.743  1.00  0.00    -0.244 NA
HETATM   14  C   UNL     1       4.211  32.505  59.634  1.00  0.00     0.108 A 
HETATM   15  S   UNL     1       2.831  33.539  59.543  1.00  0.00    -0.072 SA
ENDROOT
BRANCH   1  16
HETATM   16  C   UNL     1       5.702  33.108  63.613  1.00  0.00     0.114 C 
BRANCH  16  17
HETATM   17  C   UNL     1       7.143  32.694  63.379  1.00  0.00     0.218 C 
HETATM   18  N   UNL     1       7.289  31.699  62.451  1.00  0.00    -0.359 N 
HETATM   19  H   UNL     1       6.571  31.659  61.724  1.00  0.00     0.162 HD
HETATM   20  O   UNL     1       8.071  33.155  64.038  1.00  0.00    -0.274 OA
BRANCH  18  21
HETATM   21  C   UNL     1       8.534  30.997  62.235  1.00  0.00     0.142 C 
BRANCH  21  22
HETATM   22  C   UNL     1       9.383  31.574  61.101  1.00  0.00     0.142 C 
BRANCH  22  23
HETATM   23  N   UNL     1       9.437  30.677  59.955  1.00  0.00    -0.360 N 
HETATM   24  C   UNL     1       9.809  31.122  58.708  1.00  0.00     0.213 C 
HETATM   25  C   UNL     1       9.705  30.088  57.618  1.00  0.00     0.117 C 
HETATM   26  O   UNL     1      10.185  32.267  58.477  1.00  0.00    -0.274 OA
HETATM   27  H   UNL     1       9.038  29.754  60.060  1.00  0.00     0.162 HD
ENDBRANCH  22  23
ENDBRANCH  21  22
ENDBRANCH  18  21
ENDBRANCH  16  17
ENDBRANCH   1  16
BRANCH   5  28
HETATM   28  C   UNL     1       4.803  37.316  60.500  1.00  0.00     0.176 C 
BRANCH  28  29
HETATM   29  O   UNL     1       5.339  38.498  59.938  1.00  0.00    -0.400 OA
HETATM   30  H   UNL     1       4.897  38.591  59.066  1.00  0.00     0.209 HD
ENDBRANCH  28  29
ENDBRANCH   5  28
BRANCH  14  31
HETATM   31  C   UNL     1       4.512  31.549  58.553  1.00  0.00    -0.000 A 
HETATM   32  C   UNL     1       5.847  31.260  58.231  1.00  0.00     0.014 A 
HETATM   33  C   UNL     1       6.167  30.394  57.182  1.00  0.00     0.001 A 
HETATM   34  C   UNL     1       5.154  29.795  56.438  1.00  0.00     0.000 A 
HETATM   35  C   UNL     1       3.824  30.065  56.738  1.00  0.00     0.001 A 
HETATM   36  C   UNL     1       3.506  30.938  57.784  1.00  0.00     0.014 A 
ENDBRANCH  14  31
BRANCH   7  37
HETATM   37  O   UNL     1       6.616  37.724  62.503  1.00  0.00    -0.395 OA
HETATM   38  H   UNL     1       6.879  38.316  61.774  1.00  0.00     0.210 HD
ENDBRANCH   7  37
TORSDOF 9
ENDMDL
MODEL 5
REMARK VINA RESULT:      -7.6      3.372      7.364
REMARK  9 active torsions:
REMARK  status: ('A' for Active; 'I' for Inactive)
REMARK       I    between atoms: C_2  and  N_3 
REMARK    1  A    between atoms: N_3  and  C_4 
REMARK    2  A    between atoms: C_4  and  C_5 
REMARK    3  A    between atoms: C_5  and  N_6 
REMARK       I    between atoms: N_6  and  C_7 
REMARK    4  A    between atoms: C_7  and  C_8 
REMARK    5  A    between atoms: C_8  and  C_9 
REMARK    6  A    between atoms: C_13  and  C_14 
REMARK    7  A    between atoms: C_14  and  O_15 
REMARK    8  A    between atoms: C_17  and  O_18 
REMARK    9  A    between atoms: C_25  and  C_26 
ROOT
HETATM    1  C   UNL     1       4.363  27.917  50.717  1.00  0.00     0.056 C 
HETATM    2  C   UNL     1       4.390  28.391  49.193  1.00  0.00    -0.030 C 
HETATM    3  C   UNL     1       5.854  28.771  48.791  1.00  0.00     0.016 C 
HETATM    4  C   UNL     1       3.495  29.675  48.920  1.00  0.00     0.012 C 
HETATM    5  C   UNL     1       1.937  29.461  48.695  1.00  0.00     0.008 C 
HETATM    6  C   UNL     1       1.469  30.588  47.720  1.00  0.00     0.020 C 
HETATM    7  C   UNL     1       1.647  28.105  47.974  1.00  0.00     0.128 C 
HETATM    8  C   UNL     1       2.877  27.546  47.266  1.00  0.00     0.033 C 
HETATM    9  C   UNL     1       3.970  27.201  48.275  1.00  0.00     0.013 C 
HETATM   10  C   UNL     1       3.857  30.856  49.859  1.00  0.00     0.054 C 
HETATM   11  C   UNL     1       4.084  30.395  51.250  1.00  0.00     0.010 A 
HETATM   12  C   UNL     1       4.351  29.106  51.655  1.00  0.00     0.054 A 
HETATM   13  N   UNL     1       4.527  28.960  53.026  1.00  0.00    -0.244 NA
HETATM   14  C   UNL     1       4.287  30.107  53.643  1.00  0.00     0.108 A 
HETATM   15  S   UNL     1       4.036  31.447  52.582  1.00  0.00    -0.072 SA
ENDROOT
BRANCH   1  16
HETATM   16  C   UNL     1       5.498  26.925  51.032  1.00  0.00     0.114 C 
BRANCH  16  17
HETATM   17  C   UNL     1       5.141  25.849  52.040  1.00  0.00     0.218 C 
HETATM   18  N   UNL     1       5.517  26.146  53.322  1.00  0.00    -0.359 N 
HETATM   19  H   UNL     1       5.555  27.140  53.556  1.00  0.00     0.162 HD
HETATM   20  O   UNL     1       4.644  24.777  51.704  1.00  0.00    -0.274 OA
BRANCH  18  21
HETATM   21  C   UNL     1       5.483  25.181  54.398  1.00  0.00     0.142 C 
BRANCH  21  22
HETATM   22  C   UNL     1       6.865  24.774  54.911  1.00  0.00     0.142 C 
BRANCH  22  23
HETATM   23  N   UNL     1       7.206  23.411  54.527  1.00  0.00    -0.360 N 
HETATM   24  C   UNL     1       7.726  23.118  53.288  1.00  0.00     0.213 C 
HETATM   25  C   UNL     1       7.918  21.649  53.021  1.00  0.00     0.117 C 
HETATM   26  O   UNL     1       8.006  23.968  52.449  1.00  0.00    -0.274 OA
HETATM   27  H   UNL     1       6.900  22.661  55.133  1.00  0.00     0.162 HD
ENDBRANCH  22  23
ENDBRANCH  21  22
ENDBRANCH  18  21
ENDBRANCH  16  17
ENDBRANCH   1  16
BRANCH   5  28
HETATM   28  C   UNL     1       1.055  29.629  49.960  1.00  0.00     0.176 C 
BRANCH  28  29
HETATM   29  O   UNL     1       1.240  28.598  50.910  1.00  0.00    -0.400 OA
HETATM   30  H   UNL     1       0.888  28.960  51.753  1.00  0.00     0.209 HD
ENDBRANCH  28  29
ENDBRANCH   5  28
BRANCH  14  31
HETATM   31  C   UNL     1       4.251  30.285  55.107  1.00  0.00    -0.000 A 
HETATM   32  C   UNL     1       5.002  29.432  55.929  1.00  0.00     0.014 A 
HETATM   33  C   UNL     1       4.955  29.544  57.322  1.00  0.00     0.001 A 
HETATM   34  C   UNL     1       4.157  30.518  57.917  1.00  0.00     0.000 A 
HETATM   35  C   UNL     1       3.405  31.376  57.122  1.00  0.00     0.001 A 
HETATM   36  C   UNL     1       3.448  31.257  55.729  1.00  0.00     0.014 A 
ENDBRANCH  14  31
BRANCH   7  37
HETATM   37  O   UNL     1       1.167  27.116  48.893  1.00  0.00    -0.395 OA
HETATM   38  H   UNL     1       0.278  27.395  49.183  1.00  0.00     0.210 HD
ENDBRANCH   7  37
TORSDOF 9
ENDMDL
MODEL 6
REMARK VINA RESULT:      -7.6      4.074      7.129
REMARK  9 active torsions:
REMARK  status: ('A' for Active; 'I' for Inactive)
REMARK       I    between atoms: C_2  and  N_3 
REMARK    1  A    between atoms: N_3  and  C_4 
REMARK    2  A    between atoms: C_4  and  C_5 
REMARK    3  A    between atoms: C_5  and  N_6 
REMARK       I    between atoms: N_6  and  C_7 
REMARK    4  A    between atoms: C_7  and  C_8 
REMARK    5  A    between atoms: C_8  and  C_9 
REMARK    6  A    between atoms: C_13  and  C_14 
REMARK    7  A    between atoms: C_14  and  O_15 
REMARK    8  A    between atoms: C_17  and  O_18 
REMARK    9  A    between atoms: C_25  and  C_26 
ROOT
HETATM    1  C   UNL     1       5.749  28.795  55.834  1.00  0.00     0.056 C 
HETATM    2  C   UNL     1       7.152  28.078  56.092  1.00  0.00    -0.030 C 
HETATM    3  C   UNL     1       8.308  29.121  55.925  1.00  0.00     0.016 C 
HETATM    4  C   UNL     1       7.451  26.899  55.069  1.00  0.00     0.012 C 
HETATM    5  C   UNL     1       6.811  25.477  55.367  1.00  0.00     0.008 C 
HETATM    6  C   UNL     1       7.804  24.414  54.797  1.00  0.00     0.020 C 
HETATM    7  C   UNL     1       6.712  25.208  56.903  1.00  0.00     0.128 C 
HETATM    8  C   UNL     1       7.631  26.116  57.716  1.00  0.00     0.033 C 
HETATM    9  C   UNL     1       7.213  27.577  57.568  1.00  0.00     0.013 C 
HETATM   10  C   UNL     1       7.344  27.361  53.591  1.00  0.00     0.054 C 
HETATM   11  C   UNL     1       6.171  28.244  53.381  1.00  0.00     0.010 A 
HETATM   12  C   UNL     1       5.470  28.924  54.351  1.00  0.00     0.054 A 
HETATM   13  N   UNL     1       4.413  29.686  53.869  1.00  0.00    -0.244 NA
HETATM   14  C   UNL     1       4.263  29.488  52.567  1.00  0.00     0.108 A 
HETATM   15  S   UNL     1       5.509  28.535  51.844  1.00  0.00    -0.072 SA
ENDROOT
BRANCH   1  16
HETATM   16  C   UNL     1       5.646  30.141  56.577  1.00  0.00     0.114 C 
BRANCH  16  17
HETATM   17  C   UNL     1       4.342  30.357  57.322  1.00  0.00     0.218 C 
HETATM   18  N   UNL     1       4.483  31.052  58.492  1.00  0.00    -0.359 N 
HETATM   19  H   UNL     1       5.263  31.713  58.527  1.00  0.00     0.162 HD
HETATM   20  O   UNL     1       3.283  29.866  56.942  1.00  0.00    -0.274 OA
BRANCH  18  21
HETATM   21  C   UNL     1       3.424  31.177  59.468  1.00  0.00     0.142 C 
BRANCH  21  22
HETATM   22  C   UNL     1       3.748  32.134  60.617  1.00  0.00     0.142 C 
BRANCH  22  23
HETATM   23  N   UNL     1       5.136  32.019  61.043  1.00  0.00    -0.360 N 
HETATM   24  C   UNL     1       5.480  31.952  62.372  1.00  0.00     0.213 C 
HETATM   25  C   UNL     1       6.962  31.946  62.636  1.00  0.00     0.117 C 
HETATM   26  O   UNL     1       4.662  31.914  63.287  1.00  0.00    -0.274 OA
HETATM   27  H   UNL     1       5.855  32.153  60.344  1.00  0.00     0.162 HD
ENDBRANCH  22  23
ENDBRANCH  21  22
ENDBRANCH  18  21
ENDBRANCH  16  17
ENDBRANCH   1  16
BRANCH   5  28
HETATM   28  C   UNL     1       5.463  25.193  54.655  1.00  0.00     0.176 C 
BRANCH  28  29
HETATM   29  O   UNL     1       5.607  24.439  53.468  1.00  0.00    -0.400 OA
HETATM   30  H   UNL     1       5.637  25.102  52.744  1.00  0.00     0.209 HD
ENDBRANCH  28  29
ENDBRANCH   5  28
BRANCH  14  31
HETATM   31  C   UNL     1       3.160  30.032  51.754  1.00  0.00    -0.000 A 
HETATM   32  C   UNL     1       2.408  29.173  50.938  1.00  0.00     0.014 A 
HETATM   33  C   UNL     1       1.385  29.662  50.121  1.00  0.00     0.001 A 
HETATM   34  C   UNL     1       1.092  31.023  50.108  1.00  0.00     0.000 A 
HETATM   35  C   UNL     1       1.823  31.895  50.908  1.00  0.00     0.001 A 
HETATM   36  C   UNL     1       2.851  31.404  51.720  1.00  0.00     0.014 A 
ENDBRANCH  14  31
BRANCH   7  37
HETATM   37  O   UNL     1       5.371  25.381  57.379  1.00  0.00    -0.395 OA
HETATM   38  H   UNL     1       5.178  26.337  57.365  1.00  0.00     0.210 HD
ENDBRANCH   7  37
TORSDOF 9
ENDMDL
MODEL 7
REMARK VINA RESULT:      -7.3      3.209      7.427
REMARK  9 active torsions:
REMARK  status: ('A' for Active; 'I' for Inactive)
REMARK       I    between atoms: C_2  and  N_3 
REMARK    1  A    between atoms: N_3  and  C_4 
REMARK    2  A    between atoms: C_4  and  C_5 
REMARK    3  A    between atoms: C_5  and  N_6 
REMARK       I    between atoms: N_6  and  C_7 
REMARK    4  A    between atoms: C_7  and  C_8 
REMARK    5  A    between atoms: C_8  and  C_9 
REMARK    6  A    between atoms: C_13  and  C_14 
REMARK    7  A    between atoms: C_14  and  O_15 
REMARK    8  A    between atoms: C_17  and  O_18 
REMARK    9  A    between atoms: C_25  and  C_26 
ROOT
HETATM    1  C   UNL     1       3.734  29.558  52.087  1.00  0.00     0.056 C 
HETATM    2  C   UNL     1       2.844  30.138  50.896  1.00  0.00    -0.030 C 
HETATM    3  C   UNL     1       1.413  29.505  50.959  1.00  0.00     0.016 C 
HETATM    4  C   UNL     1       3.427  29.804  49.457  1.00  0.00     0.012 C 
HETATM    5  C   UNL     1       4.577  30.739  48.885  1.00  0.00     0.008 C 
HETATM    6  C   UNL     1       4.409  30.753  47.332  1.00  0.00     0.020 C 
HETATM    7  C   UNL     1       4.398  32.216  49.362  1.00  0.00     0.128 C 
HETATM    8  C   UNL     1       2.982  32.505  49.850  1.00  0.00     0.033 C 
HETATM    9  C   UNL     1       2.660  31.676  51.090  1.00  0.00     0.013 C 
HETATM   10  C   UNL     1       3.670  28.284  49.258  1.00  0.00     0.054 C 
HETATM   11  C   UNL     1       4.276  27.668  50.464  1.00  0.00     0.010 A 
HETATM   12  C   UNL     1       4.284  28.190  51.738  1.00  0.00     0.054 A 
HETATM   13  N   UNL     1       4.921  27.394  52.681  1.00  0.00    -0.244 NA
HETATM   14  C   UNL     1       5.475  26.343  52.094  1.00  0.00     0.108 A 
HETATM   15  S   UNL     1       5.080  26.173  50.421  1.00  0.00    -0.072 SA
ENDROOT
BRANCH   1  16
HETATM   16  C   UNL     1       2.978  29.568  53.429  1.00  0.00     0.114 C 
BRANCH  16  17
HETATM   17  C   UNL     1       3.692  30.291  54.556  1.00  0.00     0.218 C 
HETATM   18  N   UNL     1       4.960  29.832  54.790  1.00  0.00    -0.359 N 
HETATM   19  H   UNL     1       5.447  29.436  53.984  1.00  0.00     0.162 HD
HETATM   20  O   UNL     1       3.135  31.142  55.243  1.00  0.00    -0.274 OA
BRANCH  18  21
HETATM   21  C   UNL     1       5.735  30.213  55.949  1.00  0.00     0.142 C 
BRANCH  21  22
HETATM   22  C   UNL     1       5.523  29.307  57.163  1.00  0.00     0.142 C 
BRANCH  22  23
HETATM   23  N   UNL     1       6.204  28.029  57.011  1.00  0.00    -0.360 N 
HETATM   24  C   UNL     1       7.419  27.782  57.606  1.00  0.00     0.213 C 
HETATM   25  C   UNL     1       8.029  26.452  57.255  1.00  0.00     0.117 C 
HETATM   26  O   UNL     1       7.984  28.574  58.353  1.00  0.00    -0.274 OA
HETATM   27  H   UNL     1       5.840  27.381  56.324  1.00  0.00     0.162 HD
ENDBRANCH  22  23
ENDBRANCH  21  22
ENDBRANCH  18  21
ENDBRANCH  16  17
ENDBRANCH   1  16
BRANCH   5  28
HETATM   28  C   UNL     1       6.024  30.236  49.130  1.00  0.00     0.176 C 
BRANCH  28  29
HETATM   29  O   UNL     1       6.422  30.321  50.484  1.00  0.00    -0.400 OA
HETATM   30  H   UNL     1       6.543  29.390  50.775  1.00  0.00     0.209 HD
ENDBRANCH  28  29
ENDBRANCH   5  28
BRANCH  14  31
HETATM   31  C   UNL     1       6.340  25.359  52.770  1.00  0.00    -0.000 A 
HETATM   32  C   UNL     1       7.429  24.802  52.082  1.00  0.00     0.014 A 
HETATM   33  C   UNL     1       8.242  23.834  52.678  1.00  0.00     0.001 A 
HETATM   34  C   UNL     1       7.984  23.408  53.978  1.00  0.00     0.000 A 
HETATM   35  C   UNL     1       6.911  23.947  54.681  1.00  0.00     0.001 A 
HETATM   36  C   UNL     1       6.094  24.910  54.080  1.00  0.00     0.014 A 
ENDBRANCH  14  31
BRANCH   7  37
HETATM   37  O   UNL     1       5.314  32.540  50.415  1.00  0.00    -0.395 OA
HETATM   38  H   UNL     1       4.790  32.668  51.228  1.00  0.00     0.210 HD
ENDBRANCH   7  37
TORSDOF 9
ENDMDL
MODEL 8
REMARK VINA RESULT:      -7.2      3.389      7.506
REMARK  9 active torsions:
REMARK  status: ('A' for Active; 'I' for Inactive)
REMARK       I    between atoms: C_2  and  N_3 
REMARK    1  A    between atoms: N_3  and  C_4 
REMARK    2  A    between atoms: C_4  and  C_5 
REMARK    3  A    between atoms: C_5  and  N_6 
REMARK       I    between atoms: N_6  and  C_7 
REMARK    4  A    between atoms: C_7  and  C_8 
REMARK    5  A    between atoms: C_8  and  C_9 
REMARK    6  A    between atoms: C_13  and  C_14 
REMARK    7  A    between atoms: C_14  and  O_15 
REMARK    8  A    between atoms: C_17  and  O_18 
REMARK    9  A    between atoms: C_25  and  C_26 
ROOT
HETATM    1  C   UNL     1       4.402  27.899  50.802  1.00  0.00     0.056 C 
HETATM    2  C   UNL     1       4.438  28.361  49.275  1.00  0.00    -0.030 C 
HETATM    3  C   UNL     1       5.903  28.745  48.880  1.00  0.00     0.016 C 
HETATM    4  C   UNL     1       3.539  29.640  48.985  1.00  0.00     0.012 C 
HETATM    5  C   UNL     1       1.984  29.418  48.751  1.00  0.00     0.008 C 
HETATM    6  C   UNL     1       1.518  30.536  47.764  1.00  0.00     0.020 C 
HETATM    7  C   UNL     1       1.705  28.055  48.038  1.00  0.00     0.128 C 
HETATM    8  C   UNL     1       2.942  27.496  47.343  1.00  0.00     0.033 C 
HETATM    9  C   UNL     1       4.029  27.163  48.362  1.00  0.00     0.013 C 
HETATM   10  C   UNL     1       3.890  30.830  49.918  1.00  0.00     0.054 C 
HETATM   11  C   UNL     1       4.109  30.380  51.314  1.00  0.00     0.010 A 
HETATM   12  C   UNL     1       4.379  29.095  51.731  1.00  0.00     0.054 A 
HETATM   13  N   UNL     1       4.546  28.961  53.103  1.00  0.00    -0.244 NA
HETATM   14  C   UNL     1       4.297  30.112  53.711  1.00  0.00     0.108 A 
HETATM   15  S   UNL     1       4.047  31.442  52.637  1.00  0.00    -0.072 SA
ENDROOT
BRANCH   1  16
HETATM   16  C   UNL     1       5.539  26.914  51.132  1.00  0.00     0.114 C 
BRANCH  16  17
HETATM   17  C   UNL     1       5.205  25.894  52.203  1.00  0.00     0.218 C 
HETATM   18  N   UNL     1       5.632  26.247  53.455  1.00  0.00    -0.359 N 
HETATM   19  H   UNL     1       5.692  27.250  53.639  1.00  0.00     0.162 HD
HETATM   20  O   UNL     1       4.683  24.814  51.939  1.00  0.00    -0.274 OA
BRANCH  18  21
HETATM   21  C   UNL     1       5.625  25.336  54.577  1.00  0.00     0.142 C 
BRANCH  21  22
HETATM   22  C   UNL     1       6.976  25.209  55.283  1.00  0.00     0.142 C 
BRANCH  22  23
HETATM   23  N   UNL     1       7.490  26.505  55.706  1.00  0.00    -0.360 N 
HETATM   24  C   UNL     1       8.012  26.699  56.963  1.00  0.00     0.213 C 
HETATM   25  C   UNL     1       8.396  28.121  57.269  1.00  0.00     0.117 C 
HETATM   26  O   UNL     1       8.150  25.802  57.790  1.00  0.00    -0.274 OA
HETATM   27  H   UNL     1       7.306  27.301  55.110  1.00  0.00     0.162 HD
ENDBRANCH  22  23
ENDBRANCH  21  22
ENDBRANCH  18  21
ENDBRANCH  16  17
ENDBRANCH   1  16
BRANCH   5  28
HETATM   28  C   UNL     1       1.092  29.592  50.008  1.00  0.00     0.176 C 
BRANCH  28  29
HETATM   29  O   UNL     1       1.270  28.565  50.964  1.00  0.00    -0.400 OA
HETATM   30  H   UNL     1       0.398  28.115  51.022  1.00  0.00     0.209 HD
ENDBRANCH  28  29
ENDBRANCH   5  28
BRANCH  14  31
HETATM   31  C   UNL     1       4.250  30.301  55.172  1.00  0.00    -0.000 A 
HETATM   32  C   UNL     1       5.190  29.652  55.988  1.00  0.00     0.014 A 
HETATM   33  C   UNL     1       5.145  29.774  57.379  1.00  0.00     0.001 A 
HETATM   34  C   UNL     1       4.161  30.552  57.981  1.00  0.00     0.000 A 
HETATM   35  C   UNL     1       3.218  31.205  57.194  1.00  0.00     0.001 A 
HETATM   36  C   UNL     1       3.260  31.076  55.802  1.00  0.00     0.014 A 
ENDBRANCH  14  31
BRANCH   7  37
HETATM   37  O   UNL     1       1.222  27.072  48.962  1.00  0.00    -0.395 OA
HETATM   38  H   UNL     1       0.448  26.642  48.551  1.00  0.00     0.210 HD
ENDBRANCH   7  37
TORSDOF 9
ENDMDL
MODEL 9
REMARK VINA RESULT:      -7.1      4.037      7.513
REMARK  9 active torsions:
REMARK  status: ('A' for Active; 'I' for Inactive)
REMARK       I    between atoms: C_2  and  N_3 
REMARK    1  A    between atoms: N_3  and  C_4 
REMARK    2  A    between atoms: C_4  and  C_5 
REMARK    3  A    between atoms: C_5  and  N_6 
REMARK       I    between atoms: N_6  and  C_7 
REMARK    4  A    between atoms: C_7  and  C_8 
REMARK    5  A    between atoms: C_8  and  C_9 
REMARK    6  A    between atoms: C_13  and  C_14 
REMARK    7  A    between atoms: C_14  and  O_15 
REMARK    8  A    between atoms: C_17  and  O_18 
REMARK    9  A    between atoms: C_25  and  C_26 
ROOT
HETATM    1  C   UNL     1       5.794  28.692  55.770  1.00  0.00     0.056 C 
HETATM    2  C   UNL     1       7.181  27.943  56.026  1.00  0.00    -0.030 C 
HETATM    3  C   UNL     1       8.360  28.960  55.863  1.00  0.00     0.016 C 
HETATM    4  C   UNL     1       7.454  26.761  55.000  1.00  0.00     0.012 C 
HETATM    5  C   UNL     1       6.783  25.352  55.293  1.00  0.00     0.008 C 
HETATM    6  C   UNL     1       7.753  24.269  54.720  1.00  0.00     0.020 C 
HETATM    7  C   UNL     1       6.677  25.081  56.829  1.00  0.00     0.128 C 
HETATM    8  C   UNL     1       7.615  25.966  57.644  1.00  0.00     0.033 C 
HETATM    9  C   UNL     1       7.230  27.436  57.501  1.00  0.00     0.013 C 
HETATM   10  C   UNL     1       7.358  27.230  53.523  1.00  0.00     0.054 C 
HETATM   11  C   UNL     1       6.204  28.138  53.315  1.00  0.00     0.010 A 
HETATM   12  C   UNL     1       5.518  28.831  54.287  1.00  0.00     0.054 A 
HETATM   13  N   UNL     1       4.479  29.617  53.807  1.00  0.00    -0.244 NA
HETATM   14  C   UNL     1       4.325  29.427  52.504  1.00  0.00     0.108 A 
HETATM   15  S   UNL     1       5.550  28.448  51.779  1.00  0.00    -0.072 SA
ENDROOT
BRANCH   1  16
HETATM   16  C   UNL     1       5.720  30.037  56.516  1.00  0.00     0.114 C 
BRANCH  16  17
HETATM   17  C   UNL     1       4.402  30.302  57.219  1.00  0.00     0.218 C 
HETATM   18  N   UNL     1       4.532  30.980  58.401  1.00  0.00    -0.359 N 
HETATM   19  H   UNL     1       5.337  31.606  58.469  1.00  0.00     0.162 HD
HETATM   20  O   UNL     1       3.336  29.861  56.798  1.00  0.00    -0.274 OA
BRANCH  18  21
HETATM   21  C   UNL     1       3.447  31.142  59.342  1.00  0.00     0.142 C 
BRANCH  21  22
HETATM   22  C   UNL     1       3.329  32.554  59.917  1.00  0.00     0.142 C 
BRANCH  22  23
HETATM   23  N   UNL     1       4.089  33.522  59.138  1.00  0.00    -0.360 N 
HETATM   24  C   UNL     1       3.487  34.321  58.194  1.00  0.00     0.213 C 
HETATM   25  C   UNL     1       4.436  35.185  57.408  1.00  0.00     0.117 C 
HETATM   26  O   UNL     1       2.278  34.334  57.984  1.00  0.00    -0.274 OA
HETATM   27  H   UNL     1       5.098  33.481  59.192  1.00  0.00     0.162 HD
ENDBRANCH  22  23
ENDBRANCH  21  22
ENDBRANCH  18  21
ENDBRANCH  16  17
ENDBRANCH   1  16
BRANCH   5  28
HETATM   28  C   UNL     1       5.429  25.100  54.580  1.00  0.00     0.176 C 
BRANCH  28  29
HETATM   29  O   UNL     1       5.566  24.419  53.348  1.00  0.00    -0.400 OA
HETATM   30  H   UNL     1       5.914  25.090  52.721  1.00  0.00     0.209 HD
ENDBRANCH  28  29
ENDBRANCH   5  28
BRANCH  14  31
HETATM   31  C   UNL     1       3.234  29.997  51.692  1.00  0.00    -0.000 A 
HETATM   32  C   UNL     1       2.964  31.373  51.759  1.00  0.00     0.014 A 
HETATM   33  C   UNL     1       1.910  31.938  51.037  1.00  0.00     0.001 A 
HETATM   34  C   UNL     1       1.107  31.137  50.230  1.00  0.00     0.000 A 
HETATM   35  C   UNL     1       1.355  29.771  50.148  1.00  0.00     0.001 A 
HETATM   36  C   UNL     1       2.407  29.206  50.877  1.00  0.00     0.014 A 
ENDBRANCH  14  31
BRANCH   7  37
HETATM   37  O   UNL     1       5.341  25.282  57.304  1.00  0.00    -0.395 OA
HETATM   38  H   UNL     1       5.186  24.638  58.020  1.00  0.00     0.210 HD
ENDBRANCH   7  37
TORSDOF 9
ENDMDL
MODEL 10
REMARK VINA RESULT:      -7.0      4.623      8.164
REMARK  9 active torsions:
REMARK  status: ('A' for Active; 'I' for Inactive)
REMARK       I    between atoms: C_2  and  N_3 
REMARK    1  A    between atoms: N_3  and  C_4 
REMARK    2  A    between atoms: C_4  and  C_5 
REMARK    3  A    between atoms: C_5  and  N_6 
REMARK       I    between atoms: N_6  and  C_7 
REMARK    4  A    between atoms: C_7  and  C_8 
REMARK    5  A    between atoms: C_8  and  C_9 
REMARK    6  A    between atoms: C_13  and  C_14 
REMARK    7  A    between atoms: C_14  and  O_15 
REMARK    8  A    between atoms: C_17  and  O_18 
REMARK    9  A    between atoms: C_25  and  C_26 
ROOT
HETATM    1  C   UNL     1       4.688  28.982  49.488  1.00  0.00     0.056 C 
HETATM    2  C   UNL     1       4.221  28.167  48.197  1.00  0.00    -0.030 C 
HETATM    3  C   UNL     1       5.473  27.797  47.332  1.00  0.00     0.016 C 
HETATM    4  C   UNL     1       3.244  28.992  47.254  1.00  0.00     0.012 C 
HETATM    5  C   UNL     1       1.702  29.031  47.633  1.00  0.00     0.008 C 
HETATM    6  C   UNL     1       0.916  29.148  46.288  1.00  0.00     0.020 C 
HETATM    7  C   UNL     1       1.246  27.692  48.296  1.00  0.00     0.128 C 
HETATM    8  C   UNL     1       2.209  26.543  48.016  1.00  0.00     0.033 C 
HETATM    9  C   UNL     1       3.573  26.819  48.643  1.00  0.00     0.013 C 
HETATM   10  C   UNL     1       3.844  30.362  46.840  1.00  0.00     0.054 C 
HETATM   11  C   UNL     1       4.510  31.032  47.983  1.00  0.00     0.010 A 
HETATM   12  C   UNL     1       4.932  30.438  49.151  1.00  0.00     0.054 A 
HETATM   13  N   UNL     1       5.533  31.307  50.053  1.00  0.00    -0.244 NA
HETATM   14  C   UNL     1       5.462  32.553  49.606  1.00  0.00     0.108 A 
HETATM   15  S   UNL     1       4.847  32.697  47.998  1.00  0.00    -0.072 SA
ENDROOT
BRANCH   1  16
HETATM   16  C   UNL     1       5.897  28.322  50.178  1.00  0.00     0.114 C 
BRANCH  16  17
HETATM   17  C   UNL     1       5.662  27.919  51.622  1.00  0.00     0.218 C 
HETATM   18  N   UNL     1       5.390  26.587  51.787  1.00  0.00    -0.359 N 
HETATM   19  H   UNL     1       5.798  25.960  51.091  1.00  0.00     0.162 HD
HETATM   20  O   UNL     1       5.630  28.741  52.534  1.00  0.00    -0.274 OA
BRANCH  18  21
HETATM   21  C   UNL     1       4.915  26.027  53.032  1.00  0.00     0.142 C 
BRANCH  21  22
HETATM   22  C   UNL     1       6.024  25.734  54.044  1.00  0.00     0.142 C 
BRANCH  22  23
HETATM   23  N   UNL     1       6.546  24.383  53.900  1.00  0.00    -0.360 N 
HETATM   24  C   UNL     1       7.557  24.090  53.015  1.00  0.00     0.213 C 
HETATM   25  C   UNL     1       7.899  22.627  52.917  1.00  0.00     0.117 C 
HETATM   26  O   UNL     1       8.138  24.934  52.340  1.00  0.00    -0.274 OA
HETATM   27  H   UNL     1       6.038  23.632  54.349  1.00  0.00     0.162 HD
ENDBRANCH  22  23
ENDBRANCH  21  22
ENDBRANCH  18  21
ENDBRANCH  16  17
ENDBRANCH   1  16
BRANCH   5  28
HETATM   28  C   UNL     1       1.255  30.258  48.470  1.00  0.00     0.176 C 
BRANCH  28  29
HETATM   29  O   UNL     1       0.447  31.164  47.745  1.00  0.00    -0.400 OA
HETATM   30  H   UNL     1       0.376  30.779  46.844  1.00  0.00     0.209 HD
ENDBRANCH  28  29
ENDBRANCH   5  28
BRANCH  14  31
HETATM   31  C   UNL     1       5.880  33.746  50.365  1.00  0.00    -0.000 A 
HETATM   32  C   UNL     1       6.497  34.814  49.696  1.00  0.00     0.014 A 
HETATM   33  C   UNL     1       6.946  35.940  50.392  1.00  0.00     0.001 A 
HETATM   34  C   UNL     1       6.781  36.020  51.772  1.00  0.00     0.000 A 
HETATM   35  C   UNL     1       6.172  34.974  52.457  1.00  0.00     0.001 A 
HETATM   36  C   UNL     1       5.730  33.844  51.759  1.00  0.00     0.014 A 
ENDBRANCH  14  31
BRANCH   7  37
HETATM   37  O   UNL     1       1.109  27.831  49.716  1.00  0.00    -0.395 OA
HETATM   38  H   UNL     1       0.797  28.738  49.891  1.00  0.00     0.210 HD
ENDBRANCH   7  37
TORSDOF 9
ENDMDL
