MODEL 1
REMARK VINA RESULT:      -9.5      0.000      0.000
REMARK  9 active torsions:
REMARK  status: ('A' for Active; 'I' for Inactive)
REMARK    1  A    between atoms: O_2  and  C_3 
REMARK    2  A    between atoms: C_4  and  O_5 
REMARK    3  A    between atoms: C_8  and  C_9 
REMARK    4  A    between atoms: C_9  and  N_10 
REMARK    5  A    between atoms: C_14  and  O_15 
REMARK    6  A    between atoms: C_14  and  C_16 
REMARK    7  A    between atoms: C_21  and  C_22 
REMARK       I    between atoms: C_22  and  N_23 
REMARK    8  A    between atoms: N_23  and  C_24 
REMARK    9  A    between atoms: C_24  and  C_25 
ROOT
HETATM    1  N   UNL     1       7.964  31.672  61.954  1.00  0.00    -0.067 N 
HETATM    2  H   UNL     1       8.565  32.359  62.428  1.00  0.00     0.280 HD
HETATM    3  C   UNL     1       8.861  30.532  61.524  1.00  0.00     0.238 C 
HETATM    4  C   UNL     1       9.853  31.016  60.476  1.00  0.00     0.071 C 
HETATM    5  C   UNL     1       9.143  31.593  59.236  1.00  0.00     0.088 C 
HETATM    6  C   UNL     1       8.317  32.789  59.754  1.00  0.00     0.071 C 
HETATM    7  C   UNL     1       7.292  32.367  60.792  1.00  0.00     0.238 C 
ENDROOT
BRANCH   5   8
HETATM    8  O   UNL     1      10.160  32.134  58.393  1.00  0.00    -0.385 OA
HETATM    9  H   UNL     1       9.778  32.372  57.527  1.00  0.00     0.211 HD
ENDBRANCH   5   8
BRANCH   5  10
HETATM   10  C   UNL     1       8.343  30.563  58.425  1.00  0.00    -0.023 A 
HETATM   11  C   UNL     1       8.936  29.348  58.005  1.00  0.00     0.024 A 
HETATM   12  C   UNL     1       8.162  28.368  57.354  1.00  0.00     0.001 A 
HETATM   13  C   UNL     1       6.833  28.645  57.083  1.00  0.00     0.086 A 
HETATM   14  C   UNL     1       8.393  27.058  56.865  1.00  0.00     0.057 A 
HETATM   15  O   UNL     1       6.235  27.578  56.491  1.00  0.00    -0.304 OA
HETATM   16  C   UNL     1       6.220  29.855  57.384  1.00  0.00     0.039 A 
HETATM   17  C   UNL     1       7.187  26.598  56.368  1.00  0.00     0.144 A 
HETATM   18  C   UNL     1       7.005  30.809  58.050  1.00  0.00     0.013 A 
BRANCH  17  19
HETATM   19  C   UNL     1       6.827  25.311  55.812  1.00  0.00     0.275 C 
HETATM   20  N   UNL     1       7.451  25.021  54.623  1.00  0.00    -0.353 N 
HETATM   21  H   UNL     1       8.029  25.741  54.204  1.00  0.00     0.162 HD
HETATM   22  O   UNL     1       6.006  24.563  56.334  1.00  0.00    -0.265 OA
BRANCH  20  23
HETATM   23  C   UNL     1       7.124  23.869  53.805  1.00  0.00     0.155 C 
BRANCH  23  24
HETATM   24  C   UNL     1       8.246  22.819  53.767  1.00  0.00     0.139 C 
HETATM   25  O   UNL     1       7.897  21.780  52.824  1.00  0.00    -0.384 OA
HETATM   26  C   UNL     1       8.106  20.514  53.458  1.00  0.00     0.168 C 
HETATM   27  C   UNL     1       7.942  20.762  54.939  1.00  0.00     0.029 C 
HETATM   28  C   UNL     1       8.544  22.136  55.097  1.00  0.00     0.035 C 
ENDBRANCH  23  24
ENDBRANCH  20  23
ENDBRANCH  17  19
ENDBRANCH   5  10
BRANCH   1  29
HETATM   29  C   UNL     1       6.918  31.248  62.977  1.00  0.00     0.273 C 
BRANCH  29  30
HETATM   30  C   UNL     1       6.358  32.378  63.797  1.00  0.00    -0.030 A 
HETATM   31  C   UNL     1       4.986  32.686  63.769  1.00  0.00     0.048 A 
HETATM   32  C   UNL     1       4.465  33.779  64.485  1.00  0.00     0.102 A 
HETATM   33  C   UNL     1       5.341  34.568  65.252  1.00  0.00     0.101 A 
HETATM   34  C   UNL     1       6.705  34.249  65.284  1.00  0.00     0.040 A 
HETATM   35  C   UNL     1       7.214  33.169  64.568  1.00  0.00     0.012 A 
BRANCH  32  36
HETATM   36  O   UNL     1       3.144  34.126  64.456  1.00  0.00    -0.353 OA
HETATM   37  C   UNL     1       2.439  34.079  63.224  1.00  0.00     0.210 C 
ENDBRANCH  32  36
BRANCH  33  38
HETATM   38  O   UNL     1       5.064  35.675  66.009  1.00  0.00    -0.353 OA
HETATM   39  C   UNL     1       4.984  35.553  67.420  1.00  0.00     0.210 C 
ENDBRANCH  33  38
ENDBRANCH  29  30
ENDBRANCH   1  29
TORSDOF 9
ENDMDL
MODEL 2
REMARK VINA RESULT:      -9.5      2.346     11.673
REMARK  9 active torsions:
REMARK  status: ('A' for Active; 'I' for Inactive)
REMARK    1  A    between atoms: O_2  and  C_3 
REMARK    2  A    between atoms: C_4  and  O_5 
REMARK    3  A    between atoms: C_8  and  C_9 
REMARK    4  A    between atoms: C_9  and  N_10 
REMARK    5  A    between atoms: C_14  and  O_15 
REMARK    6  A    between atoms: C_14  and  C_16 
REMARK    7  A    between atoms: C_21  and  C_22 
REMARK       I    between atoms: C_22  and  N_23 
REMARK    8  A    between atoms: N_23  and  C_24 
REMARK    9  A    between atoms: C_24  and  C_25 
ROOT
HETATM    1  N   UNL     1       6.263  25.240  51.935  1.00  0.00    -0.067 N 
HETATM    2  H   UNL     1       5.683  24.905  51.156  1.00  0.00     0.280 HD
HETATM    3  C   UNL     1       5.549  24.844  53.209  1.00  0.00     0.238 C 
HETATM    4  C   UNL     1       4.226  25.588  53.320  1.00  0.00     0.071 C 
HETATM    5  C   UNL     1       4.424  27.116  53.308  1.00  0.00     0.088 C 
HETATM    6  C   UNL     1       5.084  27.436  51.950  1.00  0.00     0.071 C 
HETATM    7  C   UNL     1       6.421  26.735  51.788  1.00  0.00     0.238 C 
ENDROOT
BRANCH   5   8
HETATM    8  O   UNL     1       3.122  27.701  53.277  1.00  0.00    -0.385 OA
HETATM    9  H   UNL     1       2.790  27.718  52.360  1.00  0.00     0.211 HD
ENDBRANCH   5   8
BRANCH   5  10
HETATM   10  C   UNL     1       5.172  27.669  54.531  1.00  0.00    -0.023 A 
HETATM   11  C   UNL     1       5.151  29.051  54.833  1.00  0.00     0.024 A 
HETATM   12  C   UNL     1       5.751  29.530  56.013  1.00  0.00     0.001 A 
HETATM   13  C   UNL     1       6.411  28.630  56.833  1.00  0.00     0.086 A 
HETATM   14  C   UNL     1       5.867  30.791  56.649  1.00  0.00     0.057 A 
HETATM   15  O   UNL     1       6.892  29.257  57.939  1.00  0.00    -0.304 OA
HETATM   16  C   UNL     1       6.549  27.279  56.541  1.00  0.00     0.039 A 
HETATM   17  C   UNL     1       6.549  30.581  57.834  1.00  0.00     0.144 A 
HETATM   18  C   UNL     1       5.925  26.821  55.370  1.00  0.00     0.013 A 
BRANCH  17  19
HETATM   19  C   UNL     1       6.887  31.498  58.902  1.00  0.00     0.275 C 
HETATM   20  N   UNL     1       5.878  31.688  59.816  1.00  0.00    -0.353 N 
HETATM   21  H   UNL     1       4.982  31.250  59.630  1.00  0.00     0.162 HD
HETATM   22  O   UNL     1       7.962  32.085  58.965  1.00  0.00    -0.265 OA
BRANCH  20  23
HETATM   23  C   UNL     1       5.929  32.680  60.872  1.00  0.00     0.155 C 
BRANCH  23  24
HETATM   24  C   UNL     1       6.119  32.064  62.268  1.00  0.00     0.139 C 
HETATM   25  O   UNL     1       5.692  33.014  63.271  1.00  0.00    -0.384 OA
HETATM   26  C   UNL     1       6.713  33.094  64.272  1.00  0.00     0.168 C 
HETATM   27  C   UNL     1       8.003  32.728  63.576  1.00  0.00     0.029 C 
HETATM   28  C   UNL     1       7.548  31.660  62.612  1.00  0.00     0.035 C 
ENDBRANCH  23  24
ENDBRANCH  20  23
ENDBRANCH  17  19
ENDBRANCH   5  10
BRANCH   1  29
HETATM   29  C   UNL     1       7.616  24.558  51.780  1.00  0.00     0.273 C 
BRANCH  29  30
HETATM   30  C   UNL     1       8.000  23.671  52.933  1.00  0.00    -0.030 A 
HETATM   31  C   UNL     1       8.401  24.215  54.166  1.00  0.00     0.048 A 
HETATM   32  C   UNL     1       8.819  23.393  55.228  1.00  0.00     0.102 A 
HETATM   33  C   UNL     1       8.821  21.998  55.048  1.00  0.00     0.101 A 
HETATM   34  C   UNL     1       8.409  21.463  53.820  1.00  0.00     0.040 A 
HETATM   35  C   UNL     1       8.002  22.284  52.772  1.00  0.00     0.012 A 
BRANCH  32  36
HETATM   36  O   UNL     1       9.246  23.887  56.428  1.00  0.00    -0.353 OA
HETATM   37  C   UNL     1       8.290  24.210  57.428  1.00  0.00     0.210 C 
ENDBRANCH  32  36
BRANCH  33  38
HETATM   38  O   UNL     1       9.197  21.017  55.926  1.00  0.00    -0.353 OA
HETATM   39  C   UNL     1       8.228  20.447  56.792  1.00  0.00     0.210 C 
ENDBRANCH  33  38
ENDBRANCH  29  30
ENDBRANCH   1  29
TORSDOF 9
ENDMDL
MODEL 3
REMARK VINA RESULT:      -9.4      1.844     11.932
REMARK  9 active torsions:
REMARK  status: ('A' for Active; 'I' for Inactive)
REMARK    1  A    between atoms: O_2  and  C_3 
REMARK    2  A    between atoms: C_4  and  O_5 
REMARK    3  A    between atoms: C_8  and  C_9 
REMARK    4  A    between atoms: C_9  and  N_10 
REMARK    5  A    between atoms: C_14  and  O_15 
REMARK    6  A    between atoms: C_14  and  C_16 
REMARK    7  A    between atoms: C_21  and  C_22 
REMARK       I    between atoms: C_22  and  N_23 
REMARK    8  A    between atoms: N_23  and  C_24 
REMARK    9  A    between atoms: C_24  and  C_25 
ROOT
HETATM    1  N   UNL     1       7.465  26.941  56.699  1.00  0.00    -0.067 N 
HETATM    2  H   UNL     1       7.144  26.653  55.767  1.00  0.00     0.280 HD
HETATM    3  C   UNL     1       6.249  27.454  57.439  1.00  0.00     0.238 C 
HETATM    4  C   UNL     1       5.723  28.715  56.769  1.00  0.00     0.071 C 
HETATM    5  C   UNL     1       6.789  29.827  56.720  1.00  0.00     0.088 C 
HETATM    6  C   UNL     1       7.952  29.247  55.888  1.00  0.00     0.071 C 
HETATM    7  C   UNL     1       8.534  27.994  56.518  1.00  0.00     0.238 C 
ENDROOT
BRANCH   5   8
HETATM    8  O   UNL     1       6.234  30.898  55.956  1.00  0.00    -0.385 OA
HETATM    9  H   UNL     1       6.944  31.505  55.677  1.00  0.00     0.211 HD
ENDBRANCH   5   8
BRANCH   5  10
HETATM   10  C   UNL     1       7.195  30.377  58.096  1.00  0.00    -0.023 A 
HETATM   11  C   UNL     1       6.338  31.245  58.814  1.00  0.00     0.024 A 
HETATM   12  C   UNL     1       6.676  31.657  60.117  1.00  0.00     0.001 A 
HETATM   13  C   UNL     1       7.886  31.246  60.650  1.00  0.00     0.086 A 
HETATM   14  C   UNL     1       6.056  32.441  61.122  1.00  0.00     0.057 A 
HETATM   15  O   UNL     1       8.027  31.703  61.923  1.00  0.00    -0.304 OA
HETATM   16  C   UNL     1       8.811  30.475  59.959  1.00  0.00     0.039 A 
HETATM   17  C   UNL     1       6.899  32.426  62.219  1.00  0.00     0.144 A 
HETATM   18  C   UNL     1       8.444  30.059  58.669  1.00  0.00     0.013 A 
BRANCH  17  19
HETATM   19  C   UNL     1       6.739  33.001  63.539  1.00  0.00     0.275 C 
HETATM   20  N   UNL     1       5.465  32.898  64.042  1.00  0.00    -0.353 N 
HETATM   21  H   UNL     1       4.746  32.516  63.437  1.00  0.00     0.162 HD
HETATM   22  O   UNL     1       7.649  33.565  64.137  1.00  0.00    -0.265 OA
BRANCH  20  23
HETATM   23  C   UNL     1       5.032  33.541  65.267  1.00  0.00     0.155 C 
BRANCH  23  24
HETATM   24  C   UNL     1       3.765  34.394  65.085  1.00  0.00     0.139 C 
HETATM   25  O   UNL     1       3.003  33.885  63.966  1.00  0.00    -0.384 OA
HETATM   26  C   UNL     1       2.651  34.990  63.128  1.00  0.00     0.168 C 
HETATM   27  C   UNL     1       3.718  36.036  63.353  1.00  0.00     0.029 C 
HETATM   28  C   UNL     1       4.010  35.876  64.824  1.00  0.00     0.035 C 
ENDBRANCH  23  24
ENDBRANCH  20  23
ENDBRANCH  17  19
ENDBRANCH   5  10
BRANCH   1  29
HETATM   29  C   UNL     1       8.067  25.698  57.342  1.00  0.00     0.273 C 
BRANCH  29  30
HETATM   30  C   UNL     1       8.003  24.464  56.484  1.00  0.00    -0.030 A 
HETATM   31  C   UNL     1       7.480  24.512  55.180  1.00  0.00     0.048 A 
HETATM   32  C   UNL     1       7.362  23.350  54.395  1.00  0.00     0.102 A 
HETATM   33  C   UNL     1       7.790  22.122  54.930  1.00  0.00     0.101 A 
HETATM   34  C   UNL     1       8.321  22.084  56.226  1.00  0.00     0.040 A 
HETATM   35  C   UNL     1       8.430  23.237  56.998  1.00  0.00     0.012 A 
BRANCH  32  36
HETATM   36  O   UNL     1       6.829  23.353  53.137  1.00  0.00    -0.353 OA
HETATM   37  C   UNL     1       6.053  24.465  52.712  1.00  0.00     0.210 C 
ENDBRANCH  32  36
BRANCH  33  38
HETATM   38  O   UNL     1       7.758  20.877  54.361  1.00  0.00    -0.353 OA
HETATM   39  C   UNL     1       8.756  20.514  53.420  1.00  0.00     0.210 C 
ENDBRANCH  33  38
ENDBRANCH  29  30
ENDBRANCH   1  29
TORSDOF 9
ENDMDL
MODEL 4
REMARK VINA RESULT:      -9.4      1.915     12.206
REMARK  9 active torsions:
REMARK  status: ('A' for Active; 'I' for Inactive)
REMARK    1  A    between atoms: O_2  and  C_3 
REMARK    2  A    between atoms: C_4  and  O_5 
REMARK    3  A    between atoms: C_8  and  C_9 
REMARK    4  A    between atoms: C_9  and  N_10 
REMARK    5  A    between atoms: C_14  and  O_15 
REMARK    6  A    between atoms: C_14  and  C_16 
REMARK    7  A    between atoms: C_21  and  C_22 
REMARK       I    between atoms: C_22  and  N_23 
REMARK    8  A    between atoms: N_23  and  C_24 
REMARK    9  A    between atoms: C_24  and  C_25 
ROOT
HETATM    1  N   UNL     1       6.082  26.648  56.090  1.00  0.00    -0.067 N 
HETATM    2  H   UNL     1       5.596  26.386  55.224  1.00  0.00     0.280 HD
HETATM    3  C   UNL     1       5.106  27.468  56.905  1.00  0.00     0.238 C 
HETATM    4  C   UNL     1       4.794  28.773  56.188  1.00  0.00     0.071 C 
HETATM    5  C   UNL     1       6.065  29.607  55.935  1.00  0.00     0.088 C 
HETATM    6  C   UNL     1       6.963  28.729  55.040  1.00  0.00     0.071 C 
HETATM    7  C   UNL     1       7.327  27.416  55.711  1.00  0.00     0.238 C 
ENDROOT
BRANCH   5   8
HETATM    8  O   UNL     1       5.672  30.729  55.144  1.00  0.00    -0.385 OA
HETATM    9  H   UNL     1       5.306  30.421  54.294  1.00  0.00     0.211 HD
ENDBRANCH   5   8
BRANCH   5  10
HETATM   10  C   UNL     1       6.744  30.132  57.210  1.00  0.00    -0.023 A 
HETATM   11  C   UNL     1       6.086  31.055  58.058  1.00  0.00     0.024 A 
HETATM   12  C   UNL     1       6.676  31.445  59.275  1.00  0.00     0.001 A 
HETATM   13  C   UNL     1       7.932  30.957  59.590  1.00  0.00     0.086 A 
HETATM   14  C   UNL     1       6.296  32.269  60.364  1.00  0.00     0.057 A 
HETATM   15  O   UNL     1       8.326  31.405  60.812  1.00  0.00    -0.304 OA
HETATM   16  C   UNL     1       8.668  30.126  58.755  1.00  0.00     0.039 A 
HETATM   17  C   UNL     1       7.318  32.200  61.294  1.00  0.00     0.144 A 
HETATM   18  C   UNL     1       8.052  29.733  57.557  1.00  0.00     0.013 A 
BRANCH  17  19
HETATM   19  C   UNL     1       7.432  32.785  62.613  1.00  0.00     0.275 C 
HETATM   20  N   UNL     1       6.392  33.620  62.947  1.00  0.00    -0.353 N 
HETATM   21  H   UNL     1       5.696  33.816  62.236  1.00  0.00     0.162 HD
HETATM   22  O   UNL     1       8.391  32.587  63.352  1.00  0.00    -0.265 OA
BRANCH  20  23
HETATM   23  C   UNL     1       6.374  34.439  64.143  1.00  0.00     0.155 C 
BRANCH  23  24
HETATM   24  C   UNL     1       5.962  33.658  65.402  1.00  0.00     0.139 C 
HETATM   25  O   UNL     1       4.522  33.683  65.530  1.00  0.00    -0.384 OA
HETATM   26  C   UNL     1       4.202  34.050  66.877  1.00  0.00     0.168 C 
HETATM   27  C   UNL     1       5.369  34.873  67.370  1.00  0.00     0.029 C 
HETATM   28  C   UNL     1       6.539  34.185  66.711  1.00  0.00     0.035 C 
ENDBRANCH  23  24
ENDBRANCH  20  23
ENDBRANCH  17  19
ENDBRANCH   5  10
BRANCH   1  29
HETATM   29  C   UNL     1       6.468  25.341  56.771  1.00  0.00     0.273 C 
BRANCH  29  30
HETATM   30  C   UNL     1       7.033  24.302  55.842  1.00  0.00    -0.030 A 
HETATM   31  C   UNL     1       7.976  23.360  56.292  1.00  0.00     0.048 A 
HETATM   32  C   UNL     1       8.554  22.424  55.414  1.00  0.00     0.102 A 
HETATM   33  C   UNL     1       8.166  22.430  54.062  1.00  0.00     0.101 A 
HETATM   34  C   UNL     1       7.217  23.364  53.624  1.00  0.00     0.040 A 
HETATM   35  C   UNL     1       6.654  24.290  54.498  1.00  0.00     0.012 A 
BRANCH  32  36
HETATM   36  O   UNL     1       9.496  21.517  55.809  1.00  0.00    -0.353 OA
HETATM   37  C   UNL     1       9.082  20.233  56.255  1.00  0.00     0.210 C 
ENDBRANCH  32  36
BRANCH  33  38
HETATM   38  O   UNL     1       8.600  21.633  53.039  1.00  0.00    -0.353 OA
HETATM   39  C   UNL     1       7.920  20.418  52.763  1.00  0.00     0.210 C 
ENDBRANCH  33  38
ENDBRANCH  29  30
ENDBRANCH   1  29
TORSDOF 9
ENDMDL
MODEL 5
REMARK VINA RESULT:      -9.4      4.623     12.387
REMARK  9 active torsions:
REMARK  status: ('A' for Active; 'I' for Inactive)
REMARK    1  A    between atoms: O_2  and  C_3 
REMARK    2  A    between atoms: C_4  and  O_5 
REMARK    3  A    between atoms: C_8  and  C_9 
REMARK    4  A    between atoms: C_9  and  N_10 
REMARK    5  A    between atoms: C_14  and  O_15 
REMARK    6  A    between atoms: C_14  and  C_16 
REMARK    7  A    between atoms: C_21  and  C_22 
REMARK       I    between atoms: C_22  and  N_23 
REMARK    8  A    between atoms: N_23  and  C_24 
REMARK    9  A    between atoms: C_24  and  C_25 
ROOT
HETATM    1  N   UNL     1       5.762  26.568  52.035  1.00  0.00    -0.067 N 
HETATM    2  H   UNL     1       5.543  25.915  51.272  1.00  0.00     0.280 HD
HETATM    3  C   UNL     1       7.236  26.408  52.336  1.00  0.00     0.238 C 
HETATM    4  C   UNL     1       7.508  25.015  52.886  1.00  0.00     0.071 C 
HETATM    5  C   UNL     1       6.699  24.735  54.167  1.00  0.00     0.088 C 
HETATM    6  C   UNL     1       5.217  24.845  53.751  1.00  0.00     0.071 C 
HETATM    7  C   UNL     1       4.877  26.222  53.211  1.00  0.00     0.238 C 
ENDROOT
BRANCH   5   8
HETATM    8  O   UNL     1       6.927  23.368  54.509  1.00  0.00    -0.385 OA
HETATM    9  H   UNL     1       6.093  22.867  54.440  1.00  0.00     0.211 HD
ENDBRANCH   5   8
BRANCH   5  10
HETATM   10  C   UNL     1       7.094  25.605  55.370  1.00  0.00    -0.023 A 
HETATM   11  C   UNL     1       7.552  26.932  55.189  1.00  0.00     0.024 A 
HETATM   12  C   UNL     1       7.810  27.752  56.305  1.00  0.00     0.001 A 
HETATM   13  C   UNL     1       7.665  27.213  57.572  1.00  0.00     0.086 A 
HETATM   14  C   UNL     1       8.206  29.099  56.499  1.00  0.00     0.057 A 
HETATM   15  O   UNL     1       7.916  28.153  58.521  1.00  0.00    -0.304 OA
HETATM   16  C   UNL     1       7.312  25.891  57.812  1.00  0.00     0.039 A 
HETATM   17  C   UNL     1       8.236  29.314  57.865  1.00  0.00     0.144 A 
HETATM   18  C   UNL     1       7.041  25.098  56.686  1.00  0.00     0.013 A 
BRANCH  17  19
HETATM   19  C   UNL     1       8.506  30.518  58.624  1.00  0.00     0.275 C 
HETATM   20  N   UNL     1       7.917  30.540  59.865  1.00  0.00    -0.353 N 
HETATM   21  H   UNL     1       7.296  29.776  60.108  1.00  0.00     0.162 HD
HETATM   22  O   UNL     1       9.167  31.452  58.183  1.00  0.00    -0.265 OA
BRANCH  20  23
HETATM   23  C   UNL     1       7.913  31.704  60.730  1.00  0.00     0.155 C 
BRANCH  23  24
HETATM   24  C   UNL     1       7.402  31.399  62.148  1.00  0.00     0.139 C 
HETATM   25  O   UNL     1       5.990  31.698  62.221  1.00  0.00    -0.384 OA
HETATM   26  C   UNL     1       5.762  32.485  63.395  1.00  0.00     0.168 C 
HETATM   27  C   UNL     1       7.059  33.211  63.664  1.00  0.00     0.029 C 
HETATM   28  C   UNL     1       8.085  32.178  63.267  1.00  0.00     0.035 C 
ENDBRANCH  23  24
ENDBRANCH  20  23
ENDBRANCH  17  19
ENDBRANCH   5  10
BRANCH   1  29
HETATM   29  C   UNL     1       5.412  27.957  51.515  1.00  0.00     0.273 C 
BRANCH  29  30
HETATM   30  C   UNL     1       4.530  27.959  50.297  1.00  0.00    -0.030 A 
HETATM   31  C   UNL     1       4.566  26.901  49.371  1.00  0.00     0.048 A 
HETATM   32  C   UNL     1       3.788  26.925  48.199  1.00  0.00     0.102 A 
HETATM   33  C   UNL     1       2.951  28.030  47.962  1.00  0.00     0.101 A 
HETATM   34  C   UNL     1       2.912  29.076  48.894  1.00  0.00     0.040 A 
HETATM   35  C   UNL     1       3.689  29.046  50.049  1.00  0.00     0.012 A 
BRANCH  32  36
HETATM   36  O   UNL     1       3.822  25.931  47.262  1.00  0.00    -0.353 OA
HETATM   37  C   UNL     1       2.935  24.828  47.386  1.00  0.00     0.210 C 
ENDBRANCH  32  36
BRANCH  33  38
HETATM   38  O   UNL     1       2.128  28.273  46.896  1.00  0.00    -0.353 OA
HETATM   39  C   UNL     1       0.747  27.960  46.995  1.00  0.00     0.210 C 
ENDBRANCH  33  38
ENDBRANCH  29  30
ENDBRANCH   1  29
TORSDOF 9
ENDMDL
MODEL 6
REMARK VINA RESULT:      -9.2      3.620      7.283
REMARK  9 active torsions:
REMARK  status: ('A' for Active; 'I' for Inactive)
REMARK    1  A    between atoms: O_2  and  C_3 
REMARK    2  A    between atoms: C_4  and  O_5 
REMARK    3  A    between atoms: C_8  and  C_9 
REMARK    4  A    between atoms: C_9  and  N_10 
REMARK    5  A    between atoms: C_14  and  O_15 
REMARK    6  A    between atoms: C_14  and  C_16 
REMARK    7  A    between atoms: C_21  and  C_22 
REMARK       I    between atoms: C_22  and  N_23 
REMARK    8  A    between atoms: N_23  and  C_24 
REMARK    9  A    between atoms: C_24  and  C_25 
ROOT
HETATM    1  N   UNL     1       2.721  35.359  62.873  1.00  0.00    -0.067 N 
HETATM    2  H   UNL     1       2.127  35.959  63.460  1.00  0.00     0.280 HD
HETATM    3  C   UNL     1       2.970  34.091  63.660  1.00  0.00     0.238 C 
HETATM    4  C   UNL     1       3.788  34.402  64.905  1.00  0.00     0.071 C 
HETATM    5  C   UNL     1       5.140  35.052  64.557  1.00  0.00     0.088 C 
HETATM    6  C   UNL     1       4.790  36.367  63.830  1.00  0.00     0.071 C 
HETATM    7  C   UNL     1       3.989  36.121  62.563  1.00  0.00     0.238 C 
ENDROOT
BRANCH   5   8
HETATM    8  O   UNL     1       5.752  35.420  65.794  1.00  0.00    -0.385 OA
HETATM    9  H   UNL     1       6.103  34.625  66.237  1.00  0.00     0.211 HD
ENDBRANCH   5   8
BRANCH   5  10
HETATM   10  C   UNL     1       6.109  34.135  63.795  1.00  0.00    -0.023 A 
HETATM   11  C   UNL     1       6.070  34.048  62.383  1.00  0.00     0.024 A 
HETATM   12  C   UNL     1       7.030  33.286  61.692  1.00  0.00     0.001 A 
HETATM   13  C   UNL     1       7.968  32.579  62.425  1.00  0.00     0.086 A 
HETATM   14  C   UNL     1       7.329  33.029  60.330  1.00  0.00     0.057 A 
HETATM   15  O   UNL     1       8.834  31.936  61.597  1.00  0.00    -0.304 OA
HETATM   16  C   UNL     1       7.998  32.547  63.813  1.00  0.00     0.039 A 
HETATM   17  C   UNL     1       8.451  32.221  60.311  1.00  0.00     0.144 A 
HETATM   18  C   UNL     1       7.043  33.330  64.480  1.00  0.00     0.013 A 
BRANCH  17  19
HETATM   19  C   UNL     1       9.226  31.710  59.200  1.00  0.00     0.275 C 
HETATM   20  N   UNL     1       8.869  30.443  58.806  1.00  0.00    -0.353 N 
HETATM   21  H   UNL     1       8.173  29.953  59.358  1.00  0.00     0.162 HD
HETATM   22  O   UNL     1      10.145  32.335  58.682  1.00  0.00    -0.265 OA
BRANCH  20  23
HETATM   23  C   UNL     1       9.609  29.669  57.828  1.00  0.00     0.155 C 
BRANCH  23  24
HETATM   24  C   UNL     1       8.768  28.559  57.176  1.00  0.00     0.139 C 
HETATM   25  O   UNL     1       8.524  28.895  55.791  1.00  0.00    -0.384 OA
HETATM   26  C   UNL     1       7.127  28.719  55.530  1.00  0.00     0.168 C 
HETATM   27  C   UNL     1       6.430  28.921  56.855  1.00  0.00     0.029 C 
HETATM   28  C   UNL     1       7.410  28.307  57.823  1.00  0.00     0.035 C 
ENDBRANCH  23  24
ENDBRANCH  20  23
ENDBRANCH  17  19
ENDBRANCH   5  10
BRANCH   1  29
HETATM   29  C   UNL     1       1.938  35.114  61.590  1.00  0.00     0.273 C 
BRANCH  29  30
HETATM   30  C   UNL     1       2.783  34.691  60.419  1.00  0.00    -0.030 A 
HETATM   31  C   UNL     1       3.106  33.338  60.208  1.00  0.00     0.048 A 
HETATM   32  C   UNL     1       3.945  32.942  59.151  1.00  0.00     0.102 A 
HETATM   33  C   UNL     1       4.458  33.925  58.285  1.00  0.00     0.101 A 
HETATM   34  C   UNL     1       4.122  35.269  58.495  1.00  0.00     0.040 A 
HETATM   35  C   UNL     1       3.295  35.654  59.547  1.00  0.00     0.012 A 
BRANCH  32  36
HETATM   36  O   UNL     1       4.306  31.642  58.934  1.00  0.00    -0.353 OA
HETATM   37  C   UNL     1       3.525  30.839  58.061  1.00  0.00     0.210 C 
ENDBRANCH  32  36
BRANCH  33  38
HETATM   38  O   UNL     1       5.294  33.775  57.212  1.00  0.00    -0.353 OA
HETATM   39  C   UNL     1       4.834  34.121  55.915  1.00  0.00     0.210 C 
ENDBRANCH  33  38
ENDBRANCH  29  30
ENDBRANCH   1  29
TORSDOF 9
ENDMDL
MODEL 7
REMARK VINA RESULT:      -9.0      4.723      7.410
REMARK  9 active torsions:
REMARK  status: ('A' for Active; 'I' for Inactive)
REMARK    1  A    between atoms: O_2  and  C_3 
REMARK    2  A    between atoms: C_4  and  O_5 
REMARK    3  A    between atoms: C_8  and  C_9 
REMARK    4  A    between atoms: C_9  and  N_10 
REMARK    5  A    between atoms: C_14  and  O_15 
REMARK    6  A    between atoms: C_14  and  C_16 
REMARK    7  A    between atoms: C_21  and  C_22 
REMARK       I    between atoms: C_22  and  N_23 
REMARK    8  A    between atoms: N_23  and  C_24 
REMARK    9  A    between atoms: C_24  and  C_25 
ROOT
HETATM    1  N   UNL     1       7.025  28.196  57.473  1.00  0.00    -0.067 N 
HETATM    2  H   UNL     1       7.158  28.121  58.489  1.00  0.00     0.280 HD
HETATM    3  C   UNL     1       5.786  27.395  57.137  1.00  0.00     0.238 C 
HETATM    4  C   UNL     1       6.026  25.919  57.421  1.00  0.00     0.071 C 
HETATM    5  C   UNL     1       7.217  25.366  56.616  1.00  0.00     0.088 C 
HETATM    6  C   UNL     1       8.441  26.184  57.076  1.00  0.00     0.071 C 
HETATM    7  C   UNL     1       8.270  27.668  56.800  1.00  0.00     0.238 C 
ENDROOT
BRANCH   5   8
HETATM    8  O   UNL     1       7.430  24.026  57.062  1.00  0.00    -0.385 OA
HETATM    9  H   UNL     1       6.960  23.881  57.904  1.00  0.00     0.211 HD
ENDBRANCH   5   8
BRANCH   5  10
HETATM   10  C   UNL     1       6.997  25.337  55.096  1.00  0.00    -0.023 A 
HETATM   11  C   UNL     1       5.870  25.962  54.512  1.00  0.00     0.024 A 
HETATM   12  C   UNL     1       5.736  26.019  53.111  1.00  0.00     0.001 A 
HETATM   13  C   UNL     1       6.695  25.400  52.327  1.00  0.00     0.086 A 
HETATM   14  C   UNL     1       4.808  26.594  52.207  1.00  0.00     0.057 A 
HETATM   15  O   UNL     1       6.427  25.589  51.008  1.00  0.00    -0.304 OA
HETATM   16  C   UNL     1       7.771  24.689  52.843  1.00  0.00     0.039 A 
HETATM   17  C   UNL     1       5.277  26.332  50.932  1.00  0.00     0.144 A 
HETATM   18  C   UNL     1       7.895  24.663  54.241  1.00  0.00     0.013 A 
BRANCH  17  19
HETATM   19  C   UNL     1       4.768  26.738  49.639  1.00  0.00     0.275 C 
HETATM   20  N   UNL     1       3.708  25.986  49.194  1.00  0.00    -0.353 N 
HETATM   21  H   UNL     1       3.431  25.184  49.749  1.00  0.00     0.162 HD
HETATM   22  O   UNL     1       5.263  27.647  48.980  1.00  0.00    -0.265 OA
BRANCH  20  23
HETATM   23  C   UNL     1       3.143  26.103  47.864  1.00  0.00     0.155 C 
BRANCH  23  24
HETATM   24  C   UNL     1       1.685  26.591  47.869  1.00  0.00     0.139 C 
HETATM   25  O   UNL     1       1.207  26.684  46.507  1.00  0.00    -0.384 OA
HETATM   26  C   UNL     1       0.577  27.958  46.343  1.00  0.00     0.168 C 
HETATM   27  C   UNL     1       1.231  28.876  47.348  1.00  0.00     0.029 C 
HETATM   28  C   UNL     1       1.456  27.951  48.518  1.00  0.00     0.035 C 
ENDBRANCH  23  24
ENDBRANCH  20  23
ENDBRANCH  17  19
ENDBRANCH   5  10
BRANCH   1  29
HETATM   29  C   UNL     1       6.866  29.681  57.176  1.00  0.00     0.273 C 
BRANCH  29  30
HETATM   30  C   UNL     1       7.091  30.579  58.362  1.00  0.00    -0.030 A 
HETATM   31  C   UNL     1       8.190  30.390  59.219  1.00  0.00     0.048 A 
HETATM   32  C   UNL     1       8.372  31.187  60.364  1.00  0.00     0.102 A 
HETATM   33  C   UNL     1       7.436  32.200  60.643  1.00  0.00     0.101 A 
HETATM   34  C   UNL     1       6.350  32.389  59.778  1.00  0.00     0.040 A 
HETATM   35  C   UNL     1       6.174  31.593  58.650  1.00  0.00     0.012 A 
BRANCH  32  36
HETATM   36  O   UNL     1       9.409  31.011  61.236  1.00  0.00    -0.353 OA
HETATM   37  C   UNL     1       9.217  30.210  62.394  1.00  0.00     0.210 C 
ENDBRANCH  32  36
BRANCH  33  38
HETATM   38  O   UNL     1       7.404  33.075  61.694  1.00  0.00    -0.353 OA
HETATM   39  C   UNL     1       6.181  33.300  62.378  1.00  0.00     0.210 C 
ENDBRANCH  33  38
ENDBRANCH  29  30
ENDBRANCH   1  29
TORSDOF 9
ENDMDL
MODEL 8
REMARK VINA RESULT:      -8.9      4.472     12.553
REMARK  9 active torsions:
REMARK  status: ('A' for Active; 'I' for Inactive)
REMARK    1  A    between atoms: O_2  and  C_3 
REMARK    2  A    between atoms: C_4  and  O_5 
REMARK    3  A    between atoms: C_8  and  C_9 
REMARK    4  A    between atoms: C_9  and  N_10 
REMARK    5  A    between atoms: C_14  and  O_15 
REMARK    6  A    between atoms: C_14  and  C_16 
REMARK    7  A    between atoms: C_21  and  C_22 
REMARK       I    between atoms: C_22  and  N_23 
REMARK    8  A    between atoms: N_23  and  C_24 
REMARK    9  A    between atoms: C_24  and  C_25 
ROOT
HETATM    1  N   UNL     1       5.879  26.691  52.503  1.00  0.00    -0.067 N 
HETATM    2  H   UNL     1       5.459  25.897  52.005  1.00  0.00     0.280 HD
HETATM    3  C   UNL     1       7.242  26.236  52.977  1.00  0.00     0.238 C 
HETATM    4  C   UNL     1       7.093  25.127  54.008  1.00  0.00     0.071 C 
HETATM    5  C   UNL     1       6.262  25.580  55.224  1.00  0.00     0.088 C 
HETATM    6  C   UNL     1       4.874  25.950  54.660  1.00  0.00     0.071 C 
HETATM    7  C   UNL     1       4.955  27.070  53.638  1.00  0.00     0.238 C 
ENDROOT
BRANCH   5   8
HETATM    8  O   UNL     1       6.075  24.429  56.048  1.00  0.00    -0.385 OA
HETATM    9  H   UNL     1       5.890  23.651  55.490  1.00  0.00     0.211 HD
ENDBRANCH   5   8
BRANCH   5  10
HETATM   10  C   UNL     1       6.924  26.677  56.072  1.00  0.00    -0.023 A 
HETATM   11  C   UNL     1       6.212  27.845  56.435  1.00  0.00     0.024 A 
HETATM   12  C   UNL     1       6.795  28.792  57.299  1.00  0.00     0.001 A 
HETATM   13  C   UNL     1       8.094  28.584  57.731  1.00  0.00     0.086 A 
HETATM   14  C   UNL     1       6.374  30.001  57.906  1.00  0.00     0.057 A 
HETATM   15  O   UNL     1       8.477  29.571  58.583  1.00  0.00    -0.304 OA
HETATM   16  C   UNL     1       8.877  27.508  57.332  1.00  0.00     0.039 A 
HETATM   17  C   UNL     1       7.419  30.435  58.702  1.00  0.00     0.144 A 
HETATM   18  C   UNL     1       8.268  26.567  56.487  1.00  0.00     0.013 A 
BRANCH  17  19
HETATM   19  C   UNL     1       7.514  31.571  59.594  1.00  0.00     0.275 C 
HETATM   20  N   UNL     1       6.608  31.549  60.627  1.00  0.00    -0.353 N 
HETATM   21  H   UNL     1       5.917  30.807  60.634  1.00  0.00     0.162 HD
HETATM   22  O   UNL     1       8.305  32.493  59.421  1.00  0.00    -0.265 OA
BRANCH  20  23
HETATM   23  C   UNL     1       6.410  32.654  61.544  1.00  0.00     0.155 C 
BRANCH  23  24
HETATM   24  C   UNL     1       6.508  32.237  63.021  1.00  0.00     0.139 C 
HETATM   25  O   UNL     1       5.452  32.879  63.770  1.00  0.00    -0.384 OA
HETATM   26  C   UNL     1       6.030  33.466  64.941  1.00  0.00     0.168 C 
HETATM   27  C   UNL     1       7.470  33.759  64.588  1.00  0.00     0.029 C 
HETATM   28  C   UNL     1       7.823  32.585  63.709  1.00  0.00     0.035 C 
ENDBRANCH  23  24
ENDBRANCH  20  23
ENDBRANCH  17  19
ENDBRANCH   5  10
BRANCH   1  29
HETATM   29  C   UNL     1       5.954  27.831  51.495  1.00  0.00     0.273 C 
BRANCH  29  30
HETATM   30  C   UNL     1       5.240  27.560  50.199  1.00  0.00    -0.030 A 
HETATM   31  C   UNL     1       5.094  28.565  49.226  1.00  0.00     0.048 A 
HETATM   32  C   UNL     1       4.374  28.336  48.038  1.00  0.00     0.102 A 
HETATM   33  C   UNL     1       3.803  27.069  47.823  1.00  0.00     0.101 A 
HETATM   34  C   UNL     1       3.963  26.070  48.792  1.00  0.00     0.040 A 
HETATM   35  C   UNL     1       4.672  26.305  49.967  1.00  0.00     0.012 A 
BRANCH  32  36
HETATM   36  O   UNL     1       4.185  29.298  47.087  1.00  0.00    -0.353 OA
HETATM   37  C   UNL     1       3.369  30.422  47.386  1.00  0.00     0.210 C 
ENDBRANCH  32  36
BRANCH  33  38
HETATM   38  O   UNL     1       3.059  26.630  46.762  1.00  0.00    -0.353 OA
HETATM   39  C   UNL     1       1.643  26.700  46.826  1.00  0.00     0.210 C 
ENDBRANCH  33  38
ENDBRANCH  29  30
ENDBRANCH   1  29
TORSDOF 9
ENDMDL
MODEL 9
REMARK VINA RESULT:      -8.9      4.342      7.165
REMARK  9 active torsions:
REMARK  status: ('A' for Active; 'I' for Inactive)
REMARK    1  A    between atoms: O_2  and  C_3 
REMARK    2  A    between atoms: C_4  and  O_5 
REMARK    3  A    between atoms: C_8  and  C_9 
REMARK    4  A    between atoms: C_9  and  N_10 
REMARK    5  A    between atoms: C_14  and  O_15 
REMARK    6  A    between atoms: C_14  and  C_16 
REMARK    7  A    between atoms: C_21  and  C_22 
REMARK       I    between atoms: C_22  and  N_23 
REMARK    8  A    between atoms: N_23  and  C_24 
REMARK    9  A    between atoms: C_24  and  C_25 
ROOT
HETATM    1  N   UNL     1       7.158  27.889  57.486  1.00  0.00    -0.067 N 
HETATM    2  H   UNL     1       7.245  27.797  58.506  1.00  0.00     0.280 HD
HETATM    3  C   UNL     1       5.867  27.203  57.096  1.00  0.00     0.238 C 
HETATM    4  C   UNL     1       5.964  25.710  57.376  1.00  0.00     0.071 C 
HETATM    5  C   UNL     1       7.132  25.057  56.612  1.00  0.00     0.088 C 
HETATM    6  C   UNL     1       8.405  25.761  57.125  1.00  0.00     0.071 C 
HETATM    7  C   UNL     1       8.377  27.256  56.856  1.00  0.00     0.238 C 
ENDROOT
BRANCH   5   8
HETATM    8  O   UNL     1       7.208  23.702  57.054  1.00  0.00    -0.385 OA
HETATM    9  H   UNL     1       8.081  23.535  57.456  1.00  0.00     0.211 HD
ENDBRANCH   5   8
BRANCH   5  10
HETATM   10  C   UNL     1       6.969  25.057  55.084  1.00  0.00    -0.023 A 
HETATM   11  C   UNL     1       5.781  25.530  54.479  1.00  0.00     0.024 A 
HETATM   12  C   UNL     1       5.686  25.622  53.077  1.00  0.00     0.001 A 
HETATM   13  C   UNL     1       6.752  25.183  52.310  1.00  0.00     0.086 A 
HETATM   14  C   UNL     1       4.714  26.089  52.157  1.00  0.00     0.057 A 
HETATM   15  O   UNL     1       6.503  25.383  50.989  1.00  0.00    -0.304 OA
HETATM   16  C   UNL     1       7.905  24.620  52.842  1.00  0.00     0.039 A 
HETATM   17  C   UNL     1       5.258  25.950  50.893  1.00  0.00     0.144 A 
HETATM   18  C   UNL     1       7.986  24.557  54.242  1.00  0.00     0.013 A 
BRANCH  17  19
HETATM   19  C   UNL     1       4.737  26.327  49.596  1.00  0.00     0.275 C 
HETATM   20  N   UNL     1       5.278  27.485  49.092  1.00  0.00    -0.353 N 
HETATM   21  H   UNL     1       5.914  28.007  49.683  1.00  0.00     0.162 HD
HETATM   22  O   UNL     1       3.861  25.692  49.018  1.00  0.00    -0.265 OA
BRANCH  20  23
HETATM   23  C   UNL     1       4.794  28.139  47.892  1.00  0.00     0.155 C 
BRANCH  23  24
HETATM   24  C   UNL     1       3.659  29.140  48.167  1.00  0.00     0.139 C 
HETATM   25  O   UNL     1       3.623  29.444  49.580  1.00  0.00    -0.384 OA
HETATM   26  C   UNL     1       2.268  29.325  50.027  1.00  0.00     0.168 C 
HETATM   27  C   UNL     1       1.611  28.335  49.093  1.00  0.00     0.029 C 
HETATM   28  C   UNL     1       2.264  28.666  47.774  1.00  0.00     0.035 C 
ENDBRANCH  23  24
ENDBRANCH  20  23
ENDBRANCH  17  19
ENDBRANCH   5  10
BRANCH   1  29
HETATM   29  C   UNL     1       7.144  29.384  57.196  1.00  0.00     0.273 C 
BRANCH  29  30
HETATM   30  C   UNL     1       7.274  30.254  58.417  1.00  0.00    -0.030 A 
HETATM   31  C   UNL     1       6.339  31.269  58.689  1.00  0.00     0.048 A 
HETATM   32  C   UNL     1       6.489  32.125  59.796  1.00  0.00     0.102 A 
HETATM   33  C   UNL     1       7.592  31.947  60.649  1.00  0.00     0.101 A 
HETATM   34  C   UNL     1       8.513  30.926  60.378  1.00  0.00     0.040 A 
HETATM   35  C   UNL     1       8.361  30.086  59.278  1.00  0.00     0.012 A 
BRANCH  32  36
HETATM   36  O   UNL     1       5.619  33.142  60.072  1.00  0.00    -0.353 OA
HETATM   37  C   UNL     1       4.465  32.876  60.857  1.00  0.00     0.210 C 
ENDBRANCH  32  36
BRANCH  33  38
HETATM   38  O   UNL     1       7.943  32.661  61.762  1.00  0.00    -0.353 OA
HETATM   39  C   UNL     1       8.014  32.005  63.019  1.00  0.00     0.210 C 
ENDBRANCH  33  38
ENDBRANCH  29  30
ENDBRANCH   1  29
TORSDOF 9
ENDMDL
MODEL 10
REMARK VINA RESULT:      -8.8      3.021      6.377
REMARK  9 active torsions:
REMARK  status: ('A' for Active; 'I' for Inactive)
REMARK    1  A    between atoms: O_2  and  C_3 
REMARK    2  A    between atoms: C_4  and  O_5 
REMARK    3  A    between atoms: C_8  and  C_9 
REMARK    4  A    between atoms: C_9  and  N_10 
REMARK    5  A    between atoms: C_14  and  O_15 
REMARK    6  A    between atoms: C_14  and  C_16 
REMARK    7  A    between atoms: C_21  and  C_22 
REMARK       I    between atoms: C_22  and  N_23 
REMARK    8  A    between atoms: N_23  and  C_24 
REMARK    9  A    between atoms: C_24  and  C_25 
ROOT
HETATM    1  N   UNL     1       3.425  35.030  62.424  1.00  0.00    -0.067 N 
HETATM    2  H   UNL     1       3.030  35.790  62.992  1.00  0.00     0.280 HD
HETATM    3  C   UNL     1       3.649  33.860  63.358  1.00  0.00     0.238 C 
HETATM    4  C   UNL     1       4.713  34.211  64.388  1.00  0.00     0.071 C 
HETATM    5  C   UNL     1       6.051  34.589  63.725  1.00  0.00     0.088 C 
HETATM    6  C   UNL     1       5.746  35.827  62.857  1.00  0.00     0.071 C 
HETATM    7  C   UNL     1       4.702  35.535  61.794  1.00  0.00     0.238 C 
ENDROOT
BRANCH   5   8
HETATM    8  O   UNL     1       6.921  35.026  64.769  1.00  0.00    -0.385 OA
HETATM    9  H   UNL     1       6.767  35.972  64.952  1.00  0.00     0.211 HD
ENDBRANCH   5   8
BRANCH   5  10
HETATM   10  C   UNL     1       6.738  33.435  62.978  1.00  0.00    -0.023 A 
HETATM   11  C   UNL     1       6.420  33.149  61.629  1.00  0.00     0.024 A 
HETATM   12  C   UNL     1       7.131  32.158  60.926  1.00  0.00     0.001 A 
HETATM   13  C   UNL     1       8.099  31.433  61.600  1.00  0.00     0.086 A 
HETATM   14  C   UNL     1       7.130  31.663  59.598  1.00  0.00     0.057 A 
HETATM   15  O   UNL     1       8.707  30.553  60.761  1.00  0.00    -0.304 OA
HETATM   16  C   UNL     1       8.389  31.601  62.948  1.00  0.00     0.039 A 
HETATM   17  C   UNL     1       8.122  30.702  59.529  1.00  0.00     0.144 A 
HETATM   18  C   UNL     1       7.682  32.608  63.623  1.00  0.00     0.013 A 
BRANCH  17  19
HETATM   19  C   UNL     1       8.602  29.923  58.406  1.00  0.00     0.275 C 
HETATM   20  N   UNL     1       7.834  28.820  58.122  1.00  0.00    -0.353 N 
HETATM   21  H   UNL     1       7.067  28.602  58.749  1.00  0.00     0.162 HD
HETATM   22  O   UNL     1       9.626  30.199  57.790  1.00  0.00    -0.265 OA
BRANCH  20  23
HETATM   23  C   UNL     1       8.209  27.810  57.152  1.00  0.00     0.155 C 
BRANCH  23  24
HETATM   24  C   UNL     1       7.527  26.454  57.399  1.00  0.00     0.139 C 
HETATM   25  O   UNL     1       8.497  25.521  57.928  1.00  0.00    -0.384 OA
HETATM   26  C   UNL     1       8.392  24.302  57.186  1.00  0.00     0.168 C 
HETATM   27  C   UNL     1       7.862  24.690  55.826  1.00  0.00     0.029 C 
HETATM   28  C   UNL     1       6.905  25.805  56.168  1.00  0.00     0.035 C 
ENDBRANCH  23  24
ENDBRANCH  20  23
ENDBRANCH  17  19
ENDBRANCH   5  10
BRANCH   1  29
HETATM   29  C   UNL     1       2.396  34.732  61.341  1.00  0.00     0.273 C 
BRANCH  29  30
HETATM   30  C   UNL     1       2.914  33.889  60.209  1.00  0.00    -0.030 A 
HETATM   31  C   UNL     1       3.171  34.448  58.944  1.00  0.00     0.048 A 
HETATM   32  C   UNL     1       3.597  33.653  57.864  1.00  0.00     0.102 A 
HETATM   33  C   UNL     1       3.779  32.273  58.066  1.00  0.00     0.101 A 
HETATM   34  C   UNL     1       3.531  31.725  59.332  1.00  0.00     0.040 A 
HETATM   35  C   UNL     1       3.104  32.517  60.394  1.00  0.00     0.012 A 
BRANCH  32  36
HETATM   36  O   UNL     1       3.826  34.156  56.615  1.00  0.00    -0.353 OA
HETATM   37  C   UNL     1       2.740  34.287  55.708  1.00  0.00     0.210 C 
ENDBRANCH  32  36
BRANCH  33  38
HETATM   38  O   UNL     1       4.168  31.316  57.169  1.00  0.00    -0.353 OA
HETATM   39  C   UNL     1       3.183  30.542  56.502  1.00  0.00     0.210 C 
ENDBRANCH  33  38
ENDBRANCH  29  30
ENDBRANCH   1  29
TORSDOF 9
ENDMDL
