MODEL 1
REMARK VINA RESULT:     -10.0      0.000      0.000
REMARK  4 active torsions:
REMARK  status: ('A' for Active; 'I' for Inactive)
REMARK    1  A    between atoms: C_4  and  C_5 
REMARK    2  A    between atoms: C_9  and  C_10 
REMARK       I    between atoms: C_10  and  N_11 
REMARK    3  A    between atoms: C_17  and  O_18 
REMARK    4  A    between atoms: C_25  and  O_26 
ROOT
HETATM    1  C   UNL     1       7.426  26.712  55.523  1.00  0.00     0.065 A 
HETATM    2  N   UNL     1       6.702  27.774  55.049  1.00  0.00    -0.277 N 
HETATM    3  H   UNL     1       6.123  27.806  54.216  1.00  0.00     0.189 HD
HETATM    4  N   UNL     1       6.771  28.872  55.815  1.00  0.00    -0.169 NA
HETATM    5  C   UNL     1       7.597  28.534  56.824  1.00  0.00     0.149 A 
HETATM    6  C   UNL     1       8.025  27.184  56.674  1.00  0.00     0.071 A 
ENDROOT
BRANCH   5   7
HETATM    7  C   UNL     1       7.969  29.437  57.932  1.00  0.00     0.299 C 
HETATM    8  N   UNL     1       7.068  30.451  58.134  1.00  0.00    -0.183 NA
HETATM    9  C   UNL     1       7.057  31.006  59.290  1.00  0.00     0.175 A 
HETATM   10  S   UNL     1       5.897  32.344  59.568  1.00  0.00    -0.050 SA
HETATM   11  N   UNL     1       7.808  30.786  60.422  1.00  0.00    -0.334 N 
HETATM   12  C   UNL     1       6.571  32.623  61.194  1.00  0.00     0.037 A 
HETATM   13  C   UNL     1       7.603  31.710  61.448  1.00  0.00     0.051 A 
HETATM   14  C   UNL     1       6.194  33.574  62.126  1.00  0.00     0.058 A 
HETATM   15  C   UNL     1       8.243  31.715  62.675  1.00  0.00     0.034 A 
HETATM   16  C   UNL     1       7.870  32.671  63.630  1.00  0.00     0.039 A 
HETATM   17  C   UNL     1       6.852  33.601  63.359  1.00  0.00     0.069 A 
HETATM   18  H   UNL     1       8.654  30.234  60.358  1.00  0.00     0.168 HD
HETATM   19  O   UNL     1       8.996  29.266  58.588  1.00  0.00    -0.263 OA
BRANCH  17  20
HETATM   20  O   UNL     1       6.409  34.573  64.215  1.00  0.00    -0.356 OA
HETATM   21  C   UNL     1       6.056  34.164  65.532  1.00  0.00     0.210 C 
ENDBRANCH  17  20
ENDBRANCH   5   7
BRANCH   1  22
HETATM   22  C   UNL     1       7.479  25.415  54.856  1.00  0.00     0.026 A 
HETATM   23  C   UNL     1       7.643  24.251  55.626  1.00  0.00     0.023 A 
HETATM   24  C   UNL     1       7.696  22.983  55.027  1.00  0.00    -0.061 A 
HETATM   25  C   UNL     1       7.840  21.747  55.866  1.00  0.00     0.048 C 
HETATM   26  C   UNL     1       7.546  22.877  53.641  1.00  0.00     0.009 A 
HETATM   27  C   UNL     1       7.380  24.022  52.863  1.00  0.00     0.038 A 
HETATM   28  C   UNL     1       7.357  25.278  53.464  1.00  0.00     0.078 A 
BRANCH  28  29
HETATM   29  O   UNL     1       7.235  26.343  52.614  1.00  0.00    -0.360 OA
HETATM   30  H   UNL     1       8.110  26.542  52.243  1.00  0.00     0.217 HD
ENDBRANCH  28  29
ENDBRANCH   1  22
TORSDOF 4
ENDMDL
MODEL 2
REMARK VINA RESULT:      -9.7      7.870     11.500
REMARK  4 active torsions:
REMARK  status: ('A' for Active; 'I' for Inactive)
REMARK    1  A    between atoms: C_4  and  C_5 
REMARK    2  A    between atoms: C_9  and  C_10 
REMARK       I    between atoms: C_10  and  N_11 
REMARK    3  A    between atoms: C_17  and  O_18 
REMARK    4  A    between atoms: C_25  and  O_26 
ROOT
HETATM    1  C   UNL     1       7.190  25.063  53.227  1.00  0.00     0.065 A 
HETATM    2  N   UNL     1       7.407  26.336  53.684  1.00  0.00    -0.277 N 
HETATM    3  H   UNL     1       7.966  26.622  54.482  1.00  0.00     0.189 HD
HETATM    4  N   UNL     1       6.815  27.291  52.951  1.00  0.00    -0.169 NA
HETATM    5  C   UNL     1       6.157  26.621  51.985  1.00  0.00     0.149 A 
HETATM    6  C   UNL     1       6.372  25.220  52.127  1.00  0.00     0.071 A 
ENDROOT
BRANCH   5   7
HETATM    7  C   UNL     1       5.356  27.265  50.923  1.00  0.00     0.299 C 
HETATM    8  N   UNL     1       4.882  26.381  49.988  1.00  0.00    -0.183 NA
HETATM    9  C   UNL     1       3.860  26.744  49.303  1.00  0.00     0.175 A 
HETATM   10  S   UNL     1       3.234  25.609  48.064  1.00  0.00    -0.050 SA
HETATM   11  N   UNL     1       3.111  27.898  49.310  1.00  0.00    -0.334 N 
HETATM   12  C   UNL     1       2.038  26.816  47.528  1.00  0.00     0.037 A 
HETATM   13  C   UNL     1       2.155  27.982  48.296  1.00  0.00     0.051 A 
HETATM   14  C   UNL     1       1.101  26.702  46.515  1.00  0.00     0.058 A 
HETATM   15  C   UNL     1       1.291  29.041  48.081  1.00  0.00     0.034 A 
HETATM   16  C   UNL     1       0.335  28.939  47.060  1.00  0.00     0.039 A 
HETATM   17  C   UNL     1       0.240  27.777  46.275  1.00  0.00     0.069 A 
HETATM   18  H   UNL     1       3.469  28.721  49.778  1.00  0.00     0.168 HD
HETATM   19  O   UNL     1       5.156  28.480  50.911  1.00  0.00    -0.263 OA
BRANCH  17  20
HETATM   20  O   UNL     1      -0.652  27.571  45.258  1.00  0.00    -0.356 OA
HETATM   21  C   UNL     1      -1.156  28.725  44.595  1.00  0.00     0.210 C 
ENDBRANCH  17  20
ENDBRANCH   5   7
BRANCH   1  22
HETATM   22  C   UNL     1       7.753  23.876  53.864  1.00  0.00     0.026 A 
HETATM   23  C   UNL     1       7.876  22.689  53.121  1.00  0.00     0.023 A 
HETATM   24  C   UNL     1       8.415  21.526  53.692  1.00  0.00    -0.061 A 
HETATM   25  C   UNL     1       8.569  20.276  52.876  1.00  0.00     0.048 C 
HETATM   26  C   UNL     1       8.869  21.562  55.014  1.00  0.00     0.009 A 
HETATM   27  C   UNL     1       8.756  22.732  55.764  1.00  0.00     0.038 A 
HETATM   28  C   UNL     1       8.195  23.874  55.196  1.00  0.00     0.078 A 
BRANCH  28  29
HETATM   29  O   UNL     1       8.086  24.958  56.025  1.00  0.00    -0.360 OA
HETATM   30  H   UNL     1       8.892  25.493  55.938  1.00  0.00     0.217 HD
ENDBRANCH  28  29
ENDBRANCH   1  22
TORSDOF 4
ENDMDL
MODEL 3
REMARK VINA RESULT:      -9.3      3.456      4.587
REMARK  4 active torsions:
REMARK  status: ('A' for Active; 'I' for Inactive)
REMARK    1  A    between atoms: C_4  and  C_5 
REMARK    2  A    between atoms: C_9  and  C_10 
REMARK       I    between atoms: C_10  and  N_11 
REMARK    3  A    between atoms: C_17  and  O_18 
REMARK    4  A    between atoms: C_25  and  O_26 
ROOT
HETATM    1  C   UNL     1       8.132  23.868  56.767  1.00  0.00     0.065 A 
HETATM    2  N   UNL     1       8.541  24.078  58.057  1.00  0.00    -0.277 N 
HETATM    3  H   UNL     1       8.916  23.394  58.707  1.00  0.00     0.189 HD
HETATM    4  N   UNL     1       8.442  25.351  58.464  1.00  0.00    -0.169 NA
HETATM    5  C   UNL     1       7.920  26.008  57.410  1.00  0.00     0.149 A 
HETATM    6  C   UNL     1       7.715  25.108  56.326  1.00  0.00     0.071 A 
ENDROOT
BRANCH   5   7
HETATM    7  C   UNL     1       7.636  27.458  57.391  1.00  0.00     0.299 C 
HETATM    8  N   UNL     1       6.418  27.766  56.842  1.00  0.00    -0.183 NA
HETATM    9  C   UNL     1       5.899  28.896  57.158  1.00  0.00     0.175 A 
HETATM   10  S   UNL     1       4.314  29.323  56.438  1.00  0.00    -0.050 SA
HETATM   11  N   UNL     1       6.342  29.915  57.970  1.00  0.00    -0.334 N 
HETATM   12  C   UNL     1       4.379  30.936  57.194  1.00  0.00     0.037 A 
HETATM   13  C   UNL     1       5.556  31.068  57.943  1.00  0.00     0.051 A 
HETATM   14  C   UNL     1       3.454  31.961  57.105  1.00  0.00     0.058 A 
HETATM   15  C   UNL     1       5.794  32.229  58.656  1.00  0.00     0.034 A 
HETATM   16  C   UNL     1       4.865  33.276  58.577  1.00  0.00     0.039 A 
HETATM   17  C   UNL     1       3.699  33.148  57.802  1.00  0.00     0.069 A 
HETATM   18  H   UNL     1       7.312  29.933  58.261  1.00  0.00     0.168 HD
HETATM   19  O   UNL     1       8.439  28.280  57.832  1.00  0.00    -0.263 OA
BRANCH  17  20
HETATM   20  O   UNL     1       2.729  34.101  57.655  1.00  0.00    -0.356 OA
HETATM   21  C   UNL     1       2.434  34.905  58.792  1.00  0.00     0.210 C 
ENDBRANCH  17  20
ENDBRANCH   5   7
BRANCH   1  22
HETATM   22  C   UNL     1       8.170  22.562  56.115  1.00  0.00     0.026 A 
HETATM   23  C   UNL     1       8.121  22.491  54.712  1.00  0.00     0.023 A 
HETATM   24  C   UNL     1       8.159  21.257  54.044  1.00  0.00    -0.061 A 
HETATM   25  C   UNL     1       8.138  21.200  52.545  1.00  0.00     0.048 C 
HETATM   26  C   UNL     1       8.281  20.081  54.791  1.00  0.00     0.009 A 
HETATM   27  C   UNL     1       8.333  20.135  56.183  1.00  0.00     0.038 A 
HETATM   28  C   UNL     1       8.268  21.363  56.837  1.00  0.00     0.078 A 
BRANCH  28  29
HETATM   29  O   UNL     1       8.280  21.310  58.205  1.00  0.00    -0.360 OA
HETATM   30  H   UNL     1       8.621  22.154  58.542  1.00  0.00     0.217 HD
ENDBRANCH  28  29
ENDBRANCH   1  22
TORSDOF 4
ENDMDL
MODEL 4
REMARK VINA RESULT:      -9.2      2.847     10.468
REMARK  4 active torsions:
REMARK  status: ('A' for Active; 'I' for Inactive)
REMARK    1  A    between atoms: C_4  and  C_5 
REMARK    2  A    between atoms: C_9  and  C_10 
REMARK       I    between atoms: C_10  and  N_11 
REMARK    3  A    between atoms: C_17  and  O_18 
REMARK    4  A    between atoms: C_25  and  O_26 
ROOT
HETATM    1  C   UNL     1       6.639  31.192  59.050  1.00  0.00     0.065 A 
HETATM    2  N   UNL     1       7.746  30.708  59.696  1.00  0.00    -0.277 N 
HETATM    3  H   UNL     1       8.135  31.025  60.579  1.00  0.00     0.189 HD
HETATM    4  N   UNL     1       8.341  29.682  59.073  1.00  0.00    -0.169 NA
HETATM    5  C   UNL     1       7.616  29.495  57.952  1.00  0.00     0.149 A 
HETATM    6  C   UNL     1       6.538  30.424  57.907  1.00  0.00     0.071 A 
ENDROOT
BRANCH   5   7
HETATM    7  C   UNL     1       7.897  28.452  56.944  1.00  0.00     0.299 C 
HETATM    8  N   UNL     1       8.238  27.242  57.493  1.00  0.00    -0.183 NA
HETATM    9  C   UNL     1       8.080  26.200  56.762  1.00  0.00     0.175 A 
HETATM   10  S   UNL     1       8.534  24.611  57.456  1.00  0.00    -0.050 SA
HETATM   11  N   UNL     1       7.623  26.042  55.474  1.00  0.00    -0.334 N 
HETATM   12  C   UNL     1       8.185  23.807  55.904  1.00  0.00     0.037 A 
HETATM   13  C   UNL     1       7.742  24.748  54.965  1.00  0.00     0.051 A 
HETATM   14  C   UNL     1       8.306  22.464  55.589  1.00  0.00     0.058 A 
HETATM   15  C   UNL     1       7.369  24.335  53.698  1.00  0.00     0.034 A 
HETATM   16  C   UNL     1       7.485  22.979  53.365  1.00  0.00     0.039 A 
HETATM   17  C   UNL     1       7.955  22.044  54.303  1.00  0.00     0.069 A 
HETATM   18  H   UNL     1       7.549  26.851  54.869  1.00  0.00     0.168 HD
HETATM   19  O   UNL     1       7.824  28.683  55.737  1.00  0.00    -0.263 OA
BRANCH  17  20
HETATM   20  O   UNL     1       8.106  20.701  54.086  1.00  0.00    -0.356 OA
HETATM   21  C   UNL     1       8.491  20.296  52.777  1.00  0.00     0.210 C 
ENDBRANCH  17  20
ENDBRANCH   5   7
BRANCH   1  22
HETATM   22  C   UNL     1       5.830  32.295  59.560  1.00  0.00     0.026 A 
HETATM   23  C   UNL     1       5.213  33.173  58.651  1.00  0.00     0.023 A 
HETATM   24  C   UNL     1       4.424  34.244  59.097  1.00  0.00    -0.061 A 
HETATM   25  C   UNL     1       3.746  35.153  58.114  1.00  0.00     0.048 C 
HETATM   26  C   UNL     1       4.222  34.418  60.470  1.00  0.00     0.009 A 
HETATM   27  C   UNL     1       4.825  33.554  61.383  1.00  0.00     0.038 A 
HETATM   28  C   UNL     1       5.629  32.510  60.932  1.00  0.00     0.078 A 
BRANCH  28  29
HETATM   29  O   UNL     1       6.214  31.745  61.905  1.00  0.00    -0.360 OA
HETATM   30  H   UNL     1       5.818  31.981  62.760  1.00  0.00     0.217 HD
ENDBRANCH  28  29
ENDBRANCH   1  22
TORSDOF 4
ENDMDL
MODEL 5
REMARK VINA RESULT:      -9.2      7.197     10.121
REMARK  4 active torsions:
REMARK  status: ('A' for Active; 'I' for Inactive)
REMARK    1  A    between atoms: C_4  and  C_5 
REMARK    2  A    between atoms: C_9  and  C_10 
REMARK       I    between atoms: C_10  and  N_11 
REMARK    3  A    between atoms: C_17  and  O_18 
REMARK    4  A    between atoms: C_25  and  O_26 
ROOT
HETATM    1  C   UNL     1       6.846  24.655  54.691  1.00  0.00     0.065 A 
HETATM    2  N   UNL     1       7.009  25.728  55.528  1.00  0.00    -0.277 N 
HETATM    3  H   UNL     1       7.553  25.769  56.384  1.00  0.00     0.189 HD
HETATM    4  N   UNL     1       6.383  26.841  55.120  1.00  0.00    -0.169 NA
HETATM    5  C   UNL     1       5.757  26.485  53.982  1.00  0.00     0.149 A 
HETATM    6  C   UNL     1       6.028  25.119  53.682  1.00  0.00     0.071 A 
ENDROOT
BRANCH   5   7
HETATM    7  C   UNL     1       4.936  27.400  53.162  1.00  0.00     0.299 C 
HETATM    8  N   UNL     1       5.449  27.614  51.908  1.00  0.00    -0.183 NA
HETATM    9  C   UNL     1       4.634  28.017  51.002  1.00  0.00     0.175 A 
HETATM   10  S   UNL     1       5.288  28.317  49.360  1.00  0.00    -0.050 SA
HETATM   11  N   UNL     1       3.288  28.299  51.036  1.00  0.00    -0.334 N 
HETATM   12  C   UNL     1       3.705  28.929  48.816  1.00  0.00     0.037 A 
HETATM   13  C   UNL     1       2.780  28.868  49.867  1.00  0.00     0.051 A 
HETATM   14  C   UNL     1       3.357  29.411  47.566  1.00  0.00     0.058 A 
HETATM   15  C   UNL     1       1.468  29.253  49.655  1.00  0.00     0.034 A 
HETATM   16  C   UNL     1       1.100  29.741  48.394  1.00  0.00     0.039 A 
HETATM   17  C   UNL     1       2.039  29.825  47.351  1.00  0.00     0.069 A 
HETATM   18  H   UNL     1       2.825  28.407  51.930  1.00  0.00     0.168 HD
HETATM   19  O   UNL     1       3.901  27.904  53.596  1.00  0.00    -0.263 OA
BRANCH  17  20
HETATM   20  O   UNL     1       1.789  30.283  46.086  1.00  0.00    -0.356 OA
HETATM   21  C   UNL     1       2.593  31.359  45.617  1.00  0.00     0.210 C 
ENDBRANCH  17  20
ENDBRANCH   5   7
BRANCH   1  22
HETATM   22  C   UNL     1       7.453  23.350  54.934  1.00  0.00     0.026 A 
HETATM   23  C   UNL     1       7.633  22.463  53.858  1.00  0.00     0.023 A 
HETATM   24  C   UNL     1       8.215  21.200  54.044  1.00  0.00    -0.061 A 
HETATM   25  C   UNL     1       8.429  20.279  52.879  1.00  0.00     0.048 C 
HETATM   26  C   UNL     1       8.655  20.834  55.320  1.00  0.00     0.009 A 
HETATM   27  C   UNL     1       8.486  21.703  56.397  1.00  0.00     0.038 A 
HETATM   28  C   UNL     1       7.882  22.943  56.207  1.00  0.00     0.078 A 
BRANCH  28  29
HETATM   29  O   UNL     1       7.720  23.706  57.332  1.00  0.00    -0.360 OA
HETATM   30  H   UNL     1       6.852  24.138  57.287  1.00  0.00     0.217 HD
ENDBRANCH  28  29
ENDBRANCH   1  22
TORSDOF 4
ENDMDL
MODEL 6
REMARK VINA RESULT:      -9.0      2.696      3.411
REMARK  4 active torsions:
REMARK  status: ('A' for Active; 'I' for Inactive)
REMARK    1  A    between atoms: C_4  and  C_5 
REMARK    2  A    between atoms: C_9  and  C_10 
REMARK       I    between atoms: C_10  and  N_11 
REMARK    3  A    between atoms: C_17  and  O_18 
REMARK    4  A    between atoms: C_25  and  O_26 
ROOT
HETATM    1  C   UNL     1       7.858  25.013  56.147  1.00  0.00     0.065 A 
HETATM    2  N   UNL     1       8.063  24.819  57.488  1.00  0.00    -0.277 N 
HETATM    3  H   UNL     1       8.296  23.951  57.959  1.00  0.00     0.189 HD
HETATM    4  N   UNL     1       7.962  25.934  58.226  1.00  0.00    -0.169 NA
HETATM    5  C   UNL     1       7.649  26.902  57.342  1.00  0.00     0.149 A 
HETATM    6  C   UNL     1       7.577  26.359  56.027  1.00  0.00     0.071 A 
ENDROOT
BRANCH   5   7
HETATM    7  C   UNL     1       7.442  28.320  57.701  1.00  0.00     0.299 C 
HETATM    8  N   UNL     1       6.478  28.937  56.944  1.00  0.00    -0.183 NA
HETATM    9  C   UNL     1       5.929  29.987  57.435  1.00  0.00     0.175 A 
HETATM   10  S   UNL     1       4.678  30.817  56.455  1.00  0.00    -0.050 SA
HETATM   11  N   UNL     1       6.125  30.658  58.620  1.00  0.00    -0.334 N 
HETATM   12  C   UNL     1       4.558  32.119  57.666  1.00  0.00     0.037 A 
HETATM   13  C   UNL     1       5.434  31.866  58.730  1.00  0.00     0.051 A 
HETATM   14  C   UNL     1       3.751  33.243  57.639  1.00  0.00     0.058 A 
HETATM   15  C   UNL     1       5.474  32.729  59.811  1.00  0.00     0.034 A 
HETATM   16  C   UNL     1       4.661  33.871  59.798  1.00  0.00     0.039 A 
HETATM   17  C   UNL     1       3.804  34.132  58.716  1.00  0.00     0.069 A 
HETATM   18  H   UNL     1       6.949  30.460  59.174  1.00  0.00     0.168 HD
HETATM   19  O   UNL     1       8.090  28.862  58.595  1.00  0.00    -0.263 OA
BRANCH  17  20
HETATM   20  O   UNL     1       2.969  35.211  58.600  1.00  0.00    -0.356 OA
HETATM   21  C   UNL     1       2.047  35.432  59.660  1.00  0.00     0.210 C 
ENDBRANCH  17  20
ENDBRANCH   5   7
BRANCH   1  22
HETATM   22  C   UNL     1       7.936  23.940  55.160  1.00  0.00     0.026 A 
HETATM   23  C   UNL     1       8.048  22.609  55.599  1.00  0.00     0.023 A 
HETATM   24  C   UNL     1       8.122  21.546  54.685  1.00  0.00    -0.061 A 
HETATM   25  C   UNL     1       8.209  20.129  55.169  1.00  0.00     0.048 C 
HETATM   26  C   UNL     1       8.048  21.818  53.316  1.00  0.00     0.009 A 
HETATM   27  C   UNL     1       7.935  23.132  52.865  1.00  0.00     0.038 A 
HETATM   28  C   UNL     1       7.889  24.182  53.779  1.00  0.00     0.078 A 
BRANCH  28  29
HETATM   29  O   UNL     1       7.823  25.439  53.240  1.00  0.00    -0.360 OA
HETATM   30  H   UNL     1       8.667  25.627  52.796  1.00  0.00     0.217 HD
ENDBRANCH  28  29
ENDBRANCH   1  22
TORSDOF 4
ENDMDL
MODEL 7
REMARK VINA RESULT:      -8.8      1.858      2.263
REMARK  4 active torsions:
REMARK  status: ('A' for Active; 'I' for Inactive)
REMARK    1  A    between atoms: C_4  and  C_5 
REMARK    2  A    between atoms: C_9  and  C_10 
REMARK       I    between atoms: C_10  and  N_11 
REMARK    3  A    between atoms: C_17  and  O_18 
REMARK    4  A    between atoms: C_25  and  O_26 
ROOT
HETATM    1  C   UNL     1       7.048  26.613  56.010  1.00  0.00     0.065 A 
HETATM    2  N   UNL     1       7.722  26.091  57.082  1.00  0.00    -0.277 N 
HETATM    3  H   UNL     1       8.032  25.133  57.212  1.00  0.00     0.189 HD
HETATM    4  N   UNL     1       8.008  26.985  58.039  1.00  0.00    -0.169 NA
HETATM    5  C   UNL     1       7.479  28.142  57.596  1.00  0.00     0.149 A 
HETATM    6  C   UNL     1       6.870  27.945  56.323  1.00  0.00     0.071 A 
ENDROOT
BRANCH   5   7
HETATM    7  C   UNL     1       7.554  29.425  58.325  1.00  0.00     0.299 C 
HETATM    8  N   UNL     1       6.518  30.276  58.035  1.00  0.00    -0.183 NA
HETATM    9  C   UNL     1       6.251  31.190  58.895  1.00  0.00     0.175 A 
HETATM   10  S   UNL     1       4.910  32.323  58.528  1.00  0.00    -0.050 SA
HETATM   11  N   UNL     1       6.825  31.511  60.103  1.00  0.00    -0.334 N 
HETATM   12  C   UNL     1       5.270  33.262  59.999  1.00  0.00     0.037 A 
HETATM   13  C   UNL     1       6.347  32.686  60.685  1.00  0.00     0.051 A 
HETATM   14  C   UNL     1       4.633  34.400  60.465  1.00  0.00     0.058 A 
HETATM   15  C   UNL     1       6.770  33.229  61.886  1.00  0.00     0.034 A 
HETATM   16  C   UNL     1       6.134  34.380  62.371  1.00  0.00     0.039 A 
HETATM   17  C   UNL     1       5.071  34.968  61.664  1.00  0.00     0.069 A 
HETATM   18  H   UNL     1       7.730  31.124  60.343  1.00  0.00     0.168 HD
HETATM   19  O   UNL     1       8.472  29.672  59.106  1.00  0.00    -0.263 OA
BRANCH  17  20
HETATM   20  O   UNL     1       4.381  36.087  62.045  1.00  0.00    -0.356 OA
HETATM   21  C   UNL     1       3.070  35.894  62.563  1.00  0.00     0.210 C 
ENDBRANCH  17  20
ENDBRANCH   5   7
BRANCH   1  22
HETATM   22  C   UNL     1       6.651  25.821  54.849  1.00  0.00     0.026 A 
HETATM   23  C   UNL     1       7.506  24.806  54.384  1.00  0.00     0.023 A 
HETATM   24  C   UNL     1       7.163  24.018  53.274  1.00  0.00    -0.061 A 
HETATM   25  C   UNL     1       8.072  22.918  52.809  1.00  0.00     0.048 C 
HETATM   26  C   UNL     1       5.932  24.226  52.645  1.00  0.00     0.009 A 
HETATM   27  C   UNL     1       5.073  25.227  53.096  1.00  0.00     0.038 A 
HETATM   28  C   UNL     1       5.434  26.022  54.181  1.00  0.00     0.078 A 
BRANCH  28  29
HETATM   29  O   UNL     1       4.545  27.006  54.520  1.00  0.00    -0.360 OA
HETATM   30  H   UNL     1       4.827  27.833  54.097  1.00  0.00     0.217 HD
ENDBRANCH  28  29
ENDBRANCH   1  22
TORSDOF 4
ENDMDL
MODEL 8
REMARK VINA RESULT:      -8.8      2.183      2.808
REMARK  4 active torsions:
REMARK  status: ('A' for Active; 'I' for Inactive)
REMARK    1  A    between atoms: C_4  and  C_5 
REMARK    2  A    between atoms: C_9  and  C_10 
REMARK       I    between atoms: C_10  and  N_11 
REMARK    3  A    between atoms: C_17  and  O_18 
REMARK    4  A    between atoms: C_25  and  O_26 
ROOT
HETATM    1  C   UNL     1       7.452  26.110  56.018  1.00  0.00     0.065 A 
HETATM    2  N   UNL     1       7.825  25.663  57.258  1.00  0.00    -0.277 N 
HETATM    3  H   UNL     1       8.052  24.713  57.532  1.00  0.00     0.189 HD
HETATM    4  N   UNL     1       7.912  26.627  58.186  1.00  0.00    -0.169 NA
HETATM    5  C   UNL     1       7.556  27.756  57.541  1.00  0.00     0.149 A 
HETATM    6  C   UNL     1       7.263  27.468  56.177  1.00  0.00     0.071 A 
ENDROOT
BRANCH   5   7
HETATM    7  C   UNL     1       7.511  29.093  58.168  1.00  0.00     0.299 C 
HETATM    8  N   UNL     1       6.499  29.885  57.686  1.00  0.00    -0.183 NA
HETATM    9  C   UNL     1       6.107  30.853  58.430  1.00  0.00     0.175 A 
HETATM   10  S   UNL     1       4.797  31.910  57.812  1.00  0.00    -0.050 SA
HETATM   11  N   UNL     1       6.519  31.286  59.670  1.00  0.00    -0.334 N 
HETATM   12  C   UNL     1       4.949  32.972  59.235  1.00  0.00     0.037 A 
HETATM   13  C   UNL     1       5.945  32.485  60.092  1.00  0.00     0.051 A 
HETATM   14  C   UNL     1       4.234  34.120  59.526  1.00  0.00     0.058 A 
HETATM   15  C   UNL     1       6.203  33.133  61.287  1.00  0.00     0.034 A 
HETATM   16  C   UNL     1       5.486  34.296  61.597  1.00  0.00     0.039 A 
HETATM   17  C   UNL     1       4.506  34.794  60.721  1.00  0.00     0.069 A 
HETATM   18  H   UNL     1       7.396  30.948  60.048  1.00  0.00     0.168 HD
HETATM   19  O   UNL     1       8.319  29.429  59.033  1.00  0.00    -0.263 OA
BRANCH  17  20
HETATM   20  O   UNL     1       3.748  35.916  60.922  1.00  0.00    -0.356 OA
HETATM   21  C   UNL     1       3.447  36.259  62.270  1.00  0.00     0.210 C 
ENDBRANCH  17  20
ENDBRANCH   5   7
BRANCH   1  22
HETATM   22  C   UNL     1       7.311  25.234  54.859  1.00  0.00     0.026 A 
HETATM   23  C   UNL     1       6.349  25.538  53.880  1.00  0.00     0.023 A 
HETATM   24  C   UNL     1       6.182  24.726  52.747  1.00  0.00    -0.061 A 
HETATM   25  C   UNL     1       5.173  25.081  51.695  1.00  0.00     0.048 C 
HETATM   26  C   UNL     1       7.013  23.614  52.577  1.00  0.00     0.009 A 
HETATM   27  C   UNL     1       7.973  23.301  53.537  1.00  0.00     0.038 A 
HETATM   28  C   UNL     1       8.113  24.098  54.671  1.00  0.00     0.078 A 
BRANCH  28  29
HETATM   29  O   UNL     1       9.051  23.684  55.578  1.00  0.00    -0.360 OA
HETATM   30  H   UNL     1       9.433  24.468  56.005  1.00  0.00     0.217 HD
ENDBRANCH  28  29
ENDBRANCH   1  22
TORSDOF 4
ENDMDL
MODEL 9
REMARK VINA RESULT:      -8.7      7.966     11.233
REMARK  4 active torsions:
REMARK  status: ('A' for Active; 'I' for Inactive)
REMARK    1  A    between atoms: C_4  and  C_5 
REMARK    2  A    between atoms: C_9  and  C_10 
REMARK       I    between atoms: C_10  and  N_11 
REMARK    3  A    between atoms: C_17  and  O_18 
REMARK    4  A    between atoms: C_25  and  O_26 
ROOT
HETATM    1  C   UNL     1       6.518  24.808  53.044  1.00  0.00     0.065 A 
HETATM    2  N   UNL     1       5.355  25.258  53.610  1.00  0.00    -0.277 N 
HETATM    3  H   UNL     1       4.960  24.993  54.507  1.00  0.00     0.189 HD
HETATM    4  N   UNL     1       4.705  26.172  52.876  1.00  0.00    -0.169 NA
HETATM    5  C   UNL     1       5.453  26.314  51.765  1.00  0.00     0.149 A 
HETATM    6  C   UNL     1       6.601  25.474  51.838  1.00  0.00     0.071 A 
ENDROOT
BRANCH   5   7
HETATM    7  C   UNL     1       5.129  27.235  50.656  1.00  0.00     0.299 C 
HETATM    8  N   UNL     1       4.138  26.765  49.832  1.00  0.00    -0.183 NA
HETATM    9  C   UNL     1       3.498  27.629  49.132  1.00  0.00     0.175 A 
HETATM   10  S   UNL     1       2.209  27.034  48.037  1.00  0.00    -0.050 SA
HETATM   11  N   UNL     1       3.615  28.996  49.027  1.00  0.00    -0.334 N 
HETATM   12  C   UNL     1       1.961  28.678  47.396  1.00  0.00     0.037 A 
HETATM   13  C   UNL     1       2.830  29.576  48.029  1.00  0.00     0.051 A 
HETATM   14  C   UNL     1       1.070  29.091  46.420  1.00  0.00     0.058 A 
HETATM   15  C   UNL     1       2.779  30.923  47.717  1.00  0.00     0.034 A 
HETATM   16  C   UNL     1       1.881  31.357  46.732  1.00  0.00     0.039 A 
HETATM   17  C   UNL     1       1.030  30.447  46.082  1.00  0.00     0.069 A 
HETATM   18  H   UNL     1       4.439  29.454  49.396  1.00  0.00     0.168 HD
HETATM   19  O   UNL     1       5.713  28.309  50.515  1.00  0.00    -0.263 OA
BRANCH  17  20
HETATM   20  O   UNL     1       0.117  30.760  45.110  1.00  0.00    -0.356 OA
HETATM   21  C   UNL     1      -1.003  29.894  44.972  1.00  0.00     0.210 C 
ENDBRANCH  17  20
ENDBRANCH   5   7
BRANCH   1  22
HETATM   22  C   UNL     1       7.391  23.824  53.678  1.00  0.00     0.026 A 
HETATM   23  C   UNL     1       7.604  22.586  53.048  1.00  0.00     0.023 A 
HETATM   24  C   UNL     1       8.438  21.612  53.619  1.00  0.00    -0.061 A 
HETATM   25  C   UNL     1       8.681  20.308  52.918  1.00  0.00     0.048 C 
HETATM   26  C   UNL     1       9.094  21.897  54.820  1.00  0.00     0.009 A 
HETATM   27  C   UNL     1       8.895  23.122  55.457  1.00  0.00     0.038 A 
HETATM   28  C   UNL     1       8.045  24.070  54.895  1.00  0.00     0.078 A 
BRANCH  28  29
HETATM   29  O   UNL     1       7.878  25.222  55.617  1.00  0.00    -0.360 OA
HETATM   30  H   UNL     1       8.355  25.938  55.165  1.00  0.00     0.217 HD
ENDBRANCH  28  29
ENDBRANCH   1  22
TORSDOF 4
ENDMDL
MODEL 10
REMARK VINA RESULT:      -8.7      4.145      5.278
REMARK  4 active torsions:
REMARK  status: ('A' for Active; 'I' for Inactive)
REMARK    1  A    between atoms: C_4  and  C_5 
REMARK    2  A    between atoms: C_9  and  C_10 
REMARK       I    between atoms: C_10  and  N_11 
REMARK    3  A    between atoms: C_17  and  O_18 
REMARK    4  A    between atoms: C_25  and  O_26 
ROOT
HETATM    1  C   UNL     1       7.549  23.887  56.578  1.00  0.00     0.065 A 
HETATM    2  N   UNL     1       8.274  24.583  57.508  1.00  0.00    -0.277 N 
HETATM    3  H   UNL     1       9.135  24.296  57.963  1.00  0.00     0.189 HD
HETATM    4  N   UNL     1       7.770  25.789  57.808  1.00  0.00    -0.169 NA
HETATM    5  C   UNL     1       6.649  25.885  57.067  1.00  0.00     0.149 A 
HETATM    6  C   UNL     1       6.481  24.709  56.280  1.00  0.00     0.071 A 
ENDROOT
BRANCH   5   7
HETATM    7  C   UNL     1       5.753  27.060  57.062  1.00  0.00     0.299 C 
HETATM    8  N   UNL     1       6.326  28.182  57.604  1.00  0.00    -0.183 NA
HETATM    9  C   UNL     1       5.828  29.316  57.268  1.00  0.00     0.175 A 
HETATM   10  S   UNL     1       6.552  30.794  57.977  1.00  0.00    -0.050 SA
HETATM   11  N   UNL     1       4.781  29.651  56.440  1.00  0.00    -0.334 N 
HETATM   12  C   UNL     1       5.311  31.806  57.196  1.00  0.00     0.037 A 
HETATM   13  C   UNL     1       4.440  31.004  56.446  1.00  0.00     0.051 A 
HETATM   14  C   UNL     1       5.157  33.180  57.266  1.00  0.00     0.058 A 
HETATM   15  C   UNL     1       3.421  31.588  55.715  1.00  0.00     0.034 A 
HETATM   16  C   UNL     1       3.254  32.979  55.775  1.00  0.00     0.039 A 
HETATM   17  C   UNL     1       4.114  33.775  56.550  1.00  0.00     0.069 A 
HETATM   18  H   UNL     1       4.126  28.934  56.151  1.00  0.00     0.168 HD
HETATM   19  O   UNL     1       4.611  26.999  56.609  1.00  0.00    -0.263 OA
BRANCH  17  20
HETATM   20  O   UNL     1       4.044  35.136  56.679  1.00  0.00    -0.356 OA
HETATM   21  C   UNL     1       4.517  35.915  55.587  1.00  0.00     0.210 C 
ENDBRANCH  17  20
ENDBRANCH   5   7
BRANCH   1  22
HETATM   22  C   UNL     1       7.926  22.562  56.094  1.00  0.00     0.026 A 
HETATM   23  C   UNL     1       7.898  22.300  54.713  1.00  0.00     0.023 A 
HETATM   24  C   UNL     1       8.255  21.042  54.204  1.00  0.00    -0.061 A 
HETATM   25  C   UNL     1       8.251  20.788  52.725  1.00  0.00     0.048 C 
HETATM   26  C   UNL     1       8.680  20.045  55.087  1.00  0.00     0.009 A 
HETATM   27  C   UNL     1       8.716  20.290  56.459  1.00  0.00     0.038 A 
HETATM   28  C   UNL     1       8.333  21.533  56.957  1.00  0.00     0.078 A 
BRANCH  28  29
HETATM   29  O   UNL     1       8.358  21.663  58.320  1.00  0.00    -0.360 OA
HETATM   30  H   UNL     1       8.467  22.603  58.536  1.00  0.00     0.217 HD
ENDBRANCH  28  29
ENDBRANCH   1  22
TORSDOF 4
ENDMDL
