MODEL 1
REMARK VINA RESULT:      -9.8      0.000      0.000
REMARK  8 active torsions:
REMARK  status: ('A' for Active; 'I' for Inactive)
REMARK    1  A    between atoms: C_4  and  N_5 
REMARK       I    between atoms: N_5  and  C_6 
REMARK    2  A    between atoms: C_6  and  C_7 
REMARK    3  A    between atoms: C_7  and  N_8 
REMARK    4  A    between atoms: C_7  and  C_24 
REMARK    5  A    between atoms: N_8  and  C_11 
REMARK    6  A    between atoms: C_11  and  C_12 
REMARK    7  A    between atoms: C_15  and  N_16 
REMARK    8  A    between atoms: C_31  and  O_32 
ROOT
HETATM    1  C   UNL     1       7.229  28.514  56.170  1.00  0.00     0.310 C 
ENDROOT
BRANCH   1   2
HETATM    2  C   UNL     1       6.204  29.379  55.396  1.00  0.00     0.257 C 
HETATM    3  N   UNL     1       5.662  28.990  54.210  1.00  0.00    -0.323 N 
HETATM    4  H   UNL     1       5.277  29.757  53.659  1.00  0.00     0.169 HD
HETATM    5  O   UNL     1       5.904  30.484  55.872  1.00  0.00    -0.270 OA
BRANCH   3   6
HETATM    6  C   UNL     1       5.749  27.771  53.504  1.00  0.00     0.069 A 
HETATM    7  C   UNL     1       6.951  27.085  53.307  1.00  0.00     0.039 A 
HETATM    8  C   UNL     1       6.976  25.881  52.591  1.00  0.00    -0.060 A 
HETATM    9  C   UNL     1       8.273  25.163  52.351  1.00  0.00     0.048 C 
HETATM   10  C   UNL     1       5.782  25.374  52.070  1.00  0.00     0.009 A 
HETATM   11  C   UNL     1       4.570  26.028  52.301  1.00  0.00     0.039 A 
HETATM   12  C   UNL     1       4.543  27.219  53.028  1.00  0.00     0.095 A 
BRANCH  12  13
HETATM   13  O   UNL     1       3.413  27.952  53.302  1.00  0.00    -0.354 OA
HETATM   14  C   UNL     1       2.960  28.843  52.286  1.00  0.00     0.210 C 
ENDBRANCH  12  13
ENDBRANCH   3   6
ENDBRANCH   1   2
BRANCH   1  15
HETATM   15  N   UNL     1       6.503  27.686  57.229  1.00  0.00    -0.054 N 
HETATM   16  H   UNL     1       6.163  28.357  57.934  1.00  0.00     0.278 HD
HETATM   17  H   UNL     1       5.681  27.239  56.817  1.00  0.00     0.278 HD
BRANCH  15  18
HETATM   18  C   UNL     1       7.298  26.672  57.978  1.00  0.00     0.272 C 
BRANCH  18  19
HETATM   19  C   UNL     1       7.518  25.448  57.134  1.00  0.00    -0.033 A 
HETATM   20  C   UNL     1       8.778  24.839  57.092  1.00  0.00     0.011 A 
HETATM   21  C   UNL     1       9.004  23.719  56.286  1.00  0.00     0.030 A 
HETATM   22  C   UNL     1       7.981  23.159  55.514  1.00  0.00     0.037 A 
HETATM   23  C   UNL     1       6.716  23.761  55.576  1.00  0.00     0.030 A 
HETATM   24  C   UNL     1       6.487  24.898  56.366  1.00  0.00     0.011 A 
BRANCH  22  25
HETATM   25  N   UNL     1       8.208  22.014  54.707  1.00  0.00    -0.318 N 
HETATM   26  C   UNL     1       8.740  20.788  55.144  1.00  0.00     0.224 C 
HETATM   27  O   UNL     1       9.114  20.470  56.261  1.00  0.00    -0.273 OA
HETATM   28  C   UNL     1       8.876  19.890  53.935  1.00  0.00     0.105 C 
HETATM   29  C   UNL     1       7.956  20.539  52.920  1.00  0.00     0.029 C 
HETATM   30  C   UNL     1       8.026  22.009  53.274  1.00  0.00     0.133 C 
ENDBRANCH  22  25
ENDBRANCH  18  19
ENDBRANCH  15  18
ENDBRANCH   1  15
BRANCH   1  31
HETATM   31  C   UNL     1       8.412  29.261  56.756  1.00  0.00    -0.019 A 
HETATM   32  C   UNL     1       9.619  29.321  56.038  1.00  0.00     0.010 A 
HETATM   33  C   UNL     1      10.732  29.971  56.576  1.00  0.00     0.001 A 
HETATM   34  C   UNL     1      10.659  30.560  57.836  1.00  0.00     0.000 A 
HETATM   35  C   UNL     1       9.474  30.502  58.563  1.00  0.00     0.001 A 
HETATM   36  C   UNL     1       8.359  29.853  58.032  1.00  0.00     0.010 A 
ENDBRANCH   1  31
TORSDOF 8
ENDMDL
MODEL 2
REMARK VINA RESULT:      -9.7      2.319      7.624
REMARK  8 active torsions:
REMARK  status: ('A' for Active; 'I' for Inactive)
REMARK    1  A    between atoms: C_4  and  N_5 
REMARK       I    between atoms: N_5  and  C_6 
REMARK    2  A    between atoms: C_6  and  C_7 
REMARK    3  A    between atoms: C_7  and  N_8 
REMARK    4  A    between atoms: C_7  and  C_24 
REMARK    5  A    between atoms: N_8  and  C_11 
REMARK    6  A    between atoms: C_11  and  C_12 
REMARK    7  A    between atoms: C_15  and  N_16 
REMARK    8  A    between atoms: C_31  and  O_32 
ROOT
HETATM    1  C   UNL     1       6.167  27.347  53.044  1.00  0.00     0.310 C 
ENDROOT
BRANCH   1   2
HETATM    2  C   UNL     1       5.139  26.876  54.101  1.00  0.00     0.257 C 
HETATM    3  N   UNL     1       5.283  25.716  54.800  1.00  0.00    -0.323 N 
HETATM    4  H   UNL     1       4.415  25.364  55.202  1.00  0.00     0.169 HD
HETATM    5  O   UNL     1       4.131  27.575  54.280  1.00  0.00    -0.270 OA
BRANCH   3   6
HETATM    6  C   UNL     1       6.353  24.798  54.865  1.00  0.00     0.069 A 
HETATM    7  C   UNL     1       6.598  23.837  53.879  1.00  0.00     0.039 A 
HETATM    8  C   UNL     1       7.673  22.947  54.003  1.00  0.00    -0.060 A 
HETATM    9  C   UNL     1       7.914  21.894  52.961  1.00  0.00     0.048 C 
HETATM   10  C   UNL     1       8.498  23.028  55.128  1.00  0.00     0.009 A 
HETATM   11  C   UNL     1       8.289  24.014  56.095  1.00  0.00     0.039 A 
HETATM   12  C   UNL     1       7.227  24.910  55.965  1.00  0.00     0.095 A 
BRANCH  12  13
HETATM   13  O   UNL     1       6.921  25.908  56.859  1.00  0.00    -0.354 OA
HETATM   14  C   UNL     1       7.765  26.032  58.000  1.00  0.00     0.210 C 
ENDBRANCH  12  13
ENDBRANCH   3   6
ENDBRANCH   1   2
BRANCH   1  15
HETATM   15  N   UNL     1       6.913  28.573  53.568  1.00  0.00    -0.054 N 
HETATM   16  H   UNL     1       7.147  29.142  52.741  1.00  0.00     0.278 HD
HETATM   17  H   UNL     1       6.291  29.134  54.155  1.00  0.00     0.278 HD
BRANCH  15  18
HETATM   18  C   UNL     1       8.199  28.345  54.286  1.00  0.00     0.272 C 
BRANCH  18  19
HETATM   19  C   UNL     1       8.171  29.001  55.638  1.00  0.00    -0.033 A 
HETATM   20  C   UNL     1       6.949  29.284  56.258  1.00  0.00     0.011 A 
HETATM   21  C   UNL     1       6.910  29.923  57.501  1.00  0.00     0.030 A 
HETATM   22  C   UNL     1       8.083  30.281  58.174  1.00  0.00     0.037 A 
HETATM   23  C   UNL     1       9.304  29.974  57.557  1.00  0.00     0.030 A 
HETATM   24  C   UNL     1       9.351  29.353  56.300  1.00  0.00     0.011 A 
BRANCH  22  25
HETATM   25  N   UNL     1       8.042  30.916  59.442  1.00  0.00    -0.318 N 
HETATM   26  C   UNL     1       7.309  32.071  59.764  1.00  0.00     0.224 C 
HETATM   27  O   UNL     1       6.592  32.749  59.045  1.00  0.00    -0.273 OA
HETATM   28  C   UNL     1       7.626  32.432  61.197  1.00  0.00     0.105 C 
HETATM   29  C   UNL     1       8.200  31.145  61.757  1.00  0.00     0.029 C 
HETATM   30  C   UNL     1       8.868  30.509  60.555  1.00  0.00     0.133 C 
ENDBRANCH  22  25
ENDBRANCH  18  19
ENDBRANCH  15  18
ENDBRANCH   1  15
BRANCH   1  31
HETATM   31  C   UNL     1       5.618  27.579  51.649  1.00  0.00    -0.019 A 
HETATM   32  C   UNL     1       5.200  26.481  50.877  1.00  0.00     0.010 A 
HETATM   33  C   UNL     1       4.727  26.669  49.576  1.00  0.00     0.001 A 
HETATM   34  C   UNL     1       4.672  27.947  49.028  1.00  0.00     0.000 A 
HETATM   35  C   UNL     1       5.091  29.044  49.775  1.00  0.00     0.001 A 
HETATM   36  C   UNL     1       5.565  28.864  51.075  1.00  0.00     0.010 A 
ENDBRANCH   1  31
TORSDOF 8
ENDMDL
MODEL 3
REMARK VINA RESULT:      -9.2      2.787      7.436
REMARK  8 active torsions:
REMARK  status: ('A' for Active; 'I' for Inactive)
REMARK    1  A    between atoms: C_4  and  N_5 
REMARK       I    between atoms: N_5  and  C_6 
REMARK    2  A    between atoms: C_6  and  C_7 
REMARK    3  A    between atoms: C_7  and  N_8 
REMARK    4  A    between atoms: C_7  and  C_24 
REMARK    5  A    between atoms: N_8  and  C_11 
REMARK    6  A    between atoms: C_11  and  C_12 
REMARK    7  A    between atoms: C_15  and  N_16 
REMARK    8  A    between atoms: C_31  and  O_32 
ROOT
HETATM    1  C   UNL     1       7.517  25.191  55.171  1.00  0.00     0.310 C 
ENDROOT
BRANCH   1   2
HETATM    2  C   UNL     1       6.976  25.149  56.621  1.00  0.00     0.257 C 
HETATM    3  N   UNL     1       7.103  26.195  57.483  1.00  0.00    -0.323 N 
HETATM    4  H   UNL     1       7.012  25.936  58.465  1.00  0.00     0.169 HD
HETATM    5  O   UNL     1       6.439  24.100  57.008  1.00  0.00    -0.270 OA
BRANCH   3   6
HETATM    6  C   UNL     1       7.572  27.511  57.284  1.00  0.00     0.069 A 
HETATM    7  C   UNL     1       8.928  27.831  57.168  1.00  0.00     0.039 A 
HETATM    8  C   UNL     1       9.333  29.159  56.977  1.00  0.00    -0.060 A 
HETATM    9  C   UNL     1      10.791  29.505  56.887  1.00  0.00     0.048 C 
HETATM   10  C   UNL     1       8.364  30.163  56.909  1.00  0.00     0.009 A 
HETATM   11  C   UNL     1       7.005  29.848  56.977  1.00  0.00     0.039 A 
HETATM   12  C   UNL     1       6.600  28.524  57.152  1.00  0.00     0.095 A 
BRANCH  12  13
HETATM   13  O   UNL     1       5.296  28.102  57.246  1.00  0.00    -0.354 OA
HETATM   14  C   UNL     1       4.468  28.306  56.105  1.00  0.00     0.210 C 
ENDBRANCH  12  13
ENDBRANCH   3   6
ENDBRANCH   1   2
BRANCH   1  15
HETATM   15  N   UNL     1       6.479  25.838  54.256  1.00  0.00    -0.054 N 
HETATM   16  H   UNL     1       6.125  25.086  53.646  1.00  0.00     0.278 HD
HETATM   17  H   UNL     1       5.688  26.174  54.811  1.00  0.00     0.278 HD
BRANCH  15  18
HETATM   18  C   UNL     1       6.942  26.922  53.344  1.00  0.00     0.272 C 
BRANCH  18  19
HETATM   19  C   UNL     1       5.991  27.082  52.191  1.00  0.00    -0.033 A 
HETATM   20  C   UNL     1       5.461  28.341  51.886  1.00  0.00     0.011 A 
HETATM   21  C   UNL     1       4.551  28.497  50.835  1.00  0.00     0.030 A 
HETATM   22  C   UNL     1       4.156  27.411  50.046  1.00  0.00     0.037 A 
HETATM   23  C   UNL     1       4.707  26.157  50.345  1.00  0.00     0.030 A 
HETATM   24  C   UNL     1       5.604  25.989  51.410  1.00  0.00     0.011 A 
BRANCH  22  25
HETATM   25  N   UNL     1       3.243  27.573  48.972  1.00  0.00    -0.318 N 
HETATM   26  C   UNL     1       3.503  27.297  47.618  1.00  0.00     0.224 C 
HETATM   27  O   UNL     1       4.531  26.888  47.104  1.00  0.00    -0.273 OA
HETATM   28  C   UNL     1       2.277  27.690  46.826  1.00  0.00     0.105 C 
HETATM   29  C   UNL     1       1.190  27.750  47.881  1.00  0.00     0.029 C 
HETATM   30  C   UNL     1       1.938  28.172  49.129  1.00  0.00     0.133 C 
ENDBRANCH  22  25
ENDBRANCH  18  19
ENDBRANCH  15  18
ENDBRANCH   1  15
BRANCH   1  31
HETATM   31  C   UNL     1       8.009  23.868  54.614  1.00  0.00    -0.019 A 
HETATM   32  C   UNL     1       7.395  23.326  53.471  1.00  0.00     0.010 A 
HETATM   33  C   UNL     1       7.805  22.091  52.965  1.00  0.00     0.001 A 
HETATM   34  C   UNL     1       8.824  21.379  53.594  1.00  0.00     0.000 A 
HETATM   35  C   UNL     1       9.436  21.897  54.731  1.00  0.00     0.001 A 
HETATM   36  C   UNL     1       9.029  23.130  55.243  1.00  0.00     0.010 A 
ENDBRANCH   1  31
TORSDOF 8
ENDMDL
MODEL 4
REMARK VINA RESULT:      -9.1      2.678      7.153
REMARK  8 active torsions:
REMARK  status: ('A' for Active; 'I' for Inactive)
REMARK    1  A    between atoms: C_4  and  N_5 
REMARK       I    between atoms: N_5  and  C_6 
REMARK    2  A    between atoms: C_6  and  C_7 
REMARK    3  A    between atoms: C_7  and  N_8 
REMARK    4  A    between atoms: C_7  and  C_24 
REMARK    5  A    between atoms: N_8  and  C_11 
REMARK    6  A    between atoms: C_11  and  C_12 
REMARK    7  A    between atoms: C_15  and  N_16 
REMARK    8  A    between atoms: C_31  and  O_32 
ROOT
HETATM    1  C   UNL     1       5.990  26.773  54.046  1.00  0.00     0.310 C 
ENDROOT
BRANCH   1   2
HETATM    2  C   UNL     1       6.802  27.966  53.485  1.00  0.00     0.257 C 
HETATM    3  N   UNL     1       6.457  28.615  52.339  1.00  0.00    -0.323 N 
HETATM    4  H   UNL     1       7.221  29.138  51.914  1.00  0.00     0.169 HD
HETATM    5  O   UNL     1       7.825  28.308  54.096  1.00  0.00    -0.270 OA
BRANCH   3   6
HETATM    6  C   UNL     1       5.317  28.502  51.515  1.00  0.00     0.069 A 
HETATM    7  C   UNL     1       5.161  27.493  50.559  1.00  0.00     0.039 A 
HETATM    8  C   UNL     1       4.008  27.436  49.765  1.00  0.00    -0.060 A 
HETATM    9  C   UNL     1       3.858  26.372  48.715  1.00  0.00     0.048 C 
HETATM   10  C   UNL     1       3.015  28.404  49.935  1.00  0.00     0.009 A 
HETATM   11  C   UNL     1       3.141  29.388  50.918  1.00  0.00     0.039 A 
HETATM   12  C   UNL     1       4.282  29.436  51.720  1.00  0.00     0.095 A 
BRANCH  12  13
HETATM   13  O   UNL     1       4.517  30.366  52.705  1.00  0.00    -0.354 OA
HETATM   14  C   UNL     1       3.433  30.667  53.579  1.00  0.00     0.210 C 
ENDBRANCH  12  13
ENDBRANCH   3   6
ENDBRANCH   1   2
BRANCH   1  15
HETATM   15  N   UNL     1       5.631  27.041  55.506  1.00  0.00    -0.054 N 
HETATM   16  H   UNL     1       4.890  26.365  55.749  1.00  0.00     0.278 HD
HETATM   17  H   UNL     1       6.434  26.835  56.105  1.00  0.00     0.278 HD
BRANCH  15  18
HETATM   18  C   UNL     1       5.088  28.385  55.849  1.00  0.00     0.272 C 
BRANCH  18  19
HETATM   19  C   UNL     1       5.940  29.047  56.895  1.00  0.00    -0.033 A 
HETATM   20  C   UNL     1       5.625  30.333  57.349  1.00  0.00     0.011 A 
HETATM   21  C   UNL     1       6.429  30.972  58.299  1.00  0.00     0.030 A 
HETATM   22  C   UNL     1       7.557  30.345  58.839  1.00  0.00     0.037 A 
HETATM   23  C   UNL     1       7.855  29.049  58.394  1.00  0.00     0.030 A 
HETATM   24  C   UNL     1       7.065  28.410  57.427  1.00  0.00     0.011 A 
BRANCH  22  25
HETATM   25  N   UNL     1       8.364  30.989  59.812  1.00  0.00    -0.318 N 
HETATM   26  C   UNL     1       9.491  31.788  59.554  1.00  0.00     0.224 C 
HETATM   27  O   UNL     1       9.998  32.074  58.480  1.00  0.00    -0.273 OA
HETATM   28  C   UNL     1      10.080  32.197  60.885  1.00  0.00     0.105 C 
HETATM   29  C   UNL     1       8.938  31.959  61.853  1.00  0.00     0.029 C 
HETATM   30  C   UNL     1       8.191  30.797  61.233  1.00  0.00     0.133 C 
ENDBRANCH  22  25
ENDBRANCH  18  19
ENDBRANCH  15  18
ENDBRANCH   1  15
BRANCH   1  31
HETATM   31  C   UNL     1       6.621  25.405  53.866  1.00  0.00    -0.019 A 
HETATM   32  C   UNL     1       6.637  24.501  54.942  1.00  0.00     0.010 A 
HETATM   33  C   UNL     1       7.247  23.252  54.810  1.00  0.00     0.001 A 
HETATM   34  C   UNL     1       7.854  22.892  53.610  1.00  0.00     0.000 A 
HETATM   35  C   UNL     1       7.855  23.778  52.537  1.00  0.00     0.001 A 
HETATM   36  C   UNL     1       7.248  25.029  52.663  1.00  0.00     0.010 A 
ENDBRANCH   1  31
TORSDOF 8
ENDMDL
MODEL 5
REMARK VINA RESULT:      -9.0      7.681     11.457
REMARK  8 active torsions:
REMARK  status: ('A' for Active; 'I' for Inactive)
REMARK    1  A    between atoms: C_4  and  N_5 
REMARK       I    between atoms: N_5  and  C_6 
REMARK    2  A    between atoms: C_6  and  C_7 
REMARK    3  A    between atoms: C_7  and  N_8 
REMARK    4  A    between atoms: C_7  and  C_24 
REMARK    5  A    between atoms: N_8  and  C_11 
REMARK    6  A    between atoms: C_11  and  C_12 
REMARK    7  A    between atoms: C_15  and  N_16 
REMARK    8  A    between atoms: C_31  and  O_32 
ROOT
HETATM    1  C   UNL     1       5.556  34.060  64.316  1.00  0.00     0.310 C 
ENDROOT
BRANCH   1   2
HETATM    2  C   UNL     1       4.186  34.254  63.622  1.00  0.00     0.257 C 
HETATM    3  N   UNL     1       3.802  35.439  63.072  1.00  0.00    -0.323 N 
HETATM    4  H   UNL     1       2.794  35.532  62.951  1.00  0.00     0.169 HD
HETATM    5  O   UNL     1       3.403  33.292  63.609  1.00  0.00    -0.270 OA
BRANCH   3   6
HETATM    6  C   UNL     1       4.513  36.640  62.865  1.00  0.00     0.069 A 
HETATM    7  C   UNL     1       4.989  37.437  63.911  1.00  0.00     0.039 A 
HETATM    8  C   UNL     1       5.684  38.624  63.643  1.00  0.00    -0.060 A 
HETATM    9  C   UNL     1       6.164  39.497  64.766  1.00  0.00     0.048 C 
HETATM   10  C   UNL     1       5.891  39.006  62.315  1.00  0.00     0.009 A 
HETATM   11  C   UNL     1       5.460  38.193  61.264  1.00  0.00     0.039 A 
HETATM   12  C   UNL     1       4.782  37.003  61.531  1.00  0.00     0.095 A 
BRANCH  12  13
HETATM   13  O   UNL     1       4.302  36.137  60.578  1.00  0.00    -0.354 OA
HETATM   14  C   UNL     1       4.059  36.675  59.281  1.00  0.00     0.210 C 
ENDBRANCH  12  13
ENDBRANCH   3   6
ENDBRANCH   1   2
BRANCH   1  15
HETATM   15  N   UNL     1       6.192  32.756  63.835  1.00  0.00    -0.054 N 
HETATM   16  H   UNL     1       6.007  32.058  64.571  1.00  0.00     0.278 HD
HETATM   17  H   UNL     1       5.721  32.432  62.987  1.00  0.00     0.278 HD
BRANCH  15  18
HETATM   18  C   UNL     1       7.666  32.744  63.620  1.00  0.00     0.272 C 
BRANCH  18  19
HETATM   19  C   UNL     1       8.002  32.086  62.311  1.00  0.00    -0.033 A 
HETATM   20  C   UNL     1       8.940  31.048  62.266  1.00  0.00     0.011 A 
HETATM   21  C   UNL     1       9.285  30.450  61.050  1.00  0.00     0.030 A 
HETATM   22  C   UNL     1       8.694  30.850  59.847  1.00  0.00     0.037 A 
HETATM   23  C   UNL     1       7.740  31.876  59.903  1.00  0.00     0.030 A 
HETATM   24  C   UNL     1       7.404  32.496  61.116  1.00  0.00     0.011 A 
BRANCH  22  25
HETATM   25  N   UNL     1       9.034  30.233  58.616  1.00  0.00    -0.318 N 
HETATM   26  C   UNL     1      10.074  30.624  57.755  1.00  0.00     0.224 C 
HETATM   27  O   UNL     1      10.863  31.548  57.877  1.00  0.00    -0.273 OA
HETATM   28  C   UNL     1      10.017  29.737  56.532  1.00  0.00     0.105 C 
HETATM   29  C   UNL     1       9.188  28.557  57.002  1.00  0.00     0.029 C 
HETATM   30  C   UNL     1       8.254  29.172  58.023  1.00  0.00     0.133 C 
ENDBRANCH  22  25
ENDBRANCH  18  19
ENDBRANCH  15  18
ENDBRANCH   1  15
BRANCH   1  31
HETATM   31  C   UNL     1       5.547  34.155  65.829  1.00  0.00    -0.019 A 
HETATM   32  C   UNL     1       6.765  34.251  66.526  1.00  0.00     0.010 A 
HETATM   33  C   UNL     1       6.781  34.300  67.922  1.00  0.00     0.001 A 
HETATM   34  C   UNL     1       5.589  34.245  68.639  1.00  0.00     0.000 A 
HETATM   35  C   UNL     1       4.375  34.140  67.966  1.00  0.00     0.001 A 
HETATM   36  C   UNL     1       4.352  34.090  66.571  1.00  0.00     0.010 A 
ENDBRANCH   1  31
TORSDOF 8
ENDMDL
MODEL 6
REMARK VINA RESULT:      -9.0      3.018      6.985
REMARK  8 active torsions:
REMARK  status: ('A' for Active; 'I' for Inactive)
REMARK    1  A    between atoms: C_4  and  N_5 
REMARK       I    between atoms: N_5  and  C_6 
REMARK    2  A    between atoms: C_6  and  C_7 
REMARK    3  A    between atoms: C_7  and  N_8 
REMARK    4  A    between atoms: C_7  and  C_24 
REMARK    5  A    between atoms: N_8  and  C_11 
REMARK    6  A    between atoms: C_11  and  C_12 
REMARK    7  A    between atoms: C_15  and  N_16 
REMARK    8  A    between atoms: C_31  and  O_32 
ROOT
HETATM    1  C   UNL     1       5.034  26.400  52.464  1.00  0.00     0.310 C 
ENDROOT
BRANCH   1   2
HETATM    2  C   UNL     1       5.609  27.683  51.816  1.00  0.00     0.257 C 
HETATM    3  N   UNL     1       5.167  28.164  50.621  1.00  0.00    -0.323 N 
HETATM    4  H   UNL     1       5.823  28.793  50.160  1.00  0.00     0.169 HD
HETATM    5  O   UNL     1       6.535  28.263  52.403  1.00  0.00    -0.270 OA
BRANCH   3   6
HETATM    6  C   UNL     1       4.087  27.769  49.803  1.00  0.00     0.069 A 
HETATM    7  C   UNL     1       4.100  26.605  49.028  1.00  0.00     0.039 A 
HETATM    8  C   UNL     1       2.999  26.268  48.230  1.00  0.00    -0.060 A 
HETATM    9  C   UNL     1       3.028  25.036  47.372  1.00  0.00     0.048 C 
HETATM   10  C   UNL     1       1.887  27.114  48.212  1.00  0.00     0.009 A 
HETATM   11  C   UNL     1       1.846  28.254  49.018  1.00  0.00     0.039 A 
HETATM   12  C   UNL     1       2.936  28.582  49.825  1.00  0.00     0.095 A 
BRANCH  12  13
HETATM   13  O   UNL     1       3.010  29.683  50.644  1.00  0.00    -0.354 OA
HETATM   14  C   UNL     1       2.975  30.960  50.012  1.00  0.00     0.210 C 
ENDBRANCH  12  13
ENDBRANCH   3   6
ENDBRANCH   1   2
BRANCH   1  15
HETATM   15  N   UNL     1       4.003  26.781  53.525  1.00  0.00    -0.054 N 
HETATM   16  H   UNL     1       3.124  26.317  53.252  1.00  0.00     0.278 HD
HETATM   17  H   UNL     1       4.279  26.397  54.431  1.00  0.00     0.278 HD
BRANCH  15  18
HETATM   18  C   UNL     1       3.673  28.226  53.679  1.00  0.00     0.272 C 
BRANCH  18  19
HETATM   19  C   UNL     1       4.438  28.822  54.827  1.00  0.00    -0.033 A 
HETATM   20  C   UNL     1       4.731  28.048  55.955  1.00  0.00     0.011 A 
HETATM   21  C   UNL     1       5.414  28.600  57.043  1.00  0.00     0.030 A 
HETATM   22  C   UNL     1       5.842  29.932  57.035  1.00  0.00     0.037 A 
HETATM   23  C   UNL     1       5.563  30.696  55.893  1.00  0.00     0.030 A 
HETATM   24  C   UNL     1       4.860  30.155  54.806  1.00  0.00     0.011 A 
BRANCH  22  25
HETATM   25  N   UNL     1       6.547  30.487  58.133  1.00  0.00    -0.318 N 
HETATM   26  C   UNL     1       7.721  29.970  58.709  1.00  0.00     0.224 C 
HETATM   27  O   UNL     1       8.347  28.967  58.403  1.00  0.00    -0.273 OA
HETATM   28  C   UNL     1       8.072  30.837  59.896  1.00  0.00     0.105 C 
HETATM   29  C   UNL     1       7.287  32.108  59.637  1.00  0.00     0.029 C 
HETATM   30  C   UNL     1       6.064  31.618  58.891  1.00  0.00     0.133 C 
ENDBRANCH  22  25
ENDBRANCH  18  19
ENDBRANCH  15  18
ENDBRANCH   1  15
BRANCH   1  31
HETATM   31  C   UNL     1       6.058  25.420  53.004  1.00  0.00    -0.019 A 
HETATM   32  C   UNL     1       7.053  24.915  52.148  1.00  0.00     0.010 A 
HETATM   33  C   UNL     1       7.982  23.982  52.615  1.00  0.00     0.001 A 
HETATM   34  C   UNL     1       7.926  23.536  53.933  1.00  0.00     0.000 A 
HETATM   35  C   UNL     1       6.942  24.018  54.790  1.00  0.00     0.001 A 
HETATM   36  C   UNL     1       6.010  24.950  54.330  1.00  0.00     0.010 A 
ENDBRANCH   1  31
TORSDOF 8
ENDMDL
MODEL 7
REMARK VINA RESULT:      -9.0      6.340      9.517
REMARK  8 active torsions:
REMARK  status: ('A' for Active; 'I' for Inactive)
REMARK    1  A    between atoms: C_4  and  N_5 
REMARK       I    between atoms: N_5  and  C_6 
REMARK    2  A    between atoms: C_6  and  C_7 
REMARK    3  A    between atoms: C_7  and  N_8 
REMARK    4  A    between atoms: C_7  and  C_24 
REMARK    5  A    between atoms: N_8  and  C_11 
REMARK    6  A    between atoms: C_11  and  C_12 
REMARK    7  A    between atoms: C_15  and  N_16 
REMARK    8  A    between atoms: C_31  and  O_32 
ROOT
HETATM    1  C   UNL     1       4.658  33.890  62.768  1.00  0.00     0.310 C 
ENDROOT
BRANCH   1   2
HETATM    2  C   UNL     1       3.159  33.530  62.627  1.00  0.00     0.257 C 
HETATM    3  N   UNL     1       2.575  33.273  61.424  1.00  0.00    -0.323 N 
HETATM    4  H   UNL     1       1.561  33.375  61.426  1.00  0.00     0.169 HD
HETATM    5  O   UNL     1       2.468  33.516  63.657  1.00  0.00    -0.270 OA
BRANCH   3   6
HETATM    6  C   UNL     1       3.130  33.128  60.135  1.00  0.00     0.069 A 
HETATM    7  C   UNL     1       3.527  31.896  59.607  1.00  0.00     0.039 A 
HETATM    8  C   UNL     1       4.078  31.816  58.321  1.00  0.00    -0.060 A 
HETATM    9  C   UNL     1       4.536  30.497  57.768  1.00  0.00     0.048 C 
HETATM   10  C   UNL     1       4.231  32.986  57.572  1.00  0.00     0.009 A 
HETATM   11  C   UNL     1       3.795  34.214  58.073  1.00  0.00     0.039 A 
HETATM   12  C   UNL     1       3.232  34.292  59.347  1.00  0.00     0.095 A 
BRANCH  12  13
HETATM   13  O   UNL     1       2.783  35.446  59.944  1.00  0.00    -0.354 OA
HETATM   14  C   UNL     1       2.403  36.513  59.079  1.00  0.00     0.210 C 
ENDBRANCH  12  13
ENDBRANCH   3   6
ENDBRANCH   1   2
BRANCH   1  15
HETATM   15  N   UNL     1       5.331  32.909  63.726  1.00  0.00    -0.054 N 
HETATM   16  H   UNL     1       5.033  33.183  64.675  1.00  0.00     0.278 HD
HETATM   17  H   UNL     1       4.978  31.963  63.560  1.00  0.00     0.278 HD
BRANCH  15  18
HETATM   18  C   UNL     1       6.821  32.884  63.755  1.00  0.00     0.272 C 
BRANCH  18  19
HETATM   19  C   UNL     1       7.362  32.261  62.498  1.00  0.00    -0.033 A 
HETATM   20  C   UNL     1       6.814  32.595  61.255  1.00  0.00     0.011 A 
HETATM   21  C   UNL     1       7.287  31.999  60.082  1.00  0.00     0.030 A 
HETATM   22  C   UNL     1       8.332  31.070  60.108  1.00  0.00     0.037 A 
HETATM   23  C   UNL     1       8.891  30.756  61.355  1.00  0.00     0.030 A 
HETATM   24  C   UNL     1       8.408  31.334  62.538  1.00  0.00     0.011 A 
BRANCH  22  25
HETATM   25  N   UNL     1       8.822  30.476  58.916  1.00  0.00    -0.318 N 
HETATM   26  C   UNL     1       9.900  30.941  58.143  1.00  0.00     0.224 C 
HETATM   27  O   UNL     1      10.605  31.922  58.324  1.00  0.00    -0.273 OA
HETATM   28  C   UNL     1      10.014  30.049  56.928  1.00  0.00     0.105 C 
HETATM   29  C   UNL     1       9.238  28.812  57.336  1.00  0.00     0.029 C 
HETATM   30  C   UNL     1       8.176  29.358  58.268  1.00  0.00     0.133 C 
ENDBRANCH  22  25
ENDBRANCH  18  19
ENDBRANCH  15  18
ENDBRANCH   1  15
BRANCH   1  31
HETATM   31  C   UNL     1       4.956  35.331  63.140  1.00  0.00    -0.019 A 
HETATM   32  C   UNL     1       5.544  36.185  62.191  1.00  0.00     0.010 A 
HETATM   33  C   UNL     1       5.863  37.503  62.525  1.00  0.00     0.001 A 
HETATM   34  C   UNL     1       5.608  37.983  63.807  1.00  0.00     0.000 A 
HETATM   35  C   UNL     1       5.035  37.148  64.762  1.00  0.00     0.001 A 
HETATM   36  C   UNL     1       4.715  35.829  64.435  1.00  0.00     0.010 A 
ENDBRANCH   1  31
TORSDOF 8
ENDMDL
MODEL 8
REMARK VINA RESULT:      -8.9      3.071      6.326
REMARK  8 active torsions:
REMARK  status: ('A' for Active; 'I' for Inactive)
REMARK    1  A    between atoms: C_4  and  N_5 
REMARK       I    between atoms: N_5  and  C_6 
REMARK    2  A    between atoms: C_6  and  C_7 
REMARK    3  A    between atoms: C_7  and  N_8 
REMARK    4  A    between atoms: C_7  and  C_24 
REMARK    5  A    between atoms: N_8  and  C_11 
REMARK    6  A    between atoms: C_11  and  C_12 
REMARK    7  A    between atoms: C_15  and  N_16 
REMARK    8  A    between atoms: C_31  and  O_32 
ROOT
HETATM    1  C   UNL     1       4.062  27.837  50.877  1.00  0.00     0.310 C 
ENDROOT
BRANCH   1   2
HETATM    2  C   UNL     1       5.118  28.968  50.915  1.00  0.00     0.257 C 
HETATM    3  N   UNL     1       5.344  29.725  52.024  1.00  0.00    -0.323 N 
HETATM    4  H   UNL     1       5.802  30.615  51.831  1.00  0.00     0.169 HD
HETATM    5  O   UNL     1       5.750  29.206  49.874  1.00  0.00    -0.270 OA
BRANCH   3   6
HETATM    6  C   UNL     1       4.850  29.613  53.341  1.00  0.00     0.069 A 
HETATM    7  C   UNL     1       5.282  28.632  54.239  1.00  0.00     0.039 A 
HETATM    8  C   UNL     1       4.750  28.567  55.533  1.00  0.00    -0.060 A 
HETATM    9  C   UNL     1       5.188  27.491  56.484  1.00  0.00     0.048 C 
HETATM   10  C   UNL     1       3.777  29.493  55.917  1.00  0.00     0.009 A 
HETATM   11  C   UNL     1       3.374  30.506  55.043  1.00  0.00     0.039 A 
HETATM   12  C   UNL     1       3.915  30.581  53.759  1.00  0.00     0.095 A 
BRANCH  12  13
HETATM   13  O   UNL     1       3.582  31.523  52.815  1.00  0.00    -0.354 OA
HETATM   14  C   UNL     1       3.980  32.865  53.077  1.00  0.00     0.210 C 
ENDBRANCH  12  13
ENDBRANCH   3   6
ENDBRANCH   1   2
BRANCH   1  15
HETATM   15  N   UNL     1       4.640  26.576  51.516  1.00  0.00    -0.054 N 
HETATM   16  H   UNL     1       4.411  26.632  52.520  1.00  0.00     0.278 HD
HETATM   17  H   UNL     1       4.167  25.749  51.145  1.00  0.00     0.278 HD
BRANCH  15  18
HETATM   18  C   UNL     1       6.115  26.378  51.443  1.00  0.00     0.272 C 
BRANCH  18  19
HETATM   19  C   UNL     1       6.548  25.289  52.384  1.00  0.00    -0.033 A 
HETATM   20  C   UNL     1       5.864  25.086  53.587  1.00  0.00     0.011 A 
HETATM   21  C   UNL     1       6.277  24.097  54.486  1.00  0.00     0.030 A 
HETATM   22  C   UNL     1       7.369  23.269  54.206  1.00  0.00     0.037 A 
HETATM   23  C   UNL     1       8.037  23.465  52.989  1.00  0.00     0.030 A 
HETATM   24  C   UNL     1       7.642  24.468  52.093  1.00  0.00     0.011 A 
BRANCH  22  25
HETATM   25  N   UNL     1       7.779  22.256  55.112  1.00  0.00    -0.318 N 
HETATM   26  C   UNL     1       8.199  22.455  56.439  1.00  0.00     0.224 C 
HETATM   27  O   UNL     1       8.306  23.501  57.059  1.00  0.00    -0.273 OA
HETATM   28  C   UNL     1       8.614  21.113  56.996  1.00  0.00     0.105 C 
HETATM   29  C   UNL     1       7.951  20.130  56.051  1.00  0.00     0.029 C 
HETATM   30  C   UNL     1       7.933  20.871  54.731  1.00  0.00     0.133 C 
ENDBRANCH  22  25
ENDBRANCH  18  19
ENDBRANCH  15  18
ENDBRANCH   1  15
BRANCH   1  31
HETATM   31  C   UNL     1       3.456  27.548  49.516  1.00  0.00    -0.019 A 
HETATM   32  C   UNL     1       2.385  28.332  49.053  1.00  0.00     0.010 A 
HETATM   33  C   UNL     1       1.787  28.059  47.820  1.00  0.00     0.001 A 
HETATM   34  C   UNL     1       2.243  26.999  47.040  1.00  0.00     0.000 A 
HETATM   35  C   UNL     1       3.296  26.207  47.488  1.00  0.00     0.001 A 
HETATM   36  C   UNL     1       3.896  26.474  48.719  1.00  0.00     0.010 A 
ENDBRANCH   1  31
TORSDOF 8
ENDMDL
MODEL 9
REMARK VINA RESULT:      -8.8      5.857      9.442
REMARK  8 active torsions:
REMARK  status: ('A' for Active; 'I' for Inactive)
REMARK    1  A    between atoms: C_4  and  N_5 
REMARK       I    between atoms: N_5  and  C_6 
REMARK    2  A    between atoms: C_6  and  C_7 
REMARK    3  A    between atoms: C_7  and  N_8 
REMARK    4  A    between atoms: C_7  and  C_24 
REMARK    5  A    between atoms: N_8  and  C_11 
REMARK    6  A    between atoms: C_11  and  C_12 
REMARK    7  A    between atoms: C_15  and  N_16 
REMARK    8  A    between atoms: C_31  and  O_32 
ROOT
HETATM    1  C   UNL     1       4.263  33.377  60.713  1.00  0.00     0.310 C 
ENDROOT
BRANCH   1   2
HETATM    2  C   UNL     1       3.914  32.060  61.449  1.00  0.00     0.257 C 
HETATM    3  N   UNL     1       4.545  31.668  62.591  1.00  0.00    -0.323 N 
HETATM    4  H   UNL     1       4.467  30.670  62.784  1.00  0.00     0.169 HD
HETATM    5  O   UNL     1       3.050  31.327  60.946  1.00  0.00    -0.270 OA
BRANCH   3   6
HETATM    6  C   UNL     1       5.475  32.337  63.415  1.00  0.00     0.069 A 
HETATM    7  C   UNL     1       5.105  33.084  64.537  1.00  0.00     0.039 A 
HETATM    8  C   UNL     1       6.074  33.731  65.314  1.00  0.00    -0.060 A 
HETATM    9  C   UNL     1       5.672  34.562  66.499  1.00  0.00     0.048 C 
HETATM   10  C   UNL     1       7.420  33.626  64.951  1.00  0.00     0.009 A 
HETATM   11  C   UNL     1       7.803  32.844  63.859  1.00  0.00     0.039 A 
HETATM   12  C   UNL     1       6.839  32.186  63.094  1.00  0.00     0.095 A 
BRANCH  12  13
HETATM   13  O   UNL     1       7.101  31.405  61.994  1.00  0.00    -0.354 OA
HETATM   14  C   UNL     1       8.454  31.351  61.549  1.00  0.00     0.210 C 
ENDBRANCH  12  13
ENDBRANCH   3   6
ENDBRANCH   1   2
BRANCH   1  15
HETATM   15  N   UNL     1       5.542  33.185  59.901  1.00  0.00    -0.054 N 
HETATM   16  H   UNL     1       6.087  34.053  60.013  1.00  0.00     0.278 HD
HETATM   17  H   UNL     1       6.098  32.426  60.302  1.00  0.00     0.278 HD
BRANCH  15  18
HETATM   18  C   UNL     1       5.403  32.976  58.432  1.00  0.00     0.272 C 
BRANCH  18  19
HETATM   19  C   UNL     1       5.631  31.532  58.081  1.00  0.00    -0.033 A 
HETATM   20  C   UNL     1       4.570  30.742  57.626  1.00  0.00     0.011 A 
HETATM   21  C   UNL     1       4.762  29.390  57.327  1.00  0.00     0.030 A 
HETATM   22  C   UNL     1       6.019  28.788  57.453  1.00  0.00     0.037 A 
HETATM   23  C   UNL     1       7.082  29.590  57.889  1.00  0.00     0.030 A 
HETATM   24  C   UNL     1       6.892  30.942  58.211  1.00  0.00     0.011 A 
BRANCH  22  25
HETATM   25  N   UNL     1       6.217  27.419  57.136  1.00  0.00    -0.318 N 
HETATM   26  C   UNL     1       7.429  26.714  57.238  1.00  0.00     0.224 C 
HETATM   27  O   UNL     1       8.523  27.120  57.595  1.00  0.00    -0.273 OA
HETATM   28  C   UNL     1       7.190  25.313  56.723  1.00  0.00     0.105 C 
HETATM   29  C   UNL     1       5.681  25.178  56.781  1.00  0.00     0.029 C 
HETATM   30  C   UNL     1       5.194  26.591  56.539  1.00  0.00     0.133 C 
ENDBRANCH  22  25
ENDBRANCH  18  19
ENDBRANCH  15  18
ENDBRANCH   1  15
BRANCH   1  31
HETATM   31  C   UNL     1       4.331  34.618  61.583  1.00  0.00    -0.019 A 
HETATM   32  C   UNL     1       3.163  35.098  62.200  1.00  0.00     0.010 A 
HETATM   33  C   UNL     1       3.196  36.261  62.973  1.00  0.00     0.001 A 
HETATM   34  C   UNL     1       4.388  36.963  63.133  1.00  0.00     0.000 A 
HETATM   35  C   UNL     1       5.552  36.507  62.521  1.00  0.00     0.001 A 
HETATM   36  C   UNL     1       5.525  35.346  61.746  1.00  0.00     0.010 A 
ENDBRANCH   1  31
TORSDOF 8
ENDMDL
MODEL 10
REMARK VINA RESULT:      -8.6      2.259      5.659
REMARK  8 active torsions:
REMARK  status: ('A' for Active; 'I' for Inactive)
REMARK    1  A    between atoms: C_4  and  N_5 
REMARK       I    between atoms: N_5  and  C_6 
REMARK    2  A    between atoms: C_6  and  C_7 
REMARK    3  A    between atoms: C_7  and  N_8 
REMARK    4  A    between atoms: C_7  and  C_24 
REMARK    5  A    between atoms: N_8  and  C_11 
REMARK    6  A    between atoms: C_11  and  C_12 
REMARK    7  A    between atoms: C_15  and  N_16 
REMARK    8  A    between atoms: C_31  and  O_32 
ROOT
HETATM    1  C   UNL     1       6.068  29.284  56.967  1.00  0.00     0.310 C 
ENDROOT
BRANCH   1   2
HETATM    2  C   UNL     1       7.522  29.768  56.744  1.00  0.00     0.257 C 
HETATM    3  N   UNL     1       8.177  30.562  57.635  1.00  0.00    -0.323 N 
HETATM    4  H   UNL     1       8.969  31.066  57.237  1.00  0.00     0.169 HD
HETATM    5  O   UNL     1       8.085  29.441  55.689  1.00  0.00    -0.270 OA
BRANCH   3   6
HETATM    6  C   UNL     1       7.821  30.995  58.930  1.00  0.00     0.069 A 
HETATM    7  C   UNL     1       8.455  30.540  60.091  1.00  0.00     0.039 A 
HETATM    8  C   UNL     1       8.053  31.002  61.351  1.00  0.00    -0.060 A 
HETATM    9  C   UNL     1       8.712  30.486  62.598  1.00  0.00     0.048 C 
HETATM   10  C   UNL     1       7.004  31.921  61.436  1.00  0.00     0.009 A 
HETATM   11  C   UNL     1       6.395  32.416  60.280  1.00  0.00     0.039 A 
HETATM   12  C   UNL     1       6.806  31.968  59.024  1.00  0.00     0.095 A 
BRANCH  12  13
HETATM   13  O   UNL     1       6.270  32.375  57.825  1.00  0.00    -0.354 OA
HETATM   14  C   UNL     1       5.097  33.181  57.885  1.00  0.00     0.210 C 
ENDBRANCH  12  13
ENDBRANCH   3   6
ENDBRANCH   1   2
BRANCH   1  15
HETATM   15  N   UNL     1       6.084  27.866  57.536  1.00  0.00    -0.054 N 
HETATM   16  H   UNL     1       5.620  27.920  58.455  1.00  0.00     0.278 HD
HETATM   17  H   UNL     1       5.517  27.250  56.948  1.00  0.00     0.278 HD
BRANCH  15  18
HETATM   18  C   UNL     1       7.410  27.235  57.782  1.00  0.00     0.272 C 
BRANCH  18  19
HETATM   19  C   UNL     1       7.525  25.939  57.029  1.00  0.00    -0.033 A 
HETATM   20  C   UNL     1       8.654  25.128  57.191  1.00  0.00     0.011 A 
HETATM   21  C   UNL     1       8.787  23.936  56.472  1.00  0.00     0.030 A 
HETATM   22  C   UNL     1       7.795  23.506  55.585  1.00  0.00     0.037 A 
HETATM   23  C   UNL     1       6.657  24.313  55.443  1.00  0.00     0.030 A 
HETATM   24  C   UNL     1       6.526  25.520  56.145  1.00  0.00     0.011 A 
BRANCH  22  25
HETATM   25  N   UNL     1       7.924  22.289  54.867  1.00  0.00    -0.318 N 
HETATM   26  C   UNL     1       7.994  22.159  53.468  1.00  0.00     0.224 C 
HETATM   27  O   UNL     1       7.948  23.031  52.615  1.00  0.00    -0.273 OA
HETATM   28  C   UNL     1       8.047  20.683  53.146  1.00  0.00     0.105 C 
HETATM   29  C   UNL     1       8.472  20.060  54.461  1.00  0.00     0.029 C 
HETATM   30  C   UNL     1       7.878  20.991  55.497  1.00  0.00     0.133 C 
ENDBRANCH  22  25
ENDBRANCH  18  19
ENDBRANCH  15  18
ENDBRANCH   1  15
BRANCH   1  31
HETATM   31  C   UNL     1       5.146  29.398  55.768  1.00  0.00    -0.019 A 
HETATM   32  C   UNL     1       4.781  28.238  55.061  1.00  0.00     0.010 A 
HETATM   33  C   UNL     1       3.965  28.324  53.932  1.00  0.00     0.001 A 
HETATM   34  C   UNL     1       3.509  29.563  53.489  1.00  0.00     0.000 A 
HETATM   35  C   UNL     1       3.869  30.722  54.171  1.00  0.00     0.001 A 
HETATM   36  C   UNL     1       4.685  30.643  55.300  1.00  0.00     0.010 A 
ENDBRANCH   1  31
TORSDOF 8
ENDMDL
