MODEL 1
REMARK VINA RESULT:      -8.9      0.000      0.000
REMARK  5 active torsions:
REMARK  status: ('A' for Active; 'I' for Inactive)
REMARK    1  A    between atoms: C_2  and  C_3 
REMARK    2  A    between atoms: C_3  and  N_4 
REMARK    3  A    between atoms: C_3  and  C_18 
REMARK    4  A    between atoms: N_4  and  C_7 
REMARK    5  A    between atoms: C_7  and  C_8 
ROOT
HETATM    1  N   UNL     1       7.760  23.230  56.165  1.00  0.00    -0.056 N 
HETATM    2  H   UNL     1       6.741  23.310  56.058  1.00  0.00     0.278 HD
HETATM    3  H   UNL     1       7.894  22.290  56.555  1.00  0.00     0.278 HD
ENDROOT
BRANCH   1   4
HETATM    4  C   UNL     1       8.378  23.249  54.795  1.00  0.00     0.292 C 
BRANCH   4   5
HETATM    5  C   UNL     1       7.554  24.031  53.786  1.00  0.00    -0.020 A 
HETATM    6  C   UNL     1       6.157  24.095  53.937  1.00  0.00     0.011 A 
HETATM    7  C   UNL     1       5.368  24.786  53.012  1.00  0.00     0.024 A 
HETATM    8  C   UNL     1       5.965  25.420  51.926  1.00  0.00     0.034 A 
HETATM    9  C   UNL     1       7.346  25.371  51.758  1.00  0.00     0.024 A 
HETATM   10 CL   UNL     1       4.995  26.268  50.790  1.00  0.00    -0.084 Cl
HETATM   11  C   UNL     1       8.138  24.680  52.680  1.00  0.00     0.011 A 
ENDBRANCH   4   5
BRANCH   4  12
HETATM   12  C   UNL     1       8.520  21.861  54.233  1.00  0.00     0.190 A 
HETATM   13  N   UNL     1       8.926  20.811  54.955  1.00  0.00    -0.109 NA
HETATM   14  O   UNL     1       8.844  19.751  54.046  1.00  0.00    -0.205 OA
HETATM   15  C   UNL     1       8.358  20.273  52.888  1.00  0.00     0.288 A 
HETATM   16  N   UNL     1       8.109  21.562  52.950  1.00  0.00    -0.215 NA
ENDBRANCH   4  12
ENDBRANCH   1   4
BRANCH   1  17
HETATM   17  C   UNL     1       8.263  24.244  57.118  1.00  0.00     0.272 C 
BRANCH  17  18
HETATM   18  C   UNL     1       7.365  25.447  57.128  1.00  0.00    -0.030 A 
HETATM   19  C   UNL     1       7.911  26.737  57.208  1.00  0.00     0.048 A 
HETATM   20  C   UNL     1       7.079  27.858  57.171  1.00  0.00     0.102 A 
HETATM   21  C   UNL     1       5.697  27.702  57.076  1.00  0.00     0.102 A 
HETATM   22  O   UNL     1       7.698  29.079  57.240  1.00  0.00    -0.346 OA
HETATM   23  O   UNL     1       4.822  28.755  57.069  1.00  0.00    -0.346 OA
HETATM   24  C   UNL     1       5.146  26.428  56.973  1.00  0.00     0.040 A 
HETATM   25  C   UNL     1       5.444  29.953  57.549  1.00  0.00     0.202 C 
HETATM   26  C   UNL     1       6.803  30.147  56.895  1.00  0.00     0.202 C 
HETATM   27  C   UNL     1       5.974  25.302  56.998  1.00  0.00     0.012 A 
ENDBRANCH  17  18
ENDBRANCH   1  17
TORSDOF 5
ENDMDL
MODEL 2
REMARK VINA RESULT:      -8.6      1.155      2.034
REMARK  5 active torsions:
REMARK  status: ('A' for Active; 'I' for Inactive)
REMARK    1  A    between atoms: C_2  and  C_3 
REMARK    2  A    between atoms: C_3  and  N_4 
REMARK    3  A    between atoms: C_3  and  C_18 
REMARK    4  A    between atoms: N_4  and  C_7 
REMARK    5  A    between atoms: C_7  and  C_8 
ROOT
HETATM    1  N   UNL     1       7.555  24.203  56.549  1.00  0.00    -0.056 N 
HETATM    2  H   UNL     1       6.579  24.482  56.398  1.00  0.00     0.278 HD
HETATM    3  H   UNL     1       7.483  23.338  57.096  1.00  0.00     0.278 HD
ENDROOT
BRANCH   1   4
HETATM    4  C   UNL     1       8.154  23.852  55.215  1.00  0.00     0.292 C 
BRANCH   4   5
HETATM    5  C   UNL     1       7.333  24.368  54.046  1.00  0.00    -0.020 A 
HETATM    6  C   UNL     1       7.988  24.794  52.876  1.00  0.00     0.011 A 
HETATM    7  C   UNL     1       7.262  25.297  51.792  1.00  0.00     0.024 A 
HETATM    8  C   UNL     1       5.875  25.382  51.864  1.00  0.00     0.034 A 
HETATM    9  C   UNL     1       5.206  24.965  53.011  1.00  0.00     0.024 A 
HETATM   10 CL   UNL     1       4.984  26.001  50.532  1.00  0.00    -0.084 Cl
HETATM   11  C   UNL     1       5.927  24.462  54.097  1.00  0.00     0.011 A 
ENDBRANCH   4   5
BRANCH   4  12
HETATM   12  C   UNL     1       8.255  22.363  55.029  1.00  0.00     0.190 A 
HETATM   13  N   UNL     1       7.624  21.478  55.809  1.00  0.00    -0.109 NA
HETATM   14  O   UNL     1       7.960  20.250  55.231  1.00  0.00    -0.205 OA
HETATM   15  C   UNL     1       8.723  20.533  54.142  1.00  0.00     0.288 A 
HETATM   16  N   UNL     1       8.915  21.819  53.947  1.00  0.00    -0.215 NA
ENDBRANCH   4  12
ENDBRANCH   1   4
BRANCH   1  17
HETATM   17  C   UNL     1       8.275  25.233  57.332  1.00  0.00     0.272 C 
BRANCH  17  18
HETATM   18  C   UNL     1       7.725  26.597  57.035  1.00  0.00    -0.030 A 
HETATM   19  C   UNL     1       6.357  26.769  56.773  1.00  0.00     0.048 A 
HETATM   20  C   UNL     1       5.837  28.044  56.544  1.00  0.00     0.102 A 
HETATM   21  C   UNL     1       6.679  29.155  56.550  1.00  0.00     0.102 A 
HETATM   22  O   UNL     1       4.489  28.120  56.312  1.00  0.00    -0.346 OA
HETATM   23  O   UNL     1       6.243  30.428  56.297  1.00  0.00    -0.346 OA
HETATM   24  C   UNL     1       8.034  29.000  56.829  1.00  0.00     0.040 A 
HETATM   25  C   UNL     1       4.956  30.423  55.667  1.00  0.00     0.202 C 
HETATM   26  C   UNL     1       4.013  29.472  56.387  1.00  0.00     0.202 C 
HETATM   27  C   UNL     1       8.558  27.728  57.072  1.00  0.00     0.012 A 
ENDBRANCH  17  18
ENDBRANCH   1  17
TORSDOF 5
ENDMDL
MODEL 3
REMARK VINA RESULT:      -8.5      3.658      5.170
REMARK  5 active torsions:
REMARK  status: ('A' for Active; 'I' for Inactive)
REMARK    1  A    between atoms: C_2  and  C_3 
REMARK    2  A    between atoms: C_3  and  N_4 
REMARK    3  A    between atoms: C_3  and  C_18 
REMARK    4  A    between atoms: N_4  and  C_7 
REMARK    5  A    between atoms: C_7  and  C_8 
ROOT
HETATM    1  N   UNL     1       7.675  27.500  55.261  1.00  0.00    -0.056 N 
HETATM    2  H   UNL     1       8.428  27.454  54.564  1.00  0.00     0.278 HD
HETATM    3  H   UNL     1       7.352  28.473  55.211  1.00  0.00     0.278 HD
ENDROOT
BRANCH   1   4
HETATM    4  C   UNL     1       6.549  26.620  54.793  1.00  0.00     0.292 C 
BRANCH   4   5
HETATM    5  C   UNL     1       7.017  25.237  54.373  1.00  0.00    -0.020 A 
HETATM    6  C   UNL     1       7.586  25.058  53.098  1.00  0.00     0.011 A 
HETATM    7  C   UNL     1       8.004  23.793  52.673  1.00  0.00     0.024 A 
HETATM    8  C   UNL     1       7.858  22.693  53.514  1.00  0.00     0.034 A 
HETATM    9  C   UNL     1       7.300  22.848  54.780  1.00  0.00     0.024 A 
HETATM   10 CL   UNL     1       8.371  21.140  52.989  1.00  0.00    -0.084 Cl
HETATM   11  C   UNL     1       6.879  24.110  55.209  1.00  0.00     0.011 A 
ENDBRANCH   4   5
BRANCH   4  12
HETATM   12  C   UNL     1       5.849  27.205  53.598  1.00  0.00     0.190 A 
HETATM   13  N   UNL     1       4.636  26.817  53.190  1.00  0.00    -0.109 NA
HETATM   14  O   UNL     1       4.380  27.664  52.107  1.00  0.00    -0.205 OA
HETATM   15  C   UNL     1       5.450  28.497  52.008  1.00  0.00     0.288 A 
HETATM   16  N   UNL     1       6.375  28.285  52.917  1.00  0.00    -0.215 NA
ENDBRANCH   4  12
ENDBRANCH   1   4
BRANCH   1  17
HETATM   17  C   UNL     1       8.202  27.215  56.614  1.00  0.00     0.272 C 
BRANCH  17  18
HETATM   18  C   UNL     1       8.691  28.477  57.263  1.00  0.00    -0.030 A 
HETATM   19  C   UNL     1       8.011  29.015  58.367  1.00  0.00     0.048 A 
HETATM   20  C   UNL     1       8.493  30.162  59.001  1.00  0.00     0.102 A 
HETATM   21  C   UNL     1       9.641  30.795  58.527  1.00  0.00     0.102 A 
HETATM   22  O   UNL     1       7.775  30.609  60.079  1.00  0.00    -0.346 OA
HETATM   23  O   UNL     1      10.148  31.941  59.078  1.00  0.00    -0.346 OA
HETATM   24  C   UNL     1      10.336  30.258  57.447  1.00  0.00     0.040 A 
HETATM   25  C   UNL     1       9.177  32.595  59.906  1.00  0.00     0.202 C 
HETATM   26  C   UNL     1       8.503  31.593  60.829  1.00  0.00     0.202 C 
HETATM   27  C   UNL     1       9.866  29.103  56.816  1.00  0.00     0.012 A 
ENDBRANCH  17  18
ENDBRANCH   1  17
TORSDOF 5
ENDMDL
MODEL 4
REMARK VINA RESULT:      -8.5      2.803      6.801
REMARK  5 active torsions:
REMARK  status: ('A' for Active; 'I' for Inactive)
REMARK    1  A    between atoms: C_2  and  C_3 
REMARK    2  A    between atoms: C_3  and  N_4 
REMARK    3  A    between atoms: C_3  and  C_18 
REMARK    4  A    between atoms: N_4  and  C_7 
REMARK    5  A    between atoms: C_7  and  C_8 
ROOT
HETATM    1  N   UNL     1       8.378  26.466  57.280  1.00  0.00    -0.056 N 
HETATM    2  H   UNL     1       8.695  26.455  56.304  1.00  0.00     0.278 HD
HETATM    3  H   UNL     1       9.249  26.503  57.823  1.00  0.00     0.278 HD
ENDROOT
BRANCH   1   4
HETATM    4  C   UNL     1       7.638  27.753  57.517  1.00  0.00     0.292 C 
BRANCH   4   5
HETATM    5  C   UNL     1       6.615  28.053  56.435  1.00  0.00    -0.020 A 
HETATM    6  C   UNL     1       5.259  28.192  56.785  1.00  0.00     0.011 A 
HETATM    7  C   UNL     1       4.290  28.444  55.808  1.00  0.00     0.024 A 
HETATM    8  C   UNL     1       4.663  28.558  54.473  1.00  0.00     0.034 A 
HETATM    9  C   UNL     1       5.999  28.426  54.104  1.00  0.00     0.024 A 
HETATM   10 CL   UNL     1       3.472  28.866  53.274  1.00  0.00    -0.084 Cl
HETATM   11  C   UNL     1       6.971  28.173  55.076  1.00  0.00     0.011 A 
ENDBRANCH   4   5
BRANCH   4  12
HETATM   12  C   UNL     1       8.572  28.931  57.547  1.00  0.00     0.190 A 
HETATM   13  N   UNL     1       8.301  30.071  58.191  1.00  0.00    -0.109 NA
HETATM   14  O   UNL     1       9.460  30.830  57.993  1.00  0.00    -0.205 OA
HETATM   15  C   UNL     1      10.316  30.047  57.286  1.00  0.00     0.288 A 
HETATM   16  N   UNL     1       9.839  28.854  57.006  1.00  0.00    -0.215 NA
ENDBRANCH   4  12
ENDBRANCH   1   4
BRANCH   1  17
HETATM   17  C   UNL     1       7.640  25.225  57.601  1.00  0.00     0.272 C 
BRANCH  17  18
HETATM   18  C   UNL     1       7.677  24.276  56.439  1.00  0.00    -0.030 A 
HETATM   19  C   UNL     1       8.391  23.070  56.532  1.00  0.00     0.048 A 
HETATM   20  C   UNL     1       8.387  22.165  55.469  1.00  0.00     0.102 A 
HETATM   21  C   UNL     1       7.693  22.464  54.297  1.00  0.00     0.102 A 
HETATM   22  O   UNL     1       9.098  21.008  55.651  1.00  0.00    -0.346 OA
HETATM   23  O   UNL     1       7.676  21.639  53.204  1.00  0.00    -0.346 OA
HETATM   24  C   UNL     1       6.964  23.646  54.202  1.00  0.00     0.040 A 
HETATM   25  C   UNL     1       8.731  20.671  53.265  1.00  0.00     0.202 C 
HETATM   26  C   UNL     1       8.790  20.033  54.644  1.00  0.00     0.202 C 
HETATM   27  C   UNL     1       6.953  24.550  55.268  1.00  0.00     0.012 A 
ENDBRANCH  17  18
ENDBRANCH   1  17
TORSDOF 5
ENDMDL
MODEL 5
REMARK VINA RESULT:      -8.5      3.284      4.618
REMARK  5 active torsions:
REMARK  status: ('A' for Active; 'I' for Inactive)
REMARK    1  A    between atoms: C_2  and  C_3 
REMARK    2  A    between atoms: C_3  and  N_4 
REMARK    3  A    between atoms: C_3  and  C_18 
REMARK    4  A    between atoms: N_4  and  C_7 
REMARK    5  A    between atoms: C_7  and  C_8 
ROOT
HETATM    1  N   UNL     1       7.008  26.366  54.810  1.00  0.00    -0.056 N 
HETATM    2  H   UNL     1       7.971  26.020  54.896  1.00  0.00     0.278 HD
HETATM    3  H   UNL     1       7.070  27.094  54.090  1.00  0.00     0.278 HD
ENDROOT
BRANCH   1   4
HETATM    4  C   UNL     1       6.157  25.253  54.263  1.00  0.00     0.292 C 
BRANCH   4   5
HETATM    5  C   UNL     1       6.866  23.910  54.273  1.00  0.00    -0.020 A 
HETATM    6  C   UNL     1       7.105  23.263  55.499  1.00  0.00     0.011 A 
HETATM    7  C   UNL     1       7.777  22.037  55.543  1.00  0.00     0.024 A 
HETATM    8  C   UNL     1       8.218  21.444  54.364  1.00  0.00     0.034 A 
HETATM    9  C   UNL     1       7.990  22.065  53.139  1.00  0.00     0.024 A 
HETATM   10 CL   UNL     1       9.043  19.939  54.419  1.00  0.00    -0.084 Cl
HETATM   11  C   UNL     1       7.320  23.291  53.090  1.00  0.00     0.011 A 
ENDBRANCH   4   5
BRANCH   4  12
HETATM   12  C   UNL     1       5.764  25.509  52.835  1.00  0.00     0.190 A 
HETATM   13  N   UNL     1       4.787  24.844  52.208  1.00  0.00    -0.109 NA
HETATM   14  O   UNL     1       4.746  25.453  50.950  1.00  0.00    -0.205 OA
HETATM   15  C   UNL     1       5.676  26.444  50.971  1.00  0.00     0.288 A 
HETATM   16  N   UNL     1       6.316  26.549  52.115  1.00  0.00    -0.215 NA
ENDBRANCH   4  12
ENDBRANCH   1   4
BRANCH   1  17
HETATM   17  C   UNL     1       6.554  26.962  56.086  1.00  0.00     0.272 C 
BRANCH  17  18
HETATM   18  C   UNL     1       7.503  28.037  56.531  1.00  0.00    -0.030 A 
HETATM   19  C   UNL     1       7.435  28.546  57.837  1.00  0.00     0.048 A 
HETATM   20  C   UNL     1       8.346  29.512  58.266  1.00  0.00     0.102 A 
HETATM   21  C   UNL     1       9.319  29.995  57.391  1.00  0.00     0.102 A 
HETATM   22  O   UNL     1       8.215  29.942  59.560  1.00  0.00    -0.346 OA
HETATM   23  O   UNL     1      10.221  30.966  57.734  1.00  0.00    -0.346 OA
HETATM   24  C   UNL     1       9.411  29.481  56.100  1.00  0.00     0.040 A 
HETATM   25  C   UNL     1       9.807  31.670  58.911  1.00  0.00     0.202 C 
HETATM   26  C   UNL     1       9.361  30.693  59.988  1.00  0.00     0.202 C 
HETATM   27  C   UNL     1       8.508  28.505  55.669  1.00  0.00     0.012 A 
ENDBRANCH  17  18
ENDBRANCH   1  17
TORSDOF 5
ENDMDL
MODEL 6
REMARK VINA RESULT:      -8.3      3.202      4.479
REMARK  5 active torsions:
REMARK  status: ('A' for Active; 'I' for Inactive)
REMARK    1  A    between atoms: C_2  and  C_3 
REMARK    2  A    between atoms: C_3  and  N_4 
REMARK    3  A    between atoms: C_3  and  C_18 
REMARK    4  A    between atoms: N_4  and  C_7 
REMARK    5  A    between atoms: C_7  and  C_8 
ROOT
HETATM    1  N   UNL     1       7.825  26.329  56.039  1.00  0.00    -0.056 N 
HETATM    2  H   UNL     1       8.678  25.763  55.958  1.00  0.00     0.278 HD
HETATM    3  H   UNL     1       8.048  27.187  55.521  1.00  0.00     0.278 HD
ENDROOT
BRANCH   1   4
HETATM    4  C   UNL     1       6.723  25.622  55.301  1.00  0.00     0.292 C 
BRANCH   4   5
HETATM    5  C   UNL     1       7.180  24.322  54.662  1.00  0.00    -0.020 A 
HETATM    6  C   UNL     1       7.234  23.151  55.439  1.00  0.00     0.011 A 
HETATM    7  C   UNL     1       7.674  21.944  54.886  1.00  0.00     0.024 A 
HETATM    8  C   UNL     1       8.066  21.893  53.551  1.00  0.00     0.034 A 
HETATM    9  C   UNL     1       8.019  23.040  52.763  1.00  0.00     0.024 A 
HETATM   10 CL   UNL     1       8.607  20.411  52.873  1.00  0.00    -0.084 Cl
HETATM   11  C   UNL     1       7.581  24.248  53.312  1.00  0.00     0.011 A 
ENDBRANCH   4   5
BRANCH   4  12
HETATM   12  C   UNL     1       6.174  26.467  54.184  1.00  0.00     0.190 A 
HETATM   13  N   UNL     1       5.004  26.226  53.584  1.00  0.00    -0.109 NA
HETATM   14  O   UNL     1       4.891  27.284  52.676  1.00  0.00    -0.205 OA
HETATM   15  C   UNL     1       5.987  28.067  52.858  1.00  0.00     0.288 A 
HETATM   16  N   UNL     1       6.800  27.633  53.794  1.00  0.00    -0.215 NA
ENDBRANCH   4  12
ENDBRANCH   1   4
BRANCH   1  17
HETATM   17  C   UNL     1       7.551  26.657  57.456  1.00  0.00     0.272 C 
BRANCH  17  18
HETATM   18  C   UNL     1       7.225  28.114  57.604  1.00  0.00    -0.030 A 
HETATM   19  C   UNL     1       5.928  28.581  57.338  1.00  0.00     0.048 A 
HETATM   20  C   UNL     1       5.612  29.928  57.521  1.00  0.00     0.102 A 
HETATM   21  C   UNL     1       6.590  30.825  57.949  1.00  0.00     0.102 A 
HETATM   22  O   UNL     1       4.320  30.293  57.250  1.00  0.00    -0.346 OA
HETATM   23  O   UNL     1       6.358  32.164  58.115  1.00  0.00    -0.346 OA
HETATM   24  C   UNL     1       7.873  30.370  58.238  1.00  0.00     0.040 A 
HETATM   25  C   UNL     1       5.158  32.572  57.447  1.00  0.00     0.202 C 
HETATM   26  C   UNL     1       4.024  31.606  57.749  1.00  0.00     0.202 C 
HETATM   27  C   UNL     1       8.193  29.020  58.068  1.00  0.00     0.012 A 
ENDBRANCH  17  18
ENDBRANCH   1  17
TORSDOF 5
ENDMDL
MODEL 7
REMARK VINA RESULT:      -8.3      3.517      7.473
REMARK  5 active torsions:
REMARK  status: ('A' for Active; 'I' for Inactive)
REMARK    1  A    between atoms: C_2  and  C_3 
REMARK    2  A    between atoms: C_3  and  N_4 
REMARK    3  A    between atoms: C_3  and  C_18 
REMARK    4  A    between atoms: N_4  and  C_7 
REMARK    5  A    between atoms: C_7  and  C_8 
ROOT
HETATM    1  N   UNL     1       7.317  26.289  57.320  1.00  0.00    -0.056 N 
HETATM    2  H   UNL     1       7.099  26.593  58.276  1.00  0.00     0.278 HD
HETATM    3  H   UNL     1       6.441  25.867  56.989  1.00  0.00     0.278 HD
ENDROOT
BRANCH   1   4
HETATM    4  C   UNL     1       7.579  27.513  56.487  1.00  0.00     0.292 C 
BRANCH   4   5
HETATM    5  C   UNL     1       8.256  28.625  57.270  1.00  0.00    -0.020 A 
HETATM    6  C   UNL     1       7.570  29.237  58.335  1.00  0.00     0.011 A 
HETATM    7  C   UNL     1       8.157  30.279  59.059  1.00  0.00     0.024 A 
HETATM    8  C   UNL     1       9.433  30.724  58.727  1.00  0.00     0.034 A 
HETATM    9  C   UNL     1      10.131  30.131  57.678  1.00  0.00     0.024 A 
HETATM   10 CL   UNL     1      10.152  32.005  59.617  1.00  0.00    -0.084 Cl
HETATM   11  C   UNL     1       9.548  29.090  56.951  1.00  0.00     0.011 A 
ENDBRANCH   4   5
BRANCH   4  12
HETATM   12  C   UNL     1       6.303  28.098  55.948  1.00  0.00     0.190 A 
HETATM   13  N   UNL     1       6.266  29.024  54.984  1.00  0.00    -0.109 NA
HETATM   14  O   UNL     1       4.895  29.211  54.777  1.00  0.00    -0.205 OA
HETATM   15  C   UNL     1       4.258  28.347  55.611  1.00  0.00     0.288 A 
HETATM   16  N   UNL     1       5.071  27.612  56.337  1.00  0.00    -0.215 NA
ENDBRANCH   4  12
ENDBRANCH   1   4
BRANCH   1  17
HETATM   17  C   UNL     1       8.390  25.270  57.331  1.00  0.00     0.272 C 
BRANCH  17  18
HETATM   18  C   UNL     1       8.191  24.286  56.215  1.00  0.00    -0.030 A 
HETATM   19  C   UNL     1       8.848  23.045  56.239  1.00  0.00     0.048 A 
HETATM   20  C   UNL     1       8.628  22.111  55.226  1.00  0.00     0.102 A 
HETATM   21  C   UNL     1       7.769  22.413  54.169  1.00  0.00     0.102 A 
HETATM   22  O   UNL     1       9.299  20.922  55.337  1.00  0.00    -0.346 OA
HETATM   23  O   UNL     1       7.535  21.558  53.126  1.00  0.00    -0.346 OA
HETATM   24  C   UNL     1       7.095  23.630  54.146  1.00  0.00     0.040 A 
HETATM   25  C   UNL     1       8.536  20.534  53.055  1.00  0.00     0.202 C 
HETATM   26  C   UNL     1       8.783  19.935  54.431  1.00  0.00     0.202 C 
HETATM   27  C   UNL     1       7.302  24.565  55.164  1.00  0.00     0.012 A 
ENDBRANCH  17  18
ENDBRANCH   1  17
TORSDOF 5
ENDMDL
MODEL 8
REMARK VINA RESULT:      -8.2      3.451      7.368
REMARK  5 active torsions:
REMARK  status: ('A' for Active; 'I' for Inactive)
REMARK    1  A    between atoms: C_2  and  C_3 
REMARK    2  A    between atoms: C_3  and  N_4 
REMARK    3  A    between atoms: C_3  and  C_18 
REMARK    4  A    between atoms: N_4  and  C_7 
REMARK    5  A    between atoms: C_7  and  C_8 
ROOT
HETATM    1  N   UNL     1       6.253  26.306  54.986  1.00  0.00    -0.056 N 
HETATM    2  H   UNL     1       7.022  25.981  55.584  1.00  0.00     0.278 HD
HETATM    3  H   UNL     1       5.418  26.190  55.572  1.00  0.00     0.278 HD
ENDROOT
BRANCH   1   4
HETATM    4  C   UNL     1       6.439  27.778  54.741  1.00  0.00     0.292 C 
BRANCH   4   5
HETATM    5  C   UNL     1       7.663  28.342  55.441  1.00  0.00    -0.020 A 
HETATM    6  C   UNL     1       8.714  28.876  54.672  1.00  0.00     0.011 A 
HETATM    7  C   UNL     1       9.865  29.381  55.286  1.00  0.00     0.024 A 
HETATM    8  C   UNL     1       9.980  29.357  56.673  1.00  0.00     0.034 A 
HETATM    9  C   UNL     1       8.952  28.835  57.453  1.00  0.00     0.024 A 
HETATM   10 CL   UNL     1      11.394  29.976  57.426  1.00  0.00    -0.084 Cl
HETATM   11  C   UNL     1       7.800  28.328  56.844  1.00  0.00     0.011 A 
ENDBRANCH   4   5
BRANCH   4  12
HETATM   12  C   UNL     1       5.266  28.574  55.243  1.00  0.00     0.190 A 
HETATM   13  N   UNL     1       4.393  28.113  56.145  1.00  0.00    -0.109 NA
HETATM   14  O   UNL     1       3.537  29.201  56.342  1.00  0.00    -0.205 OA
HETATM   15  C   UNL     1       4.012  30.211  55.566  1.00  0.00     0.288 A 
HETATM   16  N   UNL     1       5.093  29.897  54.889  1.00  0.00    -0.215 NA
ENDBRANCH   4  12
ENDBRANCH   1   4
BRANCH   1  17
HETATM   17  C   UNL     1       6.139  25.457  53.779  1.00  0.00     0.272 C 
BRANCH  17  18
HETATM   18  C   UNL     1       6.876  24.164  53.975  1.00  0.00    -0.030 A 
HETATM   19  C   UNL     1       7.183  23.713  55.268  1.00  0.00     0.048 A 
HETATM   20  C   UNL     1       7.826  22.488  55.453  1.00  0.00     0.102 A 
HETATM   21  C   UNL     1       8.190  21.714  54.351  1.00  0.00     0.102 A 
HETATM   22  O   UNL     1       8.074  22.119  56.749  1.00  0.00    -0.346 OA
HETATM   23  O   UNL     1       8.854  20.521  54.458  1.00  0.00    -0.346 OA
HETATM   24  C   UNL     1       7.871  22.141  53.065  1.00  0.00     0.040 A 
HETATM   25  C   UNL     1       9.449  20.371  55.753  1.00  0.00     0.202 C 
HETATM   26  C   UNL     1       8.456  20.738  56.844  1.00  0.00     0.202 C 
HETATM   27  C   UNL     1       7.215  23.360  52.874  1.00  0.00     0.012 A 
ENDBRANCH  17  18
ENDBRANCH   1  17
TORSDOF 5
ENDMDL
MODEL 9
REMARK VINA RESULT:      -8.1      3.406      7.356
REMARK  5 active torsions:
REMARK  status: ('A' for Active; 'I' for Inactive)
REMARK    1  A    between atoms: C_2  and  C_3 
REMARK    2  A    between atoms: C_3  and  N_4 
REMARK    3  A    between atoms: C_3  and  C_18 
REMARK    4  A    between atoms: N_4  and  C_7 
REMARK    5  A    between atoms: C_7  and  C_8 
ROOT
HETATM    1  N   UNL     1       7.445  27.094  56.885  1.00  0.00    -0.056 N 
HETATM    2  H   UNL     1       6.430  26.942  56.875  1.00  0.00     0.278 HD
HETATM    3  H   UNL     1       7.692  27.182  55.893  1.00  0.00     0.278 HD
ENDROOT
BRANCH   1   4
HETATM    4  C   UNL     1       7.712  28.421  57.542  1.00  0.00     0.292 C 
BRANCH   4   5
HETATM    5  C   UNL     1       6.580  29.414  57.348  1.00  0.00    -0.020 A 
HETATM    6  C   UNL     1       5.470  29.052  56.561  1.00  0.00     0.011 A 
HETATM    7  C   UNL     1       4.423  29.953  56.344  1.00  0.00     0.024 A 
HETATM    8  C   UNL     1       4.471  31.224  56.908  1.00  0.00     0.034 A 
HETATM    9  C   UNL     1       5.558  31.603  57.692  1.00  0.00     0.024 A 
HETATM   10 CL   UNL     1       3.184  32.330  56.640  1.00  0.00    -0.084 Cl
HETATM   11  C   UNL     1       6.608  30.706  57.911  1.00  0.00     0.011 A 
ENDBRANCH   4   5
BRANCH   4  12
HETATM   12  C   UNL     1       8.944  29.077  56.981  1.00  0.00     0.190 A 
HETATM   13  N   UNL     1       9.118  29.327  55.679  1.00  0.00    -0.109 NA
HETATM   14  O   UNL     1      10.352  29.985  55.646  1.00  0.00    -0.205 OA
HETATM   15  C   UNL     1      10.765  30.094  56.936  1.00  0.00     0.288 A 
HETATM   16  N   UNL     1       9.927  29.581  57.808  1.00  0.00    -0.215 NA
ENDBRANCH   4  12
ENDBRANCH   1   4
BRANCH   1  17
HETATM   17  C   UNL     1       8.140  25.928  57.474  1.00  0.00     0.272 C 
BRANCH  17  18
HETATM   18  C   UNL     1       8.036  24.740  56.563  1.00  0.00    -0.030 A 
HETATM   19  C   UNL     1       8.465  23.475  56.995  1.00  0.00     0.048 A 
HETATM   20  C   UNL     1       8.325  22.361  56.166  1.00  0.00     0.102 A 
HETATM   21  C   UNL     1       7.777  22.501  54.891  1.00  0.00     0.102 A 
HETATM   22  O   UNL     1       8.758  21.165  56.675  1.00  0.00    -0.346 OA
HETATM   23  O   UNL     1       7.644  21.458  54.014  1.00  0.00    -0.346 OA
HETATM   24  C   UNL     1       7.328  23.746  54.460  1.00  0.00     0.040 A 
HETATM   25  C   UNL     1       8.460  20.345  54.400  1.00  0.00     0.202 C 
HETATM   26  C   UNL     1       8.302  20.057  55.884  1.00  0.00     0.202 C 
HETATM   27  C   UNL     1       7.454  24.863  55.290  1.00  0.00     0.012 A 
ENDBRANCH  17  18
ENDBRANCH   1  17
TORSDOF 5
ENDMDL
MODEL 10
REMARK VINA RESULT:      -8.1      4.241      6.561
REMARK  5 active torsions:
REMARK  status: ('A' for Active; 'I' for Inactive)
REMARK    1  A    between atoms: C_2  and  C_3 
REMARK    2  A    between atoms: C_3  and  N_4 
REMARK    3  A    between atoms: C_3  and  C_18 
REMARK    4  A    between atoms: N_4  and  C_7 
REMARK    5  A    between atoms: C_7  and  C_8 
ROOT
HETATM    1  N   UNL     1       6.973  25.364  51.633  1.00  0.00    -0.056 N 
HETATM    2  H   UNL     1       7.511  25.953  50.986  1.00  0.00     0.278 HD
HETATM    3  H   UNL     1       7.116  24.412  51.277  1.00  0.00     0.278 HD
ENDROOT
BRANCH   1   4
HETATM    4  C   UNL     1       7.617  25.448  52.989  1.00  0.00     0.292 C 
BRANCH   4   5
HETATM    5  C   UNL     1       7.890  24.083  53.598  1.00  0.00    -0.020 A 
HETATM    6  C   UNL     1       7.654  22.925  52.834  1.00  0.00     0.011 A 
HETATM    7  C   UNL     1       7.872  21.654  53.374  1.00  0.00     0.024 A 
HETATM    8  C   UNL     1       8.327  21.524  54.682  1.00  0.00     0.034 A 
HETATM    9  C   UNL     1       8.570  22.656  55.456  1.00  0.00     0.024 A 
HETATM   10 CL   UNL     1       8.594  19.962  55.345  1.00  0.00    -0.084 Cl
HETATM   11  C   UNL     1       8.352  23.928  54.921  1.00  0.00     0.011 A 
ENDBRANCH   4   5
BRANCH   4  12
HETATM   12  C   UNL     1       6.743  26.177  53.972  1.00  0.00     0.190 A 
HETATM   13  N   UNL     1       5.741  25.595  54.640  1.00  0.00    -0.109 NA
HETATM   14  O   UNL     1       5.269  26.625  55.461  1.00  0.00    -0.205 OA
HETATM   15  C   UNL     1       6.065  27.701  55.226  1.00  0.00     0.288 A 
HETATM   16  N   UNL     1       7.011  27.479  54.341  1.00  0.00    -0.215 NA
ENDBRANCH   4  12
ENDBRANCH   1   4
BRANCH   1  17
HETATM   17  C   UNL     1       5.535  25.708  51.576  1.00  0.00     0.272 C 
BRANCH  17  18
HETATM   18  C   UNL     1       5.306  26.855  50.635  1.00  0.00    -0.030 A 
HETATM   19  C   UNL     1       5.680  28.157  51.000  1.00  0.00     0.048 A 
HETATM   20  C   UNL     1       5.511  29.217  50.107  1.00  0.00     0.102 A 
HETATM   21  C   UNL     1       4.947  28.991  48.851  1.00  0.00     0.102 A 
HETATM   22  O   UNL     1       5.916  30.451  50.541  1.00  0.00    -0.346 OA
HETATM   23  O   UNL     1       4.721  29.988  47.941  1.00  0.00    -0.346 OA
HETATM   24  C   UNL     1       4.594  27.700  48.469  1.00  0.00     0.040 A 
HETATM   25  C   UNL     1       4.764  31.280  48.561  1.00  0.00     0.202 C 
HETATM   26  C   UNL     1       5.981  31.398  49.464  1.00  0.00     0.202 C 
HETATM   27  C   UNL     1       4.772  26.634  49.355  1.00  0.00     0.012 A 
ENDBRANCH  17  18
ENDBRANCH   1  17
TORSDOF 5
ENDMDL
