MODEL 1
REMARK VINA RESULT:     -10.1      0.000      0.000
REMARK  8 active torsions:
REMARK  status: ('A' for Active; 'I' for Inactive)
REMARK    1  A    between atoms: C_4  and  S_5 
REMARK    2  A    between atoms: S_5  and  C_6 
REMARK    3  A    between atoms: C_6  and  C_7 
REMARK       I    between atoms: C_7  and  N_8 
REMARK    4  A    between atoms: N_8  and  C_9 
REMARK    5  A    between atoms: C_20  and  C_21 
REMARK    6  A    between atoms: C_27  and  C_28 
REMARK       I    between atoms: C_28  and  N_29 
REMARK    7  A    between atoms: N_29  and  C_30 
REMARK    8  A    between atoms: C_31  and  O_32 
ROOT
HETATM    1  C   UNL     1       9.614  31.551  59.074  1.00  0.00     0.069 C 
HETATM    2  C   UNL     1       8.445  30.809  58.478  1.00  0.00     0.019 C 
HETATM    3  N   UNL     1       8.761  29.728  57.672  1.00  0.00    -0.353 N 
HETATM    4  C   UNL     1       7.844  28.824  57.167  1.00  0.00     0.087 C 
HETATM    5  C   UNL     1       6.522  29.084  57.297  1.00  0.00     0.055 C 
HETATM    6  C   UNL     1       5.469  28.284  56.548  1.00  0.00     0.019 C 
HETATM    7  N   UNL     1       4.597  27.619  55.926  1.00  0.00    -0.096 N 
HETATM    8  C   UNL     1       6.023  30.304  58.080  1.00  0.00     0.104 C 
HETATM    9  C   UNL     1       7.147  31.110  58.711  1.00  0.00     0.046 C 
HETATM   10  H   UNL     1       9.723  29.397  57.696  1.00  0.00     0.166 HD
ENDROOT
BRANCH   4  11
HETATM   11  S   UNL     1       8.417  27.308  56.510  1.00  0.00    -0.102 SA
BRANCH  11  12
HETATM   12  C   UNL     1       7.716  26.083  57.659  1.00  0.00     0.184 C 
BRANCH  12  13
HETATM   13  C   UNL     1       7.322  24.782  56.950  1.00  0.00     0.231 C 
HETATM   14  N   UNL     1       8.365  23.897  56.746  1.00  0.00    -0.326 N 
HETATM   15  H   UNL     1       9.278  24.238  57.030  1.00  0.00     0.169 HD
HETATM   16  O   UNL     1       6.148  24.584  56.647  1.00  0.00    -0.272 OA
BRANCH  14  17
HETATM   17  C   UNL     1       8.343  22.635  56.123  1.00  0.00     0.036 A 
HETATM   18  C   UNL     1       8.249  22.441  54.744  1.00  0.00     0.053 A 
HETATM   19  C   UNL     1       8.243  21.146  54.221  1.00  0.00     0.036 A 
HETATM   20 CL   UNL     1       8.120  20.911  52.518  1.00  0.00    -0.084 Cl
HETATM   21  C   UNL     1       8.334  20.035  55.058  1.00  0.00     0.024 A 
HETATM   22  C   UNL     1       8.428  20.221  56.435  1.00  0.00     0.004 A 
HETATM   23  C   UNL     1       8.429  21.514  56.962  1.00  0.00     0.029 A 
ENDBRANCH  14  17
ENDBRANCH  12  13
ENDBRANCH  11  12
ENDBRANCH   4  11
BRANCH   8  24
HETATM   24  C   UNL     1       5.088  31.158  57.224  1.00  0.00    -0.044 A 
HETATM   25  C   UNL     1       3.697  31.027  57.378  1.00  0.00     0.008 A 
HETATM   26  C   UNL     1       2.822  31.750  56.568  1.00  0.00     0.001 A 
HETATM   27  C   UNL     1       3.323  32.615  55.600  1.00  0.00     0.000 A 
HETATM   28  C   UNL     1       4.701  32.764  55.443  1.00  0.00     0.001 A 
HETATM   29  C   UNL     1       5.581  32.041  56.250  1.00  0.00     0.008 A 
ENDBRANCH   8  24
BRANCH   9  30
HETATM   30  C   UNL     1       6.794  32.031  59.828  1.00  0.00     0.255 C 
HETATM   31  N   UNL     1       6.847  31.438  61.071  1.00  0.00    -0.321 N 
HETATM   32  H   UNL     1       6.843  30.427  61.101  1.00  0.00     0.169 HD
HETATM   33  O   UNL     1       6.415  33.167  59.562  1.00  0.00    -0.268 OA
BRANCH  31  34
HETATM   34  C   UNL     1       6.669  32.107  62.304  1.00  0.00     0.068 A 
HETATM   35  C   UNL     1       5.417  32.333  62.912  1.00  0.00     0.095 A 
HETATM   36  C   UNL     1       5.369  32.931  64.178  1.00  0.00     0.039 A 
HETATM   37  C   UNL     1       6.542  33.347  64.812  1.00  0.00     0.003 A 
HETATM   38  C   UNL     1       7.770  33.197  64.175  1.00  0.00     0.002 A 
HETATM   39  C   UNL     1       7.832  32.590  62.921  1.00  0.00     0.032 A 
BRANCH  35  40
HETATM   40  O   UNL     1       4.297  32.079  62.161  1.00  0.00    -0.354 OA
HETATM   41  C   UNL     1       3.497  33.187  61.775  1.00  0.00     0.210 C 
ENDBRANCH  35  40
ENDBRANCH  31  34
ENDBRANCH   9  30
TORSDOF 8
ENDMDL
MODEL 2
REMARK VINA RESULT:     -10.0      5.214      9.825
REMARK  8 active torsions:
REMARK  status: ('A' for Active; 'I' for Inactive)
REMARK    1  A    between atoms: C_4  and  S_5 
REMARK    2  A    between atoms: S_5  and  C_6 
REMARK    3  A    between atoms: C_6  and  C_7 
REMARK       I    between atoms: C_7  and  N_8 
REMARK    4  A    between atoms: N_8  and  C_9 
REMARK    5  A    between atoms: C_20  and  C_21 
REMARK    6  A    between atoms: C_27  and  C_28 
REMARK       I    between atoms: C_28  and  N_29 
REMARK    7  A    between atoms: N_29  and  C_30 
REMARK    8  A    between atoms: C_31  and  O_32 
ROOT
HETATM    1  C   UNL     1       5.640  26.466  50.815  1.00  0.00     0.069 C 
HETATM    2  C   UNL     1       5.366  27.287  52.049  1.00  0.00     0.019 C 
HETATM    3  N   UNL     1       4.926  28.583  51.829  1.00  0.00    -0.353 N 
HETATM    4  C   UNL     1       4.466  29.438  52.813  1.00  0.00     0.087 C 
HETATM    5  C   UNL     1       4.612  29.088  54.113  1.00  0.00     0.055 C 
HETATM    6  C   UNL     1       4.376  30.077  55.242  1.00  0.00     0.019 C 
HETATM    7  N   UNL     1       4.180  30.898  56.178  1.00  0.00    -0.096 N 
HETATM    8  C   UNL     1       5.180  27.720  54.510  1.00  0.00     0.104 C 
HETATM    9  C   UNL     1       5.487  26.831  53.316  1.00  0.00     0.046 C 
HETATM   10  H   UNL     1       4.636  28.819  50.883  1.00  0.00     0.166 HD
ENDROOT
BRANCH   4  11
HETATM   11  S   UNL     1       3.583  30.874  52.347  1.00  0.00    -0.102 SA
BRANCH  11  12
HETATM   12  C   UNL     1       4.390  31.350  50.787  1.00  0.00     0.184 C 
BRANCH  12  13
HETATM   13  C   UNL     1       4.212  30.289  49.695  1.00  0.00     0.231 C 
HETATM   14  N   UNL     1       2.921  29.811  49.558  1.00  0.00    -0.326 N 
HETATM   15  H   UNL     1       2.258  30.169  50.239  1.00  0.00     0.169 HD
HETATM   16  O   UNL     1       5.171  29.961  49.001  1.00  0.00    -0.272 OA
BRANCH  14  17
HETATM   17  C   UNL     1       2.429  28.838  48.669  1.00  0.00     0.036 A 
HETATM   18  C   UNL     1       2.852  27.508  48.646  1.00  0.00     0.053 A 
HETATM   19  C   UNL     1       2.295  26.615  47.727  1.00  0.00     0.036 A 
HETATM   20 CL   UNL     1       2.824  24.976  47.699  1.00  0.00    -0.084 Cl
HETATM   21  C   UNL     1       1.314  27.031  46.828  1.00  0.00     0.024 A 
HETATM   22  C   UNL     1       0.888  28.356  46.845  1.00  0.00     0.004 A 
HETATM   23  C   UNL     1       1.446  29.254  47.758  1.00  0.00     0.029 A 
ENDBRANCH  14  17
ENDBRANCH  12  13
ENDBRANCH  11  12
ENDBRANCH   4  11
BRANCH   8  24
HETATM   24  C   UNL     1       6.371  27.876  55.456  1.00  0.00    -0.044 A 
HETATM   25  C   UNL     1       6.255  27.448  56.789  1.00  0.00     0.008 A 
HETATM   26  C   UNL     1       7.305  27.634  57.688  1.00  0.00     0.001 A 
HETATM   27  C   UNL     1       8.482  28.244  57.267  1.00  0.00     0.000 A 
HETATM   28  C   UNL     1       8.616  28.665  55.944  1.00  0.00     0.001 A 
HETATM   29  C   UNL     1       7.567  28.483  55.040  1.00  0.00     0.008 A 
ENDBRANCH   8  24
BRANCH   9  30
HETATM   30  C   UNL     1       5.620  25.366  53.562  1.00  0.00     0.255 C 
HETATM   31  N   UNL     1       6.925  24.943  53.681  1.00  0.00    -0.321 N 
HETATM   32  H   UNL     1       7.646  25.561  53.334  1.00  0.00     0.169 HD
HETATM   33  O   UNL     1       4.610  24.671  53.552  1.00  0.00    -0.268 OA
BRANCH  31  34
HETATM   34  C   UNL     1       7.330  23.632  54.025  1.00  0.00     0.068 A 
HETATM   35  C   UNL     1       7.458  23.160  55.347  1.00  0.00     0.095 A 
HETATM   36  C   UNL     1       7.783  21.815  55.566  1.00  0.00     0.039 A 
HETATM   37  C   UNL     1       8.030  20.960  54.490  1.00  0.00     0.003 A 
HETATM   38  C   UNL     1       7.984  21.447  53.188  1.00  0.00     0.002 A 
HETATM   39  C   UNL     1       7.646  22.780  52.956  1.00  0.00     0.032 A 
BRANCH  35  40
HETATM   40  O   UNL     1       7.392  24.089  56.356  1.00  0.00    -0.354 OA
HETATM   41  C   UNL     1       8.546  24.268  57.163  1.00  0.00     0.210 C 
ENDBRANCH  35  40
ENDBRANCH  31  34
ENDBRANCH   9  30
TORSDOF 8
ENDMDL
MODEL 3
REMARK VINA RESULT:      -9.8      5.578     10.776
REMARK  8 active torsions:
REMARK  status: ('A' for Active; 'I' for Inactive)
REMARK    1  A    between atoms: C_4  and  S_5 
REMARK    2  A    between atoms: S_5  and  C_6 
REMARK    3  A    between atoms: C_6  and  C_7 
REMARK       I    between atoms: C_7  and  N_8 
REMARK    4  A    between atoms: N_8  and  C_9 
REMARK    5  A    between atoms: C_20  and  C_21 
REMARK    6  A    between atoms: C_27  and  C_28 
REMARK       I    between atoms: C_28  and  N_29 
REMARK    7  A    between atoms: N_29  and  C_30 
REMARK    8  A    between atoms: C_31  and  O_32 
ROOT
HETATM    1  C   UNL     1       5.732  26.445  50.796  1.00  0.00     0.069 C 
HETATM    2  C   UNL     1       5.422  27.284  52.009  1.00  0.00     0.019 C 
HETATM    3  N   UNL     1       4.996  28.579  51.758  1.00  0.00    -0.353 N 
HETATM    4  C   UNL     1       4.509  29.450  52.715  1.00  0.00     0.087 C 
HETATM    5  C   UNL     1       4.610  29.116  54.023  1.00  0.00     0.055 C 
HETATM    6  C   UNL     1       4.341  30.121  55.131  1.00  0.00     0.019 C 
HETATM    7  N   UNL     1       4.119  30.955  56.049  1.00  0.00    -0.096 N 
HETATM    8  C   UNL     1       5.156  27.750  54.456  1.00  0.00     0.104 C 
HETATM    9  C   UNL     1       5.498  26.844  53.285  1.00  0.00     0.046 C 
HETATM   10  H   UNL     1       4.739  28.805  50.800  1.00  0.00     0.166 HD
ENDROOT
BRANCH   4  11
HETATM   11  S   UNL     1       3.649  30.883  52.201  1.00  0.00    -0.102 SA
BRANCH  11  12
HETATM   12  C   UNL     1       3.961  30.915  50.408  1.00  0.00     0.184 C 
BRANCH  12  13
HETATM   13  C   UNL     1       5.283  31.610  50.062  1.00  0.00     0.231 C 
HETATM   14  N   UNL     1       5.156  32.927  49.661  1.00  0.00    -0.326 N 
HETATM   15  H   UNL     1       4.200  33.260  49.580  1.00  0.00     0.169 HD
HETATM   16  O   UNL     1       6.344  31.002  50.192  1.00  0.00    -0.272 OA
BRANCH  14  17
HETATM   17  C   UNL     1       6.161  33.833  49.270  1.00  0.00     0.036 A 
HETATM   18  C   UNL     1       6.487  34.994  49.970  1.00  0.00     0.053 A 
HETATM   19  C   UNL     1       7.507  35.827  49.503  1.00  0.00     0.036 A 
HETATM   20 CL   UNL     1       7.902  37.264  50.368  1.00  0.00    -0.084 Cl
HETATM   21  C   UNL     1       8.213  35.512  48.343  1.00  0.00     0.024 A 
HETATM   22  C   UNL     1       7.892  34.355  47.639  1.00  0.00     0.004 A 
HETATM   23  C   UNL     1       6.869  33.523  48.099  1.00  0.00     0.029 A 
ENDBRANCH  14  17
ENDBRANCH  12  13
ENDBRANCH  11  12
ENDBRANCH   4  11
BRANCH   8  24
HETATM   24  C   UNL     1       6.315  27.913  55.440  1.00  0.00    -0.044 A 
HETATM   25  C   UNL     1       7.527  28.466  54.994  1.00  0.00     0.008 A 
HETATM   26  C   UNL     1       8.620  28.571  55.856  1.00  0.00     0.001 A 
HETATM   27  C   UNL     1       8.513  28.129  57.171  1.00  0.00     0.000 A 
HETATM   28  C   UNL     1       7.313  27.588  57.631  1.00  0.00     0.001 A 
HETATM   29  C   UNL     1       6.218  27.479  56.772  1.00  0.00     0.008 A 
ENDBRANCH   8  24
BRANCH   9  30
HETATM   30  C   UNL     1       5.614  25.382  53.554  1.00  0.00     0.255 C 
HETATM   31  N   UNL     1       6.915  24.940  53.649  1.00  0.00    -0.321 N 
HETATM   32  H   UNL     1       7.636  25.541  53.273  1.00  0.00     0.169 HD
HETATM   33  O   UNL     1       4.594  24.702  53.582  1.00  0.00    -0.268 OA
BRANCH  31  34
HETATM   34  C   UNL     1       7.309  23.629  54.006  1.00  0.00     0.068 A 
HETATM   35  C   UNL     1       7.436  23.172  55.334  1.00  0.00     0.095 A 
HETATM   36  C   UNL     1       7.749  21.826  55.567  1.00  0.00     0.039 A 
HETATM   37  C   UNL     1       7.984  20.956  54.500  1.00  0.00     0.003 A 
HETATM   38  C   UNL     1       7.939  21.429  53.192  1.00  0.00     0.002 A 
HETATM   39  C   UNL     1       7.613  22.762  52.947  1.00  0.00     0.032 A 
BRANCH  35  40
HETATM   40  O   UNL     1       7.382  24.112  56.332  1.00  0.00    -0.354 OA
HETATM   41  C   UNL     1       8.510  24.233  57.185  1.00  0.00     0.210 C 
ENDBRANCH  35  40
ENDBRANCH  31  34
ENDBRANCH   9  30
TORSDOF 8
ENDMDL
MODEL 4
REMARK VINA RESULT:      -9.7      3.904     10.176
REMARK  8 active torsions:
REMARK  status: ('A' for Active; 'I' for Inactive)
REMARK    1  A    between atoms: C_4  and  S_5 
REMARK    2  A    between atoms: S_5  and  C_6 
REMARK    3  A    between atoms: C_6  and  C_7 
REMARK       I    between atoms: C_7  and  N_8 
REMARK    4  A    between atoms: N_8  and  C_9 
REMARK    5  A    between atoms: C_20  and  C_21 
REMARK    6  A    between atoms: C_27  and  C_28 
REMARK       I    between atoms: C_28  and  N_29 
REMARK    7  A    between atoms: N_29  and  C_30 
REMARK    8  A    between atoms: C_31  and  O_32 
ROOT
HETATM    1  C   UNL     1       3.799  28.670  54.812  1.00  0.00     0.069 C 
HETATM    2  C   UNL     1       4.715  29.262  55.854  1.00  0.00     0.019 C 
HETATM    3  N   UNL     1       4.405  30.545  56.274  1.00  0.00    -0.353 N 
HETATM    4  C   UNL     1       5.014  31.199  57.329  1.00  0.00     0.087 C 
HETATM    5  C   UNL     1       6.114  30.653  57.897  1.00  0.00     0.055 C 
HETATM    6  C   UNL     1       6.983  31.429  58.873  1.00  0.00     0.019 C 
HETATM    7  N   UNL     1       7.704  32.074  59.682  1.00  0.00    -0.096 N 
HETATM    8  C   UNL     1       6.635  29.277  57.463  1.00  0.00     0.104 C 
HETATM    9  C   UNL     1       5.764  28.615  56.408  1.00  0.00     0.046 C 
HETATM   10  H   UNL     1       3.495  30.914  56.007  1.00  0.00     0.166 HD
ENDROOT
BRANCH   4  11
HETATM   11  S   UNL     1       4.260  32.633  57.989  1.00  0.00    -0.102 SA
BRANCH  11  12
HETATM   12  C   UNL     1       3.719  32.078  59.636  1.00  0.00     0.184 C 
BRANCH  12  13
HETATM   13  C   UNL     1       4.342  32.911  60.762  1.00  0.00     0.231 C 
HETATM   14  N   UNL     1       4.929  32.172  61.773  1.00  0.00    -0.326 N 
HETATM   15  H   UNL     1       4.822  31.166  61.684  1.00  0.00     0.169 HD
HETATM   16  O   UNL     1       4.324  34.138  60.693  1.00  0.00    -0.272 OA
BRANCH  14  17
HETATM   17  C   UNL     1       5.571  32.625  62.940  1.00  0.00     0.036 A 
HETATM   18  C   UNL     1       4.904  33.091  64.073  1.00  0.00     0.053 A 
HETATM   19  C   UNL     1       5.633  33.513  65.188  1.00  0.00     0.036 A 
HETATM   20 CL   UNL     1       4.804  34.093  66.583  1.00  0.00    -0.084 Cl
HETATM   21  C   UNL     1       7.026  33.472  65.190  1.00  0.00     0.024 A 
HETATM   22  C   UNL     1       7.699  33.009  64.062  1.00  0.00     0.004 A 
HETATM   23  C   UNL     1       6.974  32.592  62.943  1.00  0.00     0.029 A 
ENDBRANCH  14  17
ENDBRANCH  12  13
ENDBRANCH  11  12
ENDBRANCH   4  11
BRANCH   8  24
HETATM   24  C   UNL     1       8.107  29.353  57.058  1.00  0.00    -0.044 A 
HETATM   25  C   UNL     1       9.090  29.506  58.049  1.00  0.00     0.008 A 
HETATM   26  C   UNL     1      10.435  29.637  57.702  1.00  0.00     0.001 A 
HETATM   27  C   UNL     1      10.813  29.614  56.363  1.00  0.00     0.000 A 
HETATM   28  C   UNL     1       9.849  29.453  55.368  1.00  0.00     0.001 A 
HETATM   29  C   UNL     1       8.502  29.322  55.710  1.00  0.00     0.008 A 
ENDBRANCH   8  24
BRANCH   9  30
HETATM   30  C   UNL     1       5.900  27.141  56.227  1.00  0.00     0.255 C 
HETATM   31  N   UNL     1       6.614  26.786  55.104  1.00  0.00    -0.321 N 
HETATM   32  H   UNL     1       6.736  27.493  54.391  1.00  0.00     0.169 HD
HETATM   33  O   UNL     1       5.319  26.393  57.006  1.00  0.00    -0.268 OA
BRANCH  31  34
HETATM   34  C   UNL     1       6.985  25.467  54.755  1.00  0.00     0.068 A 
HETATM   35  C   UNL     1       6.532  24.791  53.604  1.00  0.00     0.095 A 
HETATM   36  C   UNL     1       7.035  23.516  53.315  1.00  0.00     0.039 A 
HETATM   37  C   UNL     1       7.938  22.896  54.182  1.00  0.00     0.003 A 
HETATM   38  C   UNL     1       8.322  23.530  55.358  1.00  0.00     0.002 A 
HETATM   39  C   UNL     1       7.840  24.806  55.650  1.00  0.00     0.032 A 
BRANCH  35  40
HETATM   40  O   UNL     1       5.506  25.369  52.898  1.00  0.00    -0.354 OA
HETATM   41  C   UNL     1       5.831  26.028  51.683  1.00  0.00     0.210 C 
ENDBRANCH  35  40
ENDBRANCH  31  34
ENDBRANCH   9  30
TORSDOF 8
ENDMDL
MODEL 5
REMARK VINA RESULT:      -9.6      1.800      3.973
REMARK  8 active torsions:
REMARK  status: ('A' for Active; 'I' for Inactive)
REMARK    1  A    between atoms: C_4  and  S_5 
REMARK    2  A    between atoms: S_5  and  C_6 
REMARK    3  A    between atoms: C_6  and  C_7 
REMARK       I    between atoms: C_7  and  N_8 
REMARK    4  A    between atoms: N_8  and  C_9 
REMARK    5  A    between atoms: C_20  and  C_21 
REMARK    6  A    between atoms: C_27  and  C_28 
REMARK       I    between atoms: C_28  and  N_29 
REMARK    7  A    between atoms: N_29  and  C_30 
REMARK    8  A    between atoms: C_31  and  O_32 
ROOT
HETATM    1  C   UNL     1       4.069  30.182  57.811  1.00  0.00     0.069 C 
HETATM    2  C   UNL     1       5.574  30.222  57.731  1.00  0.00     0.019 C 
HETATM    3  N   UNL     1       6.172  29.176  57.047  1.00  0.00    -0.353 N 
HETATM    4  C   UNL     1       7.515  29.111  56.721  1.00  0.00     0.087 C 
HETATM    5  C   UNL     1       8.366  30.022  57.247  1.00  0.00     0.055 C 
HETATM    6  C   UNL     1       9.874  29.862  57.150  1.00  0.00     0.019 C 
HETATM    7  N   UNL     1      11.125  29.728  57.069  1.00  0.00    -0.096 N 
HETATM    8  C   UNL     1       7.856  31.183  58.111  1.00  0.00     0.104 C 
HETATM    9  C   UNL     1       6.342  31.209  58.243  1.00  0.00     0.046 C 
HETATM   10  H   UNL     1       5.565  28.578  56.491  1.00  0.00     0.166 HD
ENDROOT
BRANCH   4  11
HETATM   11  S   UNL     1       8.044  27.947  55.528  1.00  0.00    -0.102 SA
BRANCH  11  12
HETATM   12  C   UNL     1       6.474  27.268  54.907  1.00  0.00     0.184 C 
BRANCH  12  13
HETATM   13  C   UNL     1       6.398  25.745  55.068  1.00  0.00     0.231 C 
HETATM   14  N   UNL     1       7.609  25.090  54.945  1.00  0.00    -0.326 N 
HETATM   15  H   UNL     1       8.395  25.684  54.699  1.00  0.00     0.169 HD
HETATM   16  O   UNL     1       5.320  25.213  55.324  1.00  0.00    -0.272 OA
BRANCH  14  17
HETATM   17  C   UNL     1       7.880  23.711  55.028  1.00  0.00     0.036 A 
HETATM   18  C   UNL     1       7.943  22.856  53.927  1.00  0.00     0.053 A 
HETATM   19  C   UNL     1       8.227  21.500  54.113  1.00  0.00     0.036 A 
HETATM   20 CL   UNL     1       8.298  20.447  52.751  1.00  0.00    -0.084 Cl
HETATM   21  C   UNL     1       8.453  20.984  55.388  1.00  0.00     0.024 A 
HETATM   22  C   UNL     1       8.391  21.832  56.491  1.00  0.00     0.004 A 
HETATM   23  C   UNL     1       8.102  23.186  56.310  1.00  0.00     0.029 A 
ENDBRANCH  14  17
ENDBRANCH  12  13
ENDBRANCH  11  12
ENDBRANCH   4  11
BRANCH   8  24
HETATM   24  C   UNL     1       8.572  31.214  59.461  1.00  0.00    -0.044 A 
HETATM   25  C   UNL     1       8.342  30.184  60.389  1.00  0.00     0.008 A 
HETATM   26  C   UNL     1       8.935  30.220  61.651  1.00  0.00     0.001 A 
HETATM   27  C   UNL     1       9.767  31.280  61.999  1.00  0.00     0.000 A 
HETATM   28  C   UNL     1      10.013  32.303  61.085  1.00  0.00     0.001 A 
HETATM   29  C   UNL     1       9.420  32.274  59.822  1.00  0.00     0.008 A 
ENDBRANCH   8  24
BRANCH   9  30
HETATM   30  C   UNL     1       5.709  32.490  58.668  1.00  0.00     0.255 C 
HETATM   31  N   UNL     1       5.338  32.509  59.995  1.00  0.00    -0.321 N 
HETATM   32  H   UNL     1       5.268  31.618  60.468  1.00  0.00     0.169 HD
HETATM   33  O   UNL     1       5.497  33.355  57.824  1.00  0.00    -0.268 OA
BRANCH  31  34
HETATM   34  C   UNL     1       4.820  33.631  60.683  1.00  0.00     0.068 A 
HETATM   35  C   UNL     1       5.539  34.380  61.636  1.00  0.00     0.095 A 
HETATM   36  C   UNL     1       4.954  35.526  62.190  1.00  0.00     0.039 A 
HETATM   37  C   UNL     1       3.653  35.897  61.843  1.00  0.00     0.003 A 
HETATM   38  C   UNL     1       2.915  35.111  60.964  1.00  0.00     0.002 A 
HETATM   39  C   UNL     1       3.492  33.977  60.395  1.00  0.00     0.032 A 
BRANCH  35  40
HETATM   40  O   UNL     1       6.731  33.861  62.076  1.00  0.00    -0.354 OA
HETATM   41  C   UNL     1       6.714  33.092  63.270  1.00  0.00     0.210 C 
ENDBRANCH  35  40
ENDBRANCH  31  34
ENDBRANCH   9  30
TORSDOF 8
ENDMDL
MODEL 6
REMARK VINA RESULT:      -9.5      2.218      4.243
REMARK  8 active torsions:
REMARK  status: ('A' for Active; 'I' for Inactive)
REMARK    1  A    between atoms: C_4  and  S_5 
REMARK    2  A    between atoms: S_5  and  C_6 
REMARK    3  A    between atoms: C_6  and  C_7 
REMARK       I    between atoms: C_7  and  N_8 
REMARK    4  A    between atoms: N_8  and  C_9 
REMARK    5  A    between atoms: C_20  and  C_21 
REMARK    6  A    between atoms: C_27  and  C_28 
REMARK       I    between atoms: C_28  and  N_29 
REMARK    7  A    between atoms: N_29  and  C_30 
REMARK    8  A    between atoms: C_31  and  O_32 
ROOT
HETATM    1  C   UNL     1       3.438  30.694  58.100  1.00  0.00     0.069 C 
HETATM    2  C   UNL     1       4.942  30.601  58.064  1.00  0.00     0.019 C 
HETATM    3  N   UNL     1       5.465  29.430  57.540  1.00  0.00    -0.353 N 
HETATM    4  C   UNL     1       6.804  29.215  57.268  1.00  0.00     0.087 C 
HETATM    5  C   UNL     1       7.717  30.116  57.698  1.00  0.00     0.055 C 
HETATM    6  C   UNL     1       9.208  29.823  57.670  1.00  0.00     0.019 C 
HETATM    7  N   UNL     1      10.445  29.579  57.647  1.00  0.00    -0.096 N 
HETATM    8  C   UNL     1       7.289  31.417  58.386  1.00  0.00     0.104 C 
HETATM    9  C   UNL     1       5.780  31.583  58.466  1.00  0.00     0.046 C 
HETATM   10  H   UNL     1       4.821  28.814  57.048  1.00  0.00     0.166 HD
ENDROOT
BRANCH   4  11
HETATM   11  S   UNL     1       7.258  27.864  56.255  1.00  0.00    -0.102 SA
BRANCH  11  12
HETATM   12  C   UNL     1       5.648  27.201  55.726  1.00  0.00     0.184 C 
BRANCH  12  13
HETATM   13  C   UNL     1       5.788  25.876  54.967  1.00  0.00     0.231 C 
HETATM   14  N   UNL     1       6.901  25.130  55.307  1.00  0.00    -0.326 N 
HETATM   15  H   UNL     1       7.529  25.576  55.970  1.00  0.00     0.169 HD
HETATM   16  O   UNL     1       4.922  25.540  54.162  1.00  0.00    -0.272 OA
BRANCH  14  17
HETATM   17  C   UNL     1       7.322  23.887  54.797  1.00  0.00     0.036 A 
HETATM   18  C   UNL     1       7.440  22.725  55.559  1.00  0.00     0.053 A 
HETATM   19  C   UNL     1       7.860  21.536  54.957  1.00  0.00     0.036 A 
HETATM   20 CL   UNL     1       8.009  20.104  55.904  1.00  0.00    -0.084 Cl
HETATM   21  C   UNL     1       8.162  21.490  53.597  1.00  0.00     0.024 A 
HETATM   22  C   UNL     1       8.048  22.647  52.831  1.00  0.00     0.004 A 
HETATM   23  C   UNL     1       7.634  23.838  53.430  1.00  0.00     0.029 A 
ENDBRANCH  14  17
ENDBRANCH  12  13
ENDBRANCH  11  12
ENDBRANCH   4  11
BRANCH   8  24
HETATM   24  C   UNL     1       7.976  31.569  59.744  1.00  0.00    -0.044 A 
HETATM   25  C   UNL     1       7.287  31.203  60.912  1.00  0.00     0.008 A 
HETATM   26  C   UNL     1       7.868  31.387  62.167  1.00  0.00     0.001 A 
HETATM   27  C   UNL     1       9.144  31.935  62.269  1.00  0.00     0.000 A 
HETATM   28  C   UNL     1       9.844  32.293  61.118  1.00  0.00     0.001 A 
HETATM   29  C   UNL     1       9.266  32.112  59.860  1.00  0.00     0.008 A 
ENDBRANCH   8  24
BRANCH   9  30
HETATM   30  C   UNL     1       5.248  32.956  58.701  1.00  0.00     0.255 C 
HETATM   31  N   UNL     1       4.622  33.105  59.919  1.00  0.00    -0.321 N 
HETATM   32  H   UNL     1       4.342  32.261  60.401  1.00  0.00     0.169 HD
HETATM   33  O   UNL     1       5.326  33.783  57.799  1.00  0.00    -0.268 OA
BRANCH  31  34
HETATM   34  C   UNL     1       4.129  34.323  60.441  1.00  0.00     0.068 A 
HETATM   35  C   UNL     1       2.918  34.925  60.044  1.00  0.00     0.095 A 
HETATM   36  C   UNL     1       2.486  36.090  60.693  1.00  0.00     0.039 A 
HETATM   37  C   UNL     1       3.270  36.680  61.687  1.00  0.00     0.003 A 
HETATM   38  C   UNL     1       4.504  36.130  62.021  1.00  0.00     0.002 A 
HETATM   39  C   UNL     1       4.936  34.963  61.393  1.00  0.00     0.032 A 
BRANCH  35  40
HETATM   40  O   UNL     1       2.291  34.409  58.937  1.00  0.00    -0.354 OA
HETATM   41  C   UNL     1       1.880  35.320  57.928  1.00  0.00     0.210 C 
ENDBRANCH  35  40
ENDBRANCH  31  34
ENDBRANCH   9  30
TORSDOF 8
ENDMDL
MODEL 7
REMARK VINA RESULT:      -9.4      5.630     10.863
REMARK  8 active torsions:
REMARK  status: ('A' for Active; 'I' for Inactive)
REMARK    1  A    between atoms: C_4  and  S_5 
REMARK    2  A    between atoms: S_5  and  C_6 
REMARK    3  A    between atoms: C_6  and  C_7 
REMARK       I    between atoms: C_7  and  N_8 
REMARK    4  A    between atoms: N_8  and  C_9 
REMARK    5  A    between atoms: C_20  and  C_21 
REMARK    6  A    between atoms: C_27  and  C_28 
REMARK       I    between atoms: C_28  and  N_29 
REMARK    7  A    between atoms: N_29  and  C_30 
REMARK    8  A    between atoms: C_31  and  O_32 
ROOT
HETATM    1  C   UNL     1       4.290  31.003  52.435  1.00  0.00     0.069 C 
HETATM    2  C   UNL     1       4.535  29.816  53.331  1.00  0.00     0.019 C 
HETATM    3  N   UNL     1       4.974  30.105  54.613  1.00  0.00    -0.353 N 
HETATM    4  C   UNL     1       5.099  29.179  55.633  1.00  0.00     0.087 C 
HETATM    5  C   UNL     1       4.968  27.863  55.348  1.00  0.00     0.055 C 
HETATM    6  C   UNL     1       5.346  26.783  56.349  1.00  0.00     0.019 C 
HETATM    7  N   UNL     1       5.662  25.889  57.179  1.00  0.00    -0.096 N 
HETATM    8  C   UNL     1       4.581  27.387  53.942  1.00  0.00     0.104 C 
HETATM    9  C   UNL     1       4.321  28.529  52.975  1.00  0.00     0.046 C 
HETATM   10  H   UNL     1       4.912  31.074  54.917  1.00  0.00     0.166 HD
ENDROOT
BRANCH   4  11
HETATM   11  S   UNL     1       5.276  29.746  57.278  1.00  0.00    -0.102 SA
BRANCH  11  12
HETATM   12  C   UNL     1       7.037  30.201  57.356  1.00  0.00     0.184 C 
BRANCH  12  13
HETATM   13  C   UNL     1       7.530  30.363  58.799  1.00  0.00     0.231 C 
HETATM   14  N   UNL     1       6.950  31.408  59.495  1.00  0.00    -0.326 N 
HETATM   15  H   UNL     1       6.315  31.985  58.950  1.00  0.00     0.169 HD
HETATM   16  O   UNL     1       8.348  29.568  59.256  1.00  0.00    -0.272 OA
BRANCH  14  17
HETATM   17  C   UNL     1       7.186  31.827  60.817  1.00  0.00     0.036 A 
HETATM   18  C   UNL     1       6.180  32.090  61.749  1.00  0.00     0.053 A 
HETATM   19  C   UNL     1       6.518  32.496  63.043  1.00  0.00     0.036 A 
HETATM   20 CL   UNL     1       5.273  32.826  64.188  1.00  0.00    -0.084 Cl
HETATM   21  C   UNL     1       7.851  32.640  63.423  1.00  0.00     0.024 A 
HETATM   22  C   UNL     1       8.859  32.380  62.499  1.00  0.00     0.004 A 
HETATM   23  C   UNL     1       8.526  31.979  61.203  1.00  0.00     0.029 A 
ENDBRANCH  14  17
ENDBRANCH  12  13
ENDBRANCH  11  12
ENDBRANCH   4  11
BRANCH   8  24
HETATM   24  C   UNL     1       5.598  26.377  53.409  1.00  0.00    -0.044 A 
HETATM   25  C   UNL     1       5.195  25.052  53.168  1.00  0.00     0.008 A 
HETATM   26  C   UNL     1       6.116  24.097  52.739  1.00  0.00     0.001 A 
HETATM   27  C   UNL     1       7.447  24.453  52.542  1.00  0.00     0.000 A 
HETATM   28  C   UNL     1       7.859  25.766  52.766  1.00  0.00     0.001 A 
HETATM   29  C   UNL     1       6.942  26.725  53.198  1.00  0.00     0.008 A 
ENDBRANCH   8  24
BRANCH   9  30
HETATM   30  C   UNL     1       3.534  28.227  51.745  1.00  0.00     0.255 C 
HETATM   31  N   UNL     1       4.311  27.852  50.671  1.00  0.00    -0.321 N 
HETATM   32  H   UNL     1       5.297  28.072  50.714  1.00  0.00     0.169 HD
HETATM   33  O   UNL     1       2.321  28.411  51.758  1.00  0.00    -0.268 OA
BRANCH  31  34
HETATM   34  C   UNL     1       3.818  27.405  49.423  1.00  0.00     0.068 A 
HETATM   35  C   UNL     1       3.324  28.256  48.413  1.00  0.00     0.095 A 
HETATM   36  C   UNL     1       2.942  27.707  47.181  1.00  0.00     0.039 A 
HETATM   37  C   UNL     1       3.001  26.327  46.970  1.00  0.00     0.003 A 
HETATM   38  C   UNL     1       3.412  25.482  47.996  1.00  0.00     0.002 A 
HETATM   39  C   UNL     1       3.808  26.018  49.221  1.00  0.00     0.032 A 
BRANCH  35  40
HETATM   40  O   UNL     1       3.111  29.570  48.745  1.00  0.00    -0.354 OA
HETATM   41  C   UNL     1       1.772  30.042  48.744  1.00  0.00     0.210 C 
ENDBRANCH  35  40
ENDBRANCH  31  34
ENDBRANCH   9  30
TORSDOF 8
ENDMDL
MODEL 8
REMARK VINA RESULT:      -9.3      3.855      9.160
REMARK  8 active torsions:
REMARK  status: ('A' for Active; 'I' for Inactive)
REMARK    1  A    between atoms: C_4  and  S_5 
REMARK    2  A    between atoms: S_5  and  C_6 
REMARK    3  A    between atoms: C_6  and  C_7 
REMARK       I    between atoms: C_7  and  N_8 
REMARK    4  A    between atoms: N_8  and  C_9 
REMARK    5  A    between atoms: C_20  and  C_21 
REMARK    6  A    between atoms: C_27  and  C_28 
REMARK       I    between atoms: C_28  and  N_29 
REMARK    7  A    between atoms: N_29  and  C_30 
REMARK    8  A    between atoms: C_31  and  O_32 
ROOT
HETATM    1  C   UNL     1       4.863  26.015  57.099  1.00  0.00     0.069 C 
HETATM    2  C   UNL     1       4.848  27.043  55.996  1.00  0.00     0.019 C 
HETATM    3  N   UNL     1       3.955  28.090  56.155  1.00  0.00    -0.353 N 
HETATM    4  C   UNL     1       3.901  29.212  55.349  1.00  0.00     0.087 C 
HETATM    5  C   UNL     1       4.631  29.240  54.209  1.00  0.00     0.055 C 
HETATM    6  C   UNL     1       4.425  30.312  53.150  1.00  0.00     0.019 C 
HETATM    7  N   UNL     1       4.253  31.201  52.273  1.00  0.00    -0.096 N 
HETATM    8  C   UNL     1       5.592  28.101  53.850  1.00  0.00     0.104 C 
HETATM    9  C   UNL     1       5.659  27.018  54.915  1.00  0.00     0.046 C 
HETATM   10  H   UNL     1       3.525  28.198  57.071  1.00  0.00     0.166 HD
ENDROOT
BRANCH   4  11
HETATM   11  S   UNL     1       3.009  30.612  55.898  1.00  0.00    -0.102 SA
BRANCH  11  12
HETATM   12  C   UNL     1       3.457  30.705  57.660  1.00  0.00     0.184 C 
BRANCH  12  13
HETATM   13  C   UNL     1       4.884  31.228  57.868  1.00  0.00     0.231 C 
HETATM   14  N   UNL     1       5.835  30.246  58.076  1.00  0.00    -0.326 N 
HETATM   15  H   UNL     1       5.469  29.300  58.131  1.00  0.00     0.169 HD
HETATM   16  O   UNL     1       5.106  32.435  57.803  1.00  0.00    -0.272 OA
BRANCH  14  17
HETATM   17  C   UNL     1       7.216  30.389  58.306  1.00  0.00     0.036 A 
HETATM   18  C   UNL     1       7.765  31.077  59.389  1.00  0.00     0.053 A 
HETATM   19  C   UNL     1       9.152  31.156  59.534  1.00  0.00     0.036 A 
HETATM   20 CL   UNL     1       9.825  32.012  60.869  1.00  0.00    -0.084 Cl
HETATM   21  C   UNL     1      10.004  30.551  58.611  1.00  0.00     0.024 A 
HETATM   22  C   UNL     1       9.464  29.863  57.529  1.00  0.00     0.004 A 
HETATM   23  C   UNL     1       8.078  29.786  57.376  1.00  0.00     0.029 A 
ENDBRANCH  14  17
ENDBRANCH  12  13
ENDBRANCH  11  12
ENDBRANCH   4  11
BRANCH   8  24
HETATM   24  C   UNL     1       5.287  27.547  52.458  1.00  0.00    -0.044 A 
HETATM   25  C   UNL     1       4.820  26.228  52.325  1.00  0.00     0.008 A 
HETATM   26  C   UNL     1       4.591  25.679  51.064  1.00  0.00     0.001 A 
HETATM   27  C   UNL     1       4.821  26.440  49.922  1.00  0.00     0.000 A 
HETATM   28  C   UNL     1       5.273  27.754  50.038  1.00  0.00     0.001 A 
HETATM   29  C   UNL     1       5.505  28.308  51.298  1.00  0.00     0.008 A 
ENDBRANCH   8  24
BRANCH   9  30
HETATM   30  C   UNL     1       6.842  26.110  54.901  1.00  0.00     0.255 C 
HETATM   31  N   UNL     1       6.510  24.773  54.861  1.00  0.00    -0.321 N 
HETATM   32  H   UNL     1       5.563  24.524  55.114  1.00  0.00     0.169 HD
HETATM   33  O   UNL     1       7.963  26.595  55.010  1.00  0.00    -0.268 OA
BRANCH  31  34
HETATM   34  C   UNL     1       7.430  23.707  54.730  1.00  0.00     0.068 A 
HETATM   35  C   UNL     1       8.040  23.044  55.814  1.00  0.00     0.095 A 
HETATM   36  C   UNL     1       8.870  21.943  55.565  1.00  0.00     0.039 A 
HETATM   37  C   UNL     1       9.133  21.535  54.256  1.00  0.00     0.003 A 
HETATM   38  C   UNL     1       8.596  22.240  53.184  1.00  0.00     0.002 A 
HETATM   39  C   UNL     1       7.756  23.328  53.419  1.00  0.00     0.032 A 
BRANCH  35  40
HETATM   40  O   UNL     1       7.896  23.608  57.057  1.00  0.00    -0.354 OA
HETATM   41  C   UNL     1       8.947  24.437  57.531  1.00  0.00     0.210 C 
ENDBRANCH  35  40
ENDBRANCH  31  34
ENDBRANCH   9  30
TORSDOF 8
ENDMDL
MODEL 9
REMARK VINA RESULT:      -9.2      2.089      2.652
REMARK  8 active torsions:
REMARK  status: ('A' for Active; 'I' for Inactive)
REMARK    1  A    between atoms: C_4  and  S_5 
REMARK    2  A    between atoms: S_5  and  C_6 
REMARK    3  A    between atoms: C_6  and  C_7 
REMARK       I    between atoms: C_7  and  N_8 
REMARK    4  A    between atoms: N_8  and  C_9 
REMARK    5  A    between atoms: C_20  and  C_21 
REMARK    6  A    between atoms: C_27  and  C_28 
REMARK       I    between atoms: C_28  and  N_29 
REMARK    7  A    between atoms: N_29  and  C_30 
REMARK    8  A    between atoms: C_31  and  O_32 
ROOT
HETATM    1  C   UNL     1       7.871  31.274  59.938  1.00  0.00     0.069 C 
HETATM    2  C   UNL     1       6.609  31.407  59.124  1.00  0.00     0.019 C 
HETATM    3  N   UNL     1       6.432  30.465  58.123  1.00  0.00    -0.353 N 
HETATM    4  C   UNL     1       5.277  30.311  57.378  1.00  0.00     0.087 C 
HETATM    5  C   UNL     1       4.299  31.241  57.479  1.00  0.00     0.055 C 
HETATM    6  C   UNL     1       3.128  31.283  56.511  1.00  0.00     0.019 C 
HETATM    7  N   UNL     1       2.158  31.317  55.707  1.00  0.00    -0.096 N 
HETATM    8  C   UNL     1       4.402  32.401  58.477  1.00  0.00     0.104 C 
HETATM    9  C   UNL     1       5.655  32.341  59.336  1.00  0.00     0.046 C 
HETATM   10  H   UNL     1       7.048  29.655  58.134  1.00  0.00     0.166 HD
ENDROOT
BRANCH   4  11
HETATM   11  S   UNL     1       5.056  28.849  56.444  1.00  0.00    -0.102 SA
BRANCH  11  12
HETATM   12  C   UNL     1       6.358  27.757  57.097  1.00  0.00     0.184 C 
BRANCH  12  13
HETATM   13  C   UNL     1       6.210  26.316  56.595  1.00  0.00     0.231 C 
HETATM   14  N   UNL     1       7.279  25.851  55.851  1.00  0.00    -0.326 N 
HETATM   15  H   UNL     1       8.006  26.538  55.670  1.00  0.00     0.169 HD
HETATM   16  O   UNL     1       5.214  25.664  56.898  1.00  0.00    -0.272 OA
BRANCH  14  17
HETATM   17  C   UNL     1       7.453  24.593  55.244  1.00  0.00     0.036 A 
HETATM   18  C   UNL     1       7.547  23.390  55.943  1.00  0.00     0.053 A 
HETATM   19  C   UNL     1       7.711  22.189  55.247  1.00  0.00     0.036 A 
HETATM   20 CL   UNL     1       7.832  20.706  56.115  1.00  0.00    -0.084 Cl
HETATM   21  C   UNL     1       7.779  22.173  53.855  1.00  0.00     0.024 A 
HETATM   22  C   UNL     1       7.686  23.370  53.151  1.00  0.00     0.004 A 
HETATM   23  C   UNL     1       7.527  24.573  53.843  1.00  0.00     0.029 A 
ENDBRANCH  14  17
ENDBRANCH  12  13
ENDBRANCH  11  12
ENDBRANCH   4  11
BRANCH   8  24
HETATM   24  C   UNL     1       4.229  33.746  57.771  1.00  0.00    -0.044 A 
HETATM   25  C   UNL     1       3.161  34.584  58.131  1.00  0.00     0.008 A 
HETATM   26  C   UNL     1       2.946  35.789  57.462  1.00  0.00     0.001 A 
HETATM   27  C   UNL     1       3.797  36.172  56.430  1.00  0.00     0.000 A 
HETATM   28  C   UNL     1       4.868  35.357  56.069  1.00  0.00     0.001 A 
HETATM   29  C   UNL     1       5.087  34.149  56.734  1.00  0.00     0.008 A 
ENDBRANCH   8  24
BRANCH   9  30
HETATM   30  C   UNL     1       5.662  33.127  60.603  1.00  0.00     0.255 C 
HETATM   31  N   UNL     1       5.840  32.354  61.730  1.00  0.00    -0.321 N 
HETATM   32  H   UNL     1       5.677  31.361  61.640  1.00  0.00     0.169 HD
HETATM   33  O   UNL     1       5.431  34.330  60.555  1.00  0.00    -0.268 OA
BRANCH  31  34
HETATM   34  C   UNL     1       5.997  32.852  63.045  1.00  0.00     0.068 A 
HETATM   35  C   UNL     1       4.928  33.143  63.917  1.00  0.00     0.095 A 
HETATM   36  C   UNL     1       5.207  33.549  65.229  1.00  0.00     0.039 A 
HETATM   37  C   UNL     1       6.526  33.715  65.656  1.00  0.00     0.003 A 
HETATM   38  C   UNL     1       7.578  33.507  64.769  1.00  0.00     0.002 A 
HETATM   39  C   UNL     1       7.314  33.088  63.465  1.00  0.00     0.032 A 
BRANCH  35  40
HETATM   40  O   UNL     1       3.664  33.145  63.385  1.00  0.00    -0.354 OA
HETATM   41  C   UNL     1       2.874  34.311  63.567  1.00  0.00     0.210 C 
ENDBRANCH  35  40
ENDBRANCH  31  34
ENDBRANCH   9  30
TORSDOF 8
ENDMDL
MODEL 10
REMARK VINA RESULT:      -9.0      4.098      9.482
REMARK  8 active torsions:
REMARK  status: ('A' for Active; 'I' for Inactive)
REMARK    1  A    between atoms: C_4  and  S_5 
REMARK    2  A    between atoms: S_5  and  C_6 
REMARK    3  A    between atoms: C_6  and  C_7 
REMARK       I    between atoms: C_7  and  N_8 
REMARK    4  A    between atoms: N_8  and  C_9 
REMARK    5  A    between atoms: C_20  and  C_21 
REMARK    6  A    between atoms: C_27  and  C_28 
REMARK       I    between atoms: C_28  and  N_29 
REMARK    7  A    between atoms: N_29  and  C_30 
REMARK    8  A    between atoms: C_31  and  O_32 
ROOT
HETATM    1  C   UNL     1       4.756  26.603  57.179  1.00  0.00     0.069 C 
HETATM    2  C   UNL     1       4.719  27.819  56.289  1.00  0.00     0.019 C 
HETATM    3  N   UNL     1       3.963  28.885  56.750  1.00  0.00    -0.353 N 
HETATM    4  C   UNL     1       3.931  30.140  56.170  1.00  0.00     0.087 C 
HETATM    5  C   UNL     1       4.522  30.326  54.966  1.00  0.00     0.055 C 
HETATM    6  C   UNL     1       4.306  31.591  54.153  1.00  0.00     0.019 C 
HETATM    7  N   UNL     1       4.126  32.641  53.479  1.00  0.00    -0.096 N 
HETATM    8  C   UNL     1       5.313  29.202  54.286  1.00  0.00     0.104 C 
HETATM    9  C   UNL     1       5.393  27.936  55.122  1.00  0.00     0.046 C 
HETATM   10  H   UNL     1       3.656  28.850  57.719  1.00  0.00     0.166 HD
ENDROOT
BRANCH   4  11
HETATM   11  S   UNL     1       3.257  31.477  57.074  1.00  0.00    -0.102 SA
BRANCH  11  12
HETATM   12  C   UNL     1       4.733  32.447  57.513  1.00  0.00     0.184 C 
BRANCH  12  13
HETATM   13  C   UNL     1       5.233  32.133  58.928  1.00  0.00     0.231 C 
HETATM   14  N   UNL     1       6.609  32.136  59.069  1.00  0.00    -0.326 N 
HETATM   15  H   UNL     1       7.128  32.282  58.208  1.00  0.00     0.169 HD
HETATM   16  O   UNL     1       4.423  31.942  59.832  1.00  0.00    -0.272 OA
BRANCH  14  17
HETATM   17  C   UNL     1       7.380  31.880  60.219  1.00  0.00     0.036 A 
HETATM   18  C   UNL     1       7.237  32.563  61.427  1.00  0.00     0.053 A 
HETATM   19  C   UNL     1       8.047  32.229  62.516  1.00  0.00     0.036 A 
HETATM   20 CL   UNL     1       7.872  33.078  64.005  1.00  0.00    -0.084 Cl
HETATM   21  C   UNL     1       9.000  31.216  62.416  1.00  0.00     0.024 A 
HETATM   22  C   UNL     1       9.147  30.532  61.213  1.00  0.00     0.004 A 
HETATM   23  C   UNL     1       8.344  30.865  60.120  1.00  0.00     0.029 A 
ENDBRANCH  14  17
ENDBRANCH  12  13
ENDBRANCH  11  12
ENDBRANCH   4  11
BRANCH   8  24
HETATM   24  C   UNL     1       4.794  28.948  52.871  1.00  0.00    -0.044 A 
HETATM   25  C   UNL     1       3.410  28.843  52.651  1.00  0.00     0.008 A 
HETATM   26  C   UNL     1       2.913  28.553  51.380  1.00  0.00     0.001 A 
HETATM   27  C   UNL     1       3.790  28.367  50.316  1.00  0.00     0.000 A 
HETATM   28  C   UNL     1       5.165  28.479  50.517  1.00  0.00     0.001 A 
HETATM   29  C   UNL     1       5.668  28.768  51.786  1.00  0.00     0.008 A 
ENDBRANCH   8  24
BRANCH   9  30
HETATM   30  C   UNL     1       6.466  26.955  54.791  1.00  0.00     0.255 C 
HETATM   31  N   UNL     1       6.015  25.658  54.684  1.00  0.00    -0.321 N 
HETATM   32  H   UNL     1       5.113  25.447  55.090  1.00  0.00     0.169 HD
HETATM   33  O   UNL     1       7.627  27.346  54.727  1.00  0.00    -0.268 OA
BRANCH  31  34
HETATM   34  C   UNL     1       6.795  24.552  54.272  1.00  0.00     0.068 A 
HETATM   35  C   UNL     1       7.351  23.600  55.150  1.00  0.00     0.095 A 
HETATM   36  C   UNL     1       8.035  22.497  54.621  1.00  0.00     0.039 A 
HETATM   37  C   UNL     1       8.210  22.366  53.242  1.00  0.00     0.003 A 
HETATM   38  C   UNL     1       7.732  23.349  52.381  1.00  0.00     0.002 A 
HETATM   39  C   UNL     1       7.037  24.443  52.895  1.00  0.00     0.032 A 
BRANCH  35  40
HETATM   40  O   UNL     1       7.311  23.883  56.493  1.00  0.00    -0.354 OA
HETATM   41  C   UNL     1       8.548  23.970  57.185  1.00  0.00     0.210 C 
ENDBRANCH  35  40
ENDBRANCH  31  34
ENDBRANCH   9  30
TORSDOF 8
ENDMDL
