MODEL 1
REMARK VINA RESULT:      -9.0      0.000      0.000
REMARK  5 active torsions:
REMARK  status: ('A' for Active; 'I' for Inactive)
REMARK    1  A    between atoms: C_8  and  C_9 
REMARK    2  A    between atoms: C_13  and  C_14 
REMARK    3  A    between atoms: C_14  and  O_15 
REMARK    4  A    between atoms: O_15  and  C_16 
REMARK    5  A    between atoms: C_27  and  N_28 
ROOT
HETATM    1  C   UNL     1       4.170  29.338  55.859  1.00  0.00     0.073 C 
HETATM    2  C   UNL     1       4.345  28.230  54.888  1.00  0.00     0.062 A 
HETATM    3  N   UNL     1       3.713  28.260  53.703  1.00  0.00    -0.177 NA
HETATM    4  N   UNL     1       4.092  27.118  53.092  1.00  0.00    -0.256 N 
HETATM    5  H   UNL     1       3.728  26.911  52.170  1.00  0.00     0.191 HD
HETATM    6  C   UNL     1       4.951  26.384  53.844  1.00  0.00     0.175 A 
HETATM    7  C   UNL     1       5.143  27.069  55.014  1.00  0.00     0.035 A 
HETATM    8  C   UNL     1       6.039  26.524  56.078  1.00  0.00     0.111 A 
HETATM    9  C   UNL     1       6.635  25.189  55.597  1.00  0.00     0.067 A 
HETATM   10  C   UNL     1       7.617  24.527  56.549  1.00  0.00     0.020 C 
HETATM   11  N   UNL     1       8.432  23.978  57.339  1.00  0.00    -0.096 N 
HETATM   12  C   UNL     1       6.356  24.619  54.395  1.00  0.00     0.139 A 
HETATM   13  O   UNL     1       5.480  25.223  53.475  1.00  0.00    -0.279 OA
ENDROOT
BRANCH   8  14
HETATM   14  C   UNL     1       7.085  27.540  56.502  1.00  0.00    -0.003 A 
HETATM   15  S   UNL     1       8.325  27.986  55.407  1.00  0.00    -0.098 SA
HETATM   16  C   UNL     1       8.981  29.131  56.491  1.00  0.00    -0.013 A 
HETATM   17  C   UNL     1      10.144  29.965  56.064  1.00  0.00     0.057 C 
HETATM   18  C   UNL     1       8.320  29.137  57.710  1.00  0.00    -0.020 A 
HETATM   19  C   UNL     1       7.208  28.230  57.694  1.00  0.00     0.026 A 
BRANCH  18  20
HETATM   20  C   UNL     1       8.694  29.991  58.893  1.00  0.00     0.215 C 
BRANCH  20  21
HETATM   21  O   UNL     1       7.639  30.901  59.203  1.00  0.00    -0.347 OA
BRANCH  21  22
HETATM   22  C   UNL     1       7.666  31.492  60.436  1.00  0.00     0.069 A 
HETATM   23  C   UNL     1       6.886  32.578  60.846  1.00  0.00     0.040 A 
HETATM   24  C   UNL     1       7.014  33.078  62.146  1.00  0.00     0.045 A 
HETATM   25  C   UNL     1       7.919  32.496  63.025  1.00  0.00     0.116 A 
HETATM   26  F   UNL     1       8.037  32.980  64.268  1.00  0.00    -0.206 F 
HETATM   27  C   UNL     1       8.701  31.419  62.632  1.00  0.00     0.045 A 
HETATM   28  C   UNL     1       8.572  30.918  61.335  1.00  0.00     0.040 A 
ENDBRANCH  21  22
ENDBRANCH  20  21
ENDBRANCH  18  20
ENDBRANCH   8  14
BRANCH  12  29
HETATM   29  N   UNL     1       6.879  23.433  53.933  1.00  0.00    -0.282 NA
HETATM   30  H   UNL     1       7.789  23.498  53.483  1.00  0.00     0.126 HD
HETATM   31  H   UNL     1       6.204  22.903  53.389  1.00  0.00     0.126 HD
ENDBRANCH  12  29
TORSDOF 5
ENDMDL
MODEL 2
REMARK VINA RESULT:      -8.9      4.470      8.046
REMARK  5 active torsions:
REMARK  status: ('A' for Active; 'I' for Inactive)
REMARK    1  A    between atoms: C_8  and  C_9 
REMARK    2  A    between atoms: C_13  and  C_14 
REMARK    3  A    between atoms: C_14  and  O_15 
REMARK    4  A    between atoms: O_15  and  C_16 
REMARK    5  A    between atoms: C_27  and  N_28 
ROOT
HETATM    1  C   UNL     1       4.093  29.998  55.830  1.00  0.00     0.073 C 
HETATM    2  C   UNL     1       4.734  30.474  57.080  1.00  0.00     0.062 A 
HETATM    3  N   UNL     1       3.991  31.012  58.061  1.00  0.00    -0.177 NA
HETATM    4  N   UNL     1       4.884  31.328  59.023  1.00  0.00    -0.256 N 
HETATM    5  H   UNL     1       4.553  31.765  59.875  1.00  0.00     0.191 HD
HETATM    6  C   UNL     1       6.155  30.993  58.686  1.00  0.00     0.175 A 
HETATM    7  C   UNL     1       6.102  30.435  57.436  1.00  0.00     0.035 A 
HETATM    8  C   UNL     1       7.347  29.959  56.761  1.00  0.00     0.111 A 
HETATM    9  C   UNL     1       8.547  30.196  57.696  1.00  0.00     0.067 A 
HETATM   10  C   UNL     1       9.890  29.714  57.175  1.00  0.00     0.020 C 
HETATM   11  N   UNL     1      11.006  29.313  56.744  1.00  0.00    -0.096 N 
HETATM   12  C   UNL     1       8.453  30.764  58.927  1.00  0.00     0.139 A 
HETATM   13  O   UNL     1       7.220  31.189  59.454  1.00  0.00    -0.279 OA
ENDROOT
BRANCH   8  14
HETATM   14  C   UNL     1       7.214  28.519  56.295  1.00  0.00    -0.003 A 
HETATM   15  S   UNL     1       7.226  28.168  54.619  1.00  0.00    -0.098 SA
HETATM   16  C   UNL     1       7.137  26.484  54.889  1.00  0.00    -0.013 A 
HETATM   17  C   UNL     1       7.173  25.549  53.725  1.00  0.00     0.057 C 
HETATM   18  C   UNL     1       7.025  26.176  56.237  1.00  0.00    -0.020 A 
HETATM   19  C   UNL     1       7.097  27.362  57.042  1.00  0.00     0.026 A 
BRANCH  18  20
HETATM   20  C   UNL     1       6.870  24.786  56.796  1.00  0.00     0.215 C 
BRANCH  20  21
HETATM   21  O   UNL     1       8.149  24.199  57.034  1.00  0.00    -0.347 OA
BRANCH  21  22
HETATM   22  C   UNL     1       8.395  22.983  56.460  1.00  0.00     0.069 A 
HETATM   23  C   UNL     1       8.237  21.735  57.072  1.00  0.00     0.040 A 
HETATM   24  C   UNL     1       8.522  20.566  56.359  1.00  0.00     0.045 A 
HETATM   25  C   UNL     1       8.965  20.649  55.045  1.00  0.00     0.116 A 
HETATM   26  F   UNL     1       9.237  19.526  54.368  1.00  0.00    -0.206 F 
HETATM   27  C   UNL     1       9.129  21.880  54.425  1.00  0.00     0.045 A 
HETATM   28  C   UNL     1       8.843  23.047  55.135  1.00  0.00     0.040 A 
ENDBRANCH  21  22
ENDBRANCH  20  21
ENDBRANCH  18  20
ENDBRANCH   8  14
BRANCH  12  29
HETATM   29  N   UNL     1       9.504  30.981  59.788  1.00  0.00    -0.282 NA
HETATM   30  H   UNL     1      10.269  30.312  59.728  1.00  0.00     0.126 HD
HETATM   31  H   UNL     1       9.191  31.142  60.742  1.00  0.00     0.126 HD
ENDBRANCH  12  29
TORSDOF 5
ENDMDL
MODEL 3
REMARK VINA RESULT:      -8.5      1.698      3.604
REMARK  5 active torsions:
REMARK  status: ('A' for Active; 'I' for Inactive)
REMARK    1  A    between atoms: C_8  and  C_9 
REMARK    2  A    between atoms: C_13  and  C_14 
REMARK    3  A    between atoms: C_14  and  O_15 
REMARK    4  A    between atoms: O_15  and  C_16 
REMARK    5  A    between atoms: C_27  and  N_28 
ROOT
HETATM    1  C   UNL     1       8.293  26.256  57.273  1.00  0.00     0.073 C 
HETATM    2  C   UNL     1       7.547  25.454  56.273  1.00  0.00     0.062 A 
HETATM    3  N   UNL     1       7.365  24.136  56.459  1.00  0.00    -0.177 NA
HETATM    4  N   UNL     1       6.662  23.739  55.377  1.00  0.00    -0.256 N 
HETATM    5  H   UNL     1       6.409  22.762  55.288  1.00  0.00     0.191 HD
HETATM    6  C   UNL     1       6.384  24.763  54.531  1.00  0.00     0.175 A 
HETATM    7  C   UNL     1       6.937  25.892  55.075  1.00  0.00     0.035 A 
HETATM    8  C   UNL     1       6.818  27.209  54.380  1.00  0.00     0.111 A 
HETATM    9  C   UNL     1       6.009  27.021  53.084  1.00  0.00     0.067 A 
HETATM   10  C   UNL     1       5.751  28.285  52.282  1.00  0.00     0.020 C 
HETATM   11  N   UNL     1       5.536  29.335  51.616  1.00  0.00    -0.096 N 
HETATM   12  C   UNL     1       5.512  25.829  52.662  1.00  0.00     0.139 A 
HETATM   13  O   UNL     1       5.701  24.645  53.398  1.00  0.00    -0.279 OA
ENDROOT
BRANCH   8  14
HETATM   14  C   UNL     1       6.252  28.277  55.301  1.00  0.00    -0.003 A 
HETATM   15  S   UNL     1       4.556  28.415  55.494  1.00  0.00    -0.098 SA
HETATM   16  C   UNL     1       4.709  29.664  56.649  1.00  0.00    -0.013 A 
HETATM   17  C   UNL     1       3.484  30.221  57.297  1.00  0.00     0.057 C 
HETATM   18  C   UNL     1       6.030  30.036  56.845  1.00  0.00    -0.020 A 
HETATM   19  C   UNL     1       6.916  29.207  56.078  1.00  0.00     0.026 A 
BRANCH  18  20
HETATM   20  C   UNL     1       6.490  31.145  57.755  1.00  0.00     0.215 C 
BRANCH  20  21
HETATM   21  O   UNL     1       7.599  30.714  58.544  1.00  0.00    -0.347 OA
BRANCH  21  22
HETATM   22  C   UNL     1       7.737  31.270  59.785  1.00  0.00     0.069 A 
HETATM   23  C   UNL     1       6.964  32.308  60.314  1.00  0.00     0.040 A 
HETATM   24  C   UNL     1       7.213  32.776  61.608  1.00  0.00     0.045 A 
HETATM   25  C   UNL     1       8.232  32.210  62.363  1.00  0.00     0.116 A 
HETATM   26  F   UNL     1       8.466  32.663  63.602  1.00  0.00    -0.206 F 
HETATM   27  C   UNL     1       9.009  31.180  61.851  1.00  0.00     0.045 A 
HETATM   28  C   UNL     1       8.759  30.711  60.561  1.00  0.00     0.040 A 
ENDBRANCH  21  22
ENDBRANCH  20  21
ENDBRANCH  18  20
ENDBRANCH   8  14
BRANCH  12  29
HETATM   29  N   UNL     1       4.779  25.631  51.514  1.00  0.00    -0.282 NA
HETATM   30  H   UNL     1       5.090  26.151  50.697  1.00  0.00     0.126 HD
HETATM   31  H   UNL     1       3.779  25.711  51.679  1.00  0.00     0.126 HD
ENDBRANCH  12  29
TORSDOF 5
ENDMDL
MODEL 4
REMARK VINA RESULT:      -8.2      5.110      7.737
REMARK  5 active torsions:
REMARK  status: ('A' for Active; 'I' for Inactive)
REMARK    1  A    between atoms: C_8  and  C_9 
REMARK    2  A    between atoms: C_13  and  C_14 
REMARK    3  A    between atoms: C_14  and  O_15 
REMARK    4  A    between atoms: O_15  and  C_16 
REMARK    5  A    between atoms: C_27  and  N_28 
ROOT
HETATM    1  C   UNL     1       3.662  29.653  56.624  1.00  0.00     0.073 C 
HETATM    2  C   UNL     1       3.823  30.265  55.282  1.00  0.00     0.062 A 
HETATM    3  N   UNL     1       3.576  31.572  55.099  1.00  0.00    -0.177 NA
HETATM    4  N   UNL     1       3.818  31.778  53.787  1.00  0.00    -0.256 N 
HETATM    5  H   UNL     1       3.688  32.707  53.404  1.00  0.00     0.191 HD
HETATM    6  C   UNL     1       4.224  30.651  53.148  1.00  0.00     0.175 A 
HETATM    7  C   UNL     1       4.243  29.649  54.081  1.00  0.00     0.035 A 
HETATM    8  C   UNL     1       4.643  28.261  53.699  1.00  0.00     0.111 A 
HETATM    9  C   UNL     1       5.003  28.235  52.203  1.00  0.00     0.067 A 
HETATM   10  C   UNL     1       5.485  26.899  51.666  1.00  0.00     0.020 C 
HETATM   11  N   UNL     1       5.885  25.789  51.220  1.00  0.00    -0.096 N 
HETATM   12  C   UNL     1       4.940  29.320  51.386  1.00  0.00     0.139 A 
HETATM   13  O   UNL     1       4.533  30.581  51.859  1.00  0.00    -0.279 OA
ENDROOT
BRANCH   8  14
HETATM   14  C   UNL     1       5.745  27.729  54.599  1.00  0.00    -0.003 A 
HETATM   15  S   UNL     1       6.908  28.810  55.242  1.00  0.00    -0.098 SA
HETATM   16  C   UNL     1       7.676  27.577  56.140  1.00  0.00    -0.013 A 
HETATM   17  C   UNL     1       8.824  27.921  57.031  1.00  0.00     0.057 C 
HETATM   18  C   UNL     1       7.111  26.332  55.908  1.00  0.00    -0.020 A 
HETATM   19  C   UNL     1       5.977  26.438  55.034  1.00  0.00     0.026 A 
BRANCH  18  20
HETATM   20  C   UNL     1       7.597  25.036  56.505  1.00  0.00     0.215 C 
BRANCH  20  21
HETATM   21  O   UNL     1       6.748  23.959  56.113  1.00  0.00    -0.347 OA
BRANCH  21  22
HETATM   22  C   UNL     1       7.229  23.095  55.169  1.00  0.00     0.069 A 
HETATM   23  C   UNL     1       7.400  23.372  53.809  1.00  0.00     0.040 A 
HETATM   24  C   UNL     1       7.913  22.390  52.954  1.00  0.00     0.045 A 
HETATM   25  C   UNL     1       8.247  21.140  53.460  1.00  0.00     0.116 A 
HETATM   26  F   UNL     1       8.736  20.204  52.637  1.00  0.00    -0.206 F 
HETATM   27  C   UNL     1       8.081  20.850  54.807  1.00  0.00     0.045 A 
HETATM   28  C   UNL     1       7.572  21.830  55.660  1.00  0.00     0.040 A 
ENDBRANCH  21  22
ENDBRANCH  20  21
ENDBRANCH  18  20
ENDBRANCH   8  14
BRANCH  12  29
HETATM   29  N   UNL     1       5.264  29.331  50.048  1.00  0.00    -0.282 NA
HETATM   30  H   UNL     1       4.512  29.082  49.410  1.00  0.00     0.126 HD
HETATM   31  H   UNL     1       6.128  28.831  49.859  1.00  0.00     0.126 HD
ENDBRANCH  12  29
TORSDOF 5
ENDMDL
MODEL 5
REMARK VINA RESULT:      -8.1      3.405      5.913
REMARK  5 active torsions:
REMARK  status: ('A' for Active; 'I' for Inactive)
REMARK    1  A    between atoms: C_8  and  C_9 
REMARK    2  A    between atoms: C_13  and  C_14 
REMARK    3  A    between atoms: C_14  and  O_15 
REMARK    4  A    between atoms: O_15  and  C_16 
REMARK    5  A    between atoms: C_27  and  N_28 
ROOT
HETATM    1  C   UNL     1       8.326  32.052  59.253  1.00  0.00     0.073 C 
HETATM    2  C   UNL     1       7.833  30.748  58.747  1.00  0.00     0.062 A 
HETATM    3  N   UNL     1       8.512  29.618  59.010  1.00  0.00    -0.177 NA
HETATM    4  N   UNL     1       7.792  28.648  58.408  1.00  0.00    -0.256 N 
HETATM    5  H   UNL     1       8.118  27.690  58.461  1.00  0.00     0.191 HD
HETATM    6  C   UNL     1       6.681  29.127  57.793  1.00  0.00     0.175 A 
HETATM    7  C   UNL     1       6.668  30.482  57.991  1.00  0.00     0.035 A 
HETATM    8  C   UNL     1       5.570  31.324  57.429  1.00  0.00     0.111 A 
HETATM    9  C   UNL     1       4.571  30.416  56.689  1.00  0.00     0.067 A 
HETATM   10  C   UNL     1       3.357  31.117  56.101  1.00  0.00     0.020 C 
HETATM   11  N   UNL     1       2.350  31.698  55.614  1.00  0.00    -0.096 N 
HETATM   12  C   UNL     1       4.707  29.069  56.572  1.00  0.00     0.139 A 
HETATM   13  O   UNL     1       5.799  28.384  57.134  1.00  0.00    -0.279 OA
ENDROOT
BRANCH   8  14
HETATM   14  C   UNL     1       4.927  32.190  58.499  1.00  0.00    -0.003 A 
HETATM   15  S   UNL     1       4.669  33.856  58.198  1.00  0.00    -0.098 SA
HETATM   16  C   UNL     1       3.894  34.090  59.701  1.00  0.00    -0.013 A 
HETATM   17  C   UNL     1       3.337  35.434  60.040  1.00  0.00     0.057 C 
HETATM   18  C   UNL     1       3.886  32.937  60.471  1.00  0.00    -0.020 A 
HETATM   19  C   UNL     1       4.464  31.837  59.753  1.00  0.00     0.026 A 
BRANCH  18  20
HETATM   20  C   UNL     1       3.329  32.833  61.867  1.00  0.00     0.215 C 
BRANCH  20  21
HETATM   21  O   UNL     1       4.125  31.949  62.656  1.00  0.00    -0.347 OA
BRANCH  21  22
HETATM   22  C   UNL     1       5.203  32.488  63.301  1.00  0.00     0.069 A 
HETATM   23  C   UNL     1       6.548  32.240  63.006  1.00  0.00     0.040 A 
HETATM   24  C   UNL     1       7.553  32.869  63.749  1.00  0.00     0.045 A 
HETATM   25  C   UNL     1       7.212  33.735  64.780  1.00  0.00     0.116 A 
HETATM   26  F   UNL     1       8.179  34.333  65.487  1.00  0.00    -0.206 F 
HETATM   27  C   UNL     1       5.882  33.989  65.085  1.00  0.00     0.045 A 
HETATM   28  C   UNL     1       4.879  33.363  64.344  1.00  0.00     0.040 A 
ENDBRANCH  21  22
ENDBRANCH  20  21
ENDBRANCH  18  20
ENDBRANCH   8  14
BRANCH  12  29
HETATM   29  N   UNL     1       3.828  28.231  55.925  1.00  0.00    -0.282 NA
HETATM   30  H   UNL     1       4.050  28.023  54.954  1.00  0.00     0.126 HD
HETATM   31  H   UNL     1       2.861  28.512  56.060  1.00  0.00     0.126 HD
ENDBRANCH  12  29
TORSDOF 5
ENDMDL
MODEL 6
REMARK VINA RESULT:      -8.0      5.709      9.426
REMARK  5 active torsions:
REMARK  status: ('A' for Active; 'I' for Inactive)
REMARK    1  A    between atoms: C_8  and  C_9 
REMARK    2  A    between atoms: C_13  and  C_14 
REMARK    3  A    between atoms: C_14  and  O_15 
REMARK    4  A    between atoms: O_15  and  C_16 
REMARK    5  A    between atoms: C_27  and  N_28 
ROOT
HETATM    1  C   UNL     1       8.003  28.526  55.995  1.00  0.00     0.073 C 
HETATM    2  C   UNL     1       7.905  27.217  56.686  1.00  0.00     0.062 A 
HETATM    3  N   UNL     1       7.838  27.161  58.026  1.00  0.00    -0.177 NA
HETATM    4  N   UNL     1       7.761  25.842  58.302  1.00  0.00    -0.256 N 
HETATM    5  H   UNL     1       7.711  25.545  59.270  1.00  0.00     0.191 HD
HETATM    6  C   UNL     1       7.761  25.073  57.184  1.00  0.00     0.175 A 
HETATM    7  C   UNL     1       7.850  25.924  56.115  1.00  0.00     0.035 A 
HETATM    8  C   UNL     1       7.881  25.393  54.719  1.00  0.00     0.111 A 
HETATM    9  C   UNL     1       7.780  23.858  54.763  1.00  0.00     0.067 A 
HETATM   10  C   UNL     1       7.744  23.163  53.413  1.00  0.00     0.020 C 
HETATM   11  N   UNL     1       7.714  22.585  52.292  1.00  0.00    -0.096 N 
HETATM   12  C   UNL     1       7.693  23.133  55.910  1.00  0.00     0.139 A 
HETATM   13  O   UNL     1       7.687  23.747  57.175  1.00  0.00    -0.279 OA
ENDROOT
BRANCH   8  14
HETATM   14  C   UNL     1       6.822  26.048  53.848  1.00  0.00    -0.003 A 
HETATM   15  S   UNL     1       5.335  26.534  54.546  1.00  0.00    -0.098 SA
HETATM   16  C   UNL     1       4.775  27.205  53.079  1.00  0.00    -0.013 A 
HETATM   17  C   UNL     1       3.450  27.894  53.044  1.00  0.00     0.057 C 
HETATM   18  C   UNL     1       5.668  27.006  52.037  1.00  0.00    -0.020 A 
HETATM   19  C   UNL     1       6.861  26.358  52.502  1.00  0.00     0.026 A 
BRANCH  18  20
HETATM   20  C   UNL     1       5.440  27.429  50.609  1.00  0.00     0.215 C 
BRANCH  20  21
HETATM   21  O   UNL     1       4.957  26.330  49.836  1.00  0.00    -0.347 OA
BRANCH  21  22
HETATM   22  C   UNL     1       3.913  26.574  48.989  1.00  0.00     0.069 A 
HETATM   23  C   UNL     1       3.080  27.698  49.008  1.00  0.00     0.040 A 
HETATM   24  C   UNL     1       2.048  27.820  48.072  1.00  0.00     0.045 A 
HETATM   25  C   UNL     1       1.852  26.820  47.126  1.00  0.00     0.116 A 
HETATM   26  F   UNL     1       0.862  26.943  46.233  1.00  0.00    -0.206 F 
HETATM   27  C   UNL     1       2.668  25.699  47.096  1.00  0.00     0.045 A 
HETATM   28  C   UNL     1       3.699  25.578  48.029  1.00  0.00     0.040 A 
ENDBRANCH  21  22
ENDBRANCH  20  21
ENDBRANCH  18  20
ENDBRANCH   8  14
BRANCH  12  29
HETATM   29  N   UNL     1       7.592  21.762  55.982  1.00  0.00    -0.282 NA
HETATM   30  H   UNL     1       7.157  21.396  56.825  1.00  0.00     0.126 HD
HETATM   31  H   UNL     1       8.469  21.301  55.756  1.00  0.00     0.126 HD
ENDBRANCH  12  29
TORSDOF 5
ENDMDL
MODEL 7
REMARK VINA RESULT:      -8.0      7.585     10.833
REMARK  5 active torsions:
REMARK  status: ('A' for Active; 'I' for Inactive)
REMARK    1  A    between atoms: C_8  and  C_9 
REMARK    2  A    between atoms: C_13  and  C_14 
REMARK    3  A    between atoms: C_14  and  O_15 
REMARK    4  A    between atoms: O_15  and  C_16 
REMARK    5  A    between atoms: C_27  and  N_28 
ROOT
HETATM    1  C   UNL     1       6.390  39.257  64.128  1.00  0.00     0.073 C 
HETATM    2  C   UNL     1       6.102  39.075  62.684  1.00  0.00     0.062 A 
HETATM    3  N   UNL     1       6.770  39.791  61.764  1.00  0.00    -0.177 NA
HETATM    4  N   UNL     1       6.262  39.378  60.584  1.00  0.00    -0.256 N 
HETATM    5  H   UNL     1       6.611  39.792  59.727  1.00  0.00     0.191 HD
HETATM    6  C   UNL     1       5.314  38.418  60.731  1.00  0.00     0.175 A 
HETATM    7  C   UNL     1       5.181  38.191  62.076  1.00  0.00     0.035 A 
HETATM    8  C   UNL     1       4.202  37.185  62.586  1.00  0.00     0.111 A 
HETATM    9  C   UNL     1       3.484  36.533  61.390  1.00  0.00     0.067 A 
HETATM   10  C   UNL     1       2.486  35.442  61.739  1.00  0.00     0.020 C 
HETATM   11  N   UNL     1       1.658  34.536  62.028  1.00  0.00    -0.096 N 
HETATM   12  C   UNL     1       3.718  36.857  60.091  1.00  0.00     0.139 A 
HETATM   13  O   UNL     1       4.661  37.837  59.731  1.00  0.00    -0.279 OA
ENDROOT
BRANCH   8  14
HETATM   14  C   UNL     1       4.862  36.184  63.518  1.00  0.00    -0.003 A 
HETATM   15  S   UNL     1       4.320  36.049  65.136  1.00  0.00    -0.098 SA
HETATM   16  C   UNL     1       5.395  34.766  65.474  1.00  0.00    -0.013 A 
HETATM   17  C   UNL     1       5.365  34.116  66.819  1.00  0.00     0.057 C 
HETATM   18  C   UNL     1       6.220  34.477  64.398  1.00  0.00    -0.020 A 
HETATM   19  C   UNL     1       5.884  35.288  63.262  1.00  0.00     0.026 A 
BRANCH  18  20
HETATM   20  C   UNL     1       7.312  33.440  64.398  1.00  0.00     0.215 C 
BRANCH  20  21
HETATM   21  O   UNL     1       6.942  32.327  63.585  1.00  0.00    -0.347 OA
BRANCH  21  22
HETATM   22  C   UNL     1       7.499  32.250  62.339  1.00  0.00     0.069 A 
HETATM   23  C   UNL     1       6.826  32.409  61.124  1.00  0.00     0.040 A 
HETATM   24  C   UNL     1       7.528  32.311  59.918  1.00  0.00     0.045 A 
HETATM   25  C   UNL     1       8.893  32.051  59.932  1.00  0.00     0.116 A 
HETATM   26  F   UNL     1       9.559  31.957  58.774  1.00  0.00    -0.206 F 
HETATM   27  C   UNL     1       9.574  31.889  61.131  1.00  0.00     0.045 A 
HETATM   28  C   UNL     1       8.874  31.989  62.334  1.00  0.00     0.040 A 
ENDBRANCH  21  22
ENDBRANCH  20  21
ENDBRANCH  18  20
ENDBRANCH   8  14
BRANCH  12  29
HETATM   29  N   UNL     1       3.100  36.287  59.002  1.00  0.00    -0.282 NA
HETATM   30  H   UNL     1       2.431  35.550  59.210  1.00  0.00     0.126 HD
HETATM   31  H   UNL     1       3.764  36.027  58.277  1.00  0.00     0.126 HD
ENDBRANCH  12  29
TORSDOF 5
ENDMDL
MODEL 8
REMARK VINA RESULT:      -8.0      6.224      8.559
REMARK  5 active torsions:
REMARK  status: ('A' for Active; 'I' for Inactive)
REMARK    1  A    between atoms: C_8  and  C_9 
REMARK    2  A    between atoms: C_13  and  C_14 
REMARK    3  A    between atoms: C_14  and  O_15 
REMARK    4  A    between atoms: O_15  and  C_16 
REMARK    5  A    between atoms: C_27  and  N_28 
ROOT
HETATM    1  C   UNL     1       4.835  26.695  49.319  1.00  0.00     0.073 C 
HETATM    2  C   UNL     1       3.548  27.434  49.307  1.00  0.00     0.062 A 
HETATM    3  N   UNL     1       2.480  26.925  48.670  1.00  0.00    -0.177 NA
HETATM    4  N   UNL     1       1.509  27.843  48.860  1.00  0.00    -0.256 N 
HETATM    5  H   UNL     1       0.595  27.681  48.455  1.00  0.00     0.191 HD
HETATM    6  C   UNL     1       1.925  28.897  49.607  1.00  0.00     0.175 A 
HETATM    7  C   UNL     1       3.240  28.671  49.919  1.00  0.00     0.035 A 
HETATM    8  C   UNL     1       4.009  29.656  50.736  1.00  0.00     0.111 A 
HETATM    9  C   UNL     1       3.084  30.827  51.112  1.00  0.00     0.067 A 
HETATM   10  C   UNL     1       3.704  31.898  51.994  1.00  0.00     0.020 C 
HETATM   11  N   UNL     1       4.219  32.786  52.727  1.00  0.00    -0.096 N 
HETATM   12  C   UNL     1       1.783  30.924  50.732  1.00  0.00     0.139 A 
HETATM   13  O   UNL     1       1.167  29.933  49.945  1.00  0.00    -0.279 OA
ENDROOT
BRANCH   8  14
HETATM   14  C   UNL     1       4.671  28.995  51.933  1.00  0.00    -0.003 A 
HETATM   15  S   UNL     1       3.766  28.733  53.363  1.00  0.00    -0.098 SA
HETATM   16  C   UNL     1       5.064  27.936  54.134  1.00  0.00    -0.013 A 
HETATM   17  C   UNL     1       4.870  27.368  55.502  1.00  0.00     0.057 C 
HETATM   18  C   UNL     1       6.209  27.924  53.353  1.00  0.00    -0.020 A 
HETATM   19  C   UNL     1       5.961  28.517  52.070  1.00  0.00     0.026 A 
BRANCH  18  20
HETATM   20  C   UNL     1       7.537  27.349  53.772  1.00  0.00     0.215 C 
BRANCH  20  21
HETATM   21  O   UNL     1       7.867  26.219  52.965  1.00  0.00    -0.347 OA
BRANCH  21  22
HETATM   22  C   UNL     1       7.762  24.985  53.545  1.00  0.00     0.069 A 
HETATM   23  C   UNL     1       7.525  24.728  54.899  1.00  0.00     0.040 A 
HETATM   24  C   UNL     1       7.434  23.408  55.354  1.00  0.00     0.045 A 
HETATM   25  C   UNL     1       7.584  22.356  54.458  1.00  0.00     0.116 A 
HETATM   26  F   UNL     1       7.496  21.095  54.901  1.00  0.00    -0.206 F 
HETATM   27  C   UNL     1       7.821  22.596  53.112  1.00  0.00     0.045 A 
HETATM   28  C   UNL     1       7.910  23.913  52.657  1.00  0.00     0.040 A 
ENDBRANCH  21  22
ENDBRANCH  20  21
ENDBRANCH  18  20
ENDBRANCH   8  14
BRANCH  12  29
HETATM   29  N   UNL     1       0.929  31.952  51.059  1.00  0.00    -0.282 NA
HETATM   30  H   UNL     1       1.172  32.477  51.896  1.00  0.00     0.126 HD
HETATM   31  H   UNL     1      -0.045  31.661  51.041  1.00  0.00     0.126 HD
ENDBRANCH  12  29
TORSDOF 5
ENDMDL
MODEL 9
REMARK VINA RESULT:      -7.9      7.259      9.577
REMARK  5 active torsions:
REMARK  status: ('A' for Active; 'I' for Inactive)
REMARK    1  A    between atoms: C_8  and  C_9 
REMARK    2  A    between atoms: C_13  and  C_14 
REMARK    3  A    between atoms: C_14  and  O_15 
REMARK    4  A    between atoms: O_15  and  C_16 
REMARK    5  A    between atoms: C_27  and  N_28 
ROOT
HETATM    1  C   UNL     1       3.487  25.439  48.068  1.00  0.00     0.073 C 
HETATM    2  C   UNL     1       2.736  26.587  47.505  1.00  0.00     0.062 A 
HETATM    3  N   UNL     1       1.578  26.386  46.853  1.00  0.00    -0.177 NA
HETATM    4  N   UNL     1       1.183  27.623  46.485  1.00  0.00    -0.256 N 
HETATM    5  H   UNL     1       0.321  27.727  45.961  1.00  0.00     0.191 HD
HETATM    6  C   UNL     1       2.041  28.590  46.895  1.00  0.00     0.175 A 
HETATM    7  C   UNL     1       3.060  27.963  47.562  1.00  0.00     0.035 A 
HETATM    8  C   UNL     1       4.189  28.749  48.142  1.00  0.00     0.111 A 
HETATM    9  C   UNL     1       3.954  30.245  47.866  1.00  0.00     0.067 A 
HETATM   10  C   UNL     1       4.993  31.191  48.442  1.00  0.00     0.020 C 
HETATM   11  N   UNL     1       5.856  31.977  48.920  1.00  0.00    -0.096 N 
HETATM   12  C   UNL     1       2.884  30.735  47.185  1.00  0.00     0.139 A 
HETATM   13  O   UNL     1       1.884  29.889  46.670  1.00  0.00    -0.279 OA
ENDROOT
BRANCH   8  14
HETATM   14  C   UNL     1       4.397  28.428  49.612  1.00  0.00    -0.003 A 
HETATM   15  S   UNL     1       3.249  28.962  50.766  1.00  0.00    -0.098 SA
HETATM   16  C   UNL     1       4.068  28.195  52.054  1.00  0.00    -0.013 A 
HETATM   17  C   UNL     1       3.486  28.245  53.429  1.00  0.00     0.057 C 
HETATM   18  C   UNL     1       5.246  27.593  51.640  1.00  0.00    -0.020 A 
HETATM   19  C   UNL     1       5.412  27.712  50.220  1.00  0.00     0.026 A 
BRANCH  18  20
HETATM   20  C   UNL     1       6.221  26.885  52.546  1.00  0.00     0.215 C 
BRANCH  20  21
HETATM   21  O   UNL     1       6.607  25.633  51.980  1.00  0.00    -0.347 OA
BRANCH  21  22
HETATM   22  C   UNL     1       6.981  24.644  52.846  1.00  0.00     0.069 A 
HETATM   23  C   UNL     1       7.733  23.509  52.527  1.00  0.00     0.040 A 
HETATM   24  C   UNL     1       8.049  22.577  53.521  1.00  0.00     0.045 A 
HETATM   25  C   UNL     1       7.611  22.782  54.824  1.00  0.00     0.116 A 
HETATM   26  F   UNL     1       7.917  21.886  55.771  1.00  0.00    -0.206 F 
HETATM   27  C   UNL     1       6.863  23.903  55.156  1.00  0.00     0.045 A 
HETATM   28  C   UNL     1       6.549  24.834  54.164  1.00  0.00     0.040 A 
ENDBRANCH  21  22
ENDBRANCH  20  21
ENDBRANCH  18  20
ENDBRANCH   8  14
BRANCH  12  29
HETATM   29  N   UNL     1       2.641  32.065  46.930  1.00  0.00    -0.282 NA
HETATM   30  H   UNL     1       2.433  32.639  47.744  1.00  0.00     0.126 HD
HETATM   31  H   UNL     1       1.975  32.194  46.173  1.00  0.00     0.126 HD
ENDBRANCH  12  29
TORSDOF 5
ENDMDL
MODEL 10
REMARK VINA RESULT:      -7.9      4.241      8.303
REMARK  5 active torsions:
REMARK  status: ('A' for Active; 'I' for Inactive)
REMARK    1  A    between atoms: C_8  and  C_9 
REMARK    2  A    between atoms: C_13  and  C_14 
REMARK    3  A    between atoms: C_14  and  O_15 
REMARK    4  A    between atoms: O_15  and  C_16 
REMARK    5  A    between atoms: C_27  and  N_28 
ROOT
HETATM    1  C   UNL     1       8.370  26.741  57.255  1.00  0.00     0.073 C 
HETATM    2  C   UNL     1       8.333  28.203  57.504  1.00  0.00     0.062 A 
HETATM    3  N   UNL     1       9.457  28.865  57.823  1.00  0.00    -0.177 NA
HETATM    4  N   UNL     1       9.058  30.145  57.977  1.00  0.00    -0.256 N 
HETATM    5  H   UNL     1       9.745  30.845  58.234  1.00  0.00     0.191 HD
HETATM    6  C   UNL     1       7.730  30.310  57.751  1.00  0.00     0.175 A 
HETATM    7  C   UNL     1       7.223  29.077  57.439  1.00  0.00     0.035 A 
HETATM    8  C   UNL     1       5.770  28.905  57.138  1.00  0.00     0.111 A 
HETATM    9  C   UNL     1       5.073  30.274  57.229  1.00  0.00     0.067 A 
HETATM   10  C   UNL     1       3.591  30.280  56.896  1.00  0.00     0.020 C 
HETATM   11  N   UNL     1       2.360  30.285  56.619  1.00  0.00    -0.096 N 
HETATM   12  C   UNL     1       5.707  31.432  57.550  1.00  0.00     0.139 A 
HETATM   13  O   UNL     1       7.086  31.468  57.829  1.00  0.00    -0.279 OA
ENDROOT
BRANCH   8  14
HETATM   14  C   UNL     1       5.554  28.199  55.810  1.00  0.00    -0.003 A 
HETATM   15  S   UNL     1       5.502  29.115  54.364  1.00  0.00    -0.098 SA
HETATM   16  C   UNL     1       5.338  27.721  53.392  1.00  0.00    -0.013 A 
HETATM   17  C   UNL     1       5.295  27.861  51.905  1.00  0.00     0.057 C 
HETATM   18  C   UNL     1       5.249  26.563  54.149  1.00  0.00    -0.020 A 
HETATM   19  C   UNL     1       5.401  26.851  55.547  1.00  0.00     0.026 A 
BRANCH  18  20
HETATM   20  C   UNL     1       5.042  25.178  53.592  1.00  0.00     0.215 C 
BRANCH  20  21
HETATM   21  O   UNL     1       6.240  24.704  52.979  1.00  0.00    -0.347 OA
BRANCH  21  22
HETATM   22  C   UNL     1       7.003  23.826  53.696  1.00  0.00     0.069 A 
HETATM   23  C   UNL     1       7.038  23.711  55.090  1.00  0.00     0.040 A 
HETATM   24  C   UNL     1       7.866  22.758  55.692  1.00  0.00     0.045 A 
HETATM   25  C   UNL     1       8.655  21.931  54.903  1.00  0.00     0.116 A 
HETATM   26  F   UNL     1       9.447  21.021  55.486  1.00  0.00    -0.206 F 
HETATM   27  C   UNL     1       8.634  22.035  53.519  1.00  0.00     0.045 A 
HETATM   28  C   UNL     1       7.806  22.984  52.918  1.00  0.00     0.040 A 
ENDBRANCH  21  22
ENDBRANCH  20  21
ENDBRANCH  18  20
ENDBRANCH   8  14
BRANCH  12  29
HETATM   29  N   UNL     1       5.115  32.672  57.631  1.00  0.00    -0.282 NA
HETATM   30  H   UNL     1       4.363  32.758  58.311  1.00  0.00     0.126 HD
HETATM   31  H   UNL     1       4.867  33.038  56.716  1.00  0.00     0.126 HD
ENDBRANCH  12  29
TORSDOF 5
ENDMDL
