MODEL 1
REMARK VINA RESULT:     -10.8      0.000      0.000
REMARK  9 active torsions:
REMARK  status: ('A' for Active; 'I' for Inactive)
REMARK    1  A    between atoms: C_2  and  C_3 
REMARK    2  A    between atoms: C_3  and  C_4 
REMARK    3  A    between atoms: C_3  and  C_39 
REMARK    4  A    between atoms: C_6  and  C_7 
REMARK    5  A    between atoms: C_14  and  C_15 
REMARK    6  A    between atoms: C_18  and  C_19 
REMARK    7  A    between atoms: C_19  and  N_20 
REMARK       I    between atoms: N_20  and  C_21 
REMARK       I    between atoms: C_21  and  N_22 
REMARK    8  A    between atoms: N_22  and  C_23 
REMARK    9  A    between atoms: C_25  and  C_26 
ROOT
HETATM    1  C   UNL     1       4.638  31.987  57.545  1.00  0.00     0.068 C 
HETATM    2  C   UNL     1       3.750  30.711  57.546  1.00  0.00     0.001 C 
HETATM    3  C   UNL     1       4.633  29.454  57.357  1.00  0.00     0.040 C 
HETATM    4  C   UNL     1       5.309  29.468  55.973  1.00  0.00     0.206 C 
HETATM    5  N   UNL     1       5.048  30.848  55.379  1.00  0.00    -0.065 N 
HETATM    6  H   UNL     1       5.618  30.928  54.510  1.00  0.00     0.280 HD
HETATM    7  C   UNL     1       5.511  31.987  56.277  1.00  0.00     0.246 C 
HETATM    8  C   UNL     1       2.794  30.807  56.334  1.00  0.00     0.033 C 
HETATM    9  C   UNL     1       3.589  31.004  55.038  1.00  0.00     0.236 C 
ENDROOT
BRANCH   1  10
HETATM   10  C   UNL     1       5.431  32.148  58.824  1.00  0.00     0.045 A 
HETATM   11  N   UNL     1       4.780  32.572  59.928  1.00  0.00    -0.233 NA
HETATM   12  C   UNL     1       5.519  32.742  61.048  1.00  0.00     0.160 A 
HETATM   13  N   UNL     1       6.848  32.553  61.110  1.00  0.00    -0.233 NA
HETATM   14  C   UNL     1       7.478  32.137  59.994  1.00  0.00     0.043 A 
HETATM   15  C   UNL     1       6.796  31.918  58.814  1.00  0.00     0.055 A 
BRANCH  12  16
HETATM   16  C   UNL     1       4.837  33.175  62.281  1.00  0.00     0.014 A 
HETATM   17  C   UNL     1       3.513  33.640  62.256  1.00  0.00     0.034 A 
HETATM   18  C   UNL     1       2.903  34.031  63.438  1.00  0.00     0.117 A 
HETATM   19  N   UNL     1       3.512  33.993  64.639  1.00  0.00    -0.273 NA
HETATM   20  C   UNL     1       4.787  33.562  64.659  1.00  0.00     0.117 A 
HETATM   21  C   UNL     1       5.477  33.151  63.529  1.00  0.00     0.034 A 
ENDBRANCH  12  16
BRANCH  14  22
HETATM   22  C   UNL     1       8.985  31.955  60.058  1.00  0.00     0.037 C 
BRANCH  22  23
HETATM   23  C   UNL     1       9.454  30.765  59.192  1.00  0.00     0.006 C 
HETATM   24  C   UNL     1      10.345  31.182  58.028  1.00  0.00     0.006 C 
ENDBRANCH  22  23
BRANCH  22  25
HETATM   25  C   UNL     1       9.452  31.755  61.516  1.00  0.00     0.006 C 
HETATM   26  C   UNL     1       9.474  30.294  61.950  1.00  0.00     0.006 C 
ENDBRANCH  22  25
ENDBRANCH  14  22
ENDBRANCH   1  10
BRANCH   4  27
HETATM   27  C   UNL     1       6.810  29.073  56.014  1.00  0.00     0.157 C 
BRANCH  27  28
HETATM   28  N   UNL     1       7.098  27.654  56.249  1.00  0.00    -0.341 N 
HETATM   29  C   UNL     1       7.002  26.718  55.247  1.00  0.00     0.320 C 
HETATM   30  N   UNL     1       7.540  25.508  55.598  1.00  0.00    -0.309 N 
HETATM   31  O   UNL     1       6.448  26.991  54.188  1.00  0.00    -0.247 OA
HETATM   32  H   UNL     1       7.719  25.350  56.580  1.00  0.00     0.170 HD
HETATM   33  H   UNL     1       7.844  27.473  56.911  1.00  0.00     0.164 HD
BRANCH  30  34
HETATM   34  C   UNL     1       7.715  24.394  54.745  1.00  0.00     0.037 A 
HETATM   35  C   UNL     1       7.899  23.088  55.208  1.00  0.00     0.044 A 
HETATM   36  C   UNL     1       8.062  22.017  54.316  1.00  0.00     0.011 A 
HETATM   37  C   UNL     1       8.034  22.257  52.940  1.00  0.00     0.015 A 
HETATM   38  C   UNL     1       7.837  23.556  52.468  1.00  0.00     0.003 A 
HETATM   39  C   UNL     1       7.675  24.618  53.364  1.00  0.00     0.029 A 
BRANCH  36  40
HETATM   40  C   UNL     1       8.266  20.653  54.889  1.00  0.00     0.155 C 
HETATM   41  C   UNL     1       7.963  20.418  56.346  1.00  0.00     0.096 C 
HETATM   42  O   UNL     1       8.667  19.742  54.166  1.00  0.00    -0.293 OA
ENDBRANCH  36  40
ENDBRANCH  30  34
ENDBRANCH  27  28
ENDBRANCH   4  27
TORSDOF 9
ENDMDL
MODEL 2
REMARK VINA RESULT:     -10.7      3.544     10.643
REMARK  9 active torsions:
REMARK  status: ('A' for Active; 'I' for Inactive)
REMARK    1  A    between atoms: C_2  and  C_3 
REMARK    2  A    between atoms: C_3  and  C_4 
REMARK    3  A    between atoms: C_3  and  C_39 
REMARK    4  A    between atoms: C_6  and  C_7 
REMARK    5  A    between atoms: C_14  and  C_15 
REMARK    6  A    between atoms: C_18  and  C_19 
REMARK    7  A    between atoms: C_19  and  N_20 
REMARK       I    between atoms: N_20  and  C_21 
REMARK       I    between atoms: C_21  and  N_22 
REMARK    8  A    between atoms: N_22  and  C_23 
REMARK    9  A    between atoms: C_25  and  C_26 
ROOT
HETATM    1  C   UNL     1       4.170  28.575  55.646  1.00  0.00     0.068 C 
HETATM    2  C   UNL     1       4.177  30.094  55.318  1.00  0.00     0.001 C 
HETATM    3  C   UNL     1       5.550  30.707  55.685  1.00  0.00     0.040 C 
HETATM    4  C   UNL     1       5.793  30.626  57.204  1.00  0.00     0.206 C 
HETATM    5  N   UNL     1       4.684  29.747  57.772  1.00  0.00    -0.065 N 
HETATM    6  H   UNL     1       4.913  29.561  58.772  1.00  0.00     0.280 HD
HETATM    7  C   UNL     1       4.604  28.378  57.111  1.00  0.00     0.246 C 
HETATM    8  C   UNL     1       3.104  30.767  56.205  1.00  0.00     0.033 C 
HETATM    9  C   UNL     1       3.357  30.455  57.685  1.00  0.00     0.236 C 
ENDROOT
BRANCH   1  10
HETATM   10  C   UNL     1       4.983  27.761  54.663  1.00  0.00     0.045 A 
HETATM   11  N   UNL     1       4.774  27.962  53.344  1.00  0.00    -0.233 NA
HETATM   12  C   UNL     1       5.488  27.196  52.487  1.00  0.00     0.160 A 
HETATM   13  N   UNL     1       6.348  26.237  52.869  1.00  0.00    -0.233 NA
HETATM   14  C   UNL     1       6.536  26.050  54.190  1.00  0.00     0.043 A 
HETATM   15  C   UNL     1       5.864  26.802  55.133  1.00  0.00     0.055 A 
BRANCH  12  16
HETATM   16  C   UNL     1       5.308  27.409  51.039  1.00  0.00     0.014 A 
HETATM   17  C   UNL     1       4.854  26.377  50.202  1.00  0.00     0.034 A 
HETATM   18  C   UNL     1       4.691  26.618  48.847  1.00  0.00     0.117 A 
HETATM   19  N   UNL     1       4.946  27.806  48.264  1.00  0.00    -0.273 NA
HETATM   20  C   UNL     1       5.396  28.789  49.066  1.00  0.00     0.117 A 
HETATM   21  C   UNL     1       5.590  28.641  50.431  1.00  0.00     0.034 A 
ENDBRANCH  12  16
BRANCH  14  22
HETATM   22  C   UNL     1       7.485  24.944  54.621  1.00  0.00     0.037 C 
BRANCH  22  23
HETATM   23  C   UNL     1       7.105  23.586  53.989  1.00  0.00     0.006 C 
HETATM   24  C   UNL     1       8.224  22.977  53.154  1.00  0.00     0.006 C 
ENDBRANCH  22  23
BRANCH  22  25
HETATM   25  C   UNL     1       7.513  24.815  56.159  1.00  0.00     0.006 C 
HETATM   26  C   UNL     1       8.563  23.832  56.664  1.00  0.00     0.006 C 
ENDBRANCH  22  25
ENDBRANCH  14  22
ENDBRANCH   1  10
BRANCH   4  27
HETATM   27  C   UNL     1       7.224  30.155  57.578  1.00  0.00     0.157 C 
BRANCH  27  28
HETATM   28  N   UNL     1       7.550  30.151  59.008  1.00  0.00    -0.341 N 
HETATM   29  C   UNL     1       7.321  31.245  59.808  1.00  0.00     0.320 C 
HETATM   30  N   UNL     1       7.462  30.966  61.141  1.00  0.00    -0.309 N 
HETATM   31  O   UNL     1       7.059  32.336  59.314  1.00  0.00    -0.247 OA
HETATM   32  H   UNL     1       7.934  30.107  61.385  1.00  0.00     0.170 HD
HETATM   33  H   UNL     1       7.411  29.263  59.476  1.00  0.00     0.164 HD
BRANCH  30  34
HETATM   34  C   UNL     1       7.162  31.840  62.212  1.00  0.00     0.037 A 
HETATM   35  C   UNL     1       5.867  32.269  62.518  1.00  0.00     0.044 A 
HETATM   36  C   UNL     1       5.624  33.134  63.597  1.00  0.00     0.011 A 
HETATM   37  C   UNL     1       6.693  33.569  64.384  1.00  0.00     0.015 A 
HETATM   38  C   UNL     1       7.987  33.134  64.094  1.00  0.00     0.003 A 
HETATM   39  C   UNL     1       8.220  32.272  63.018  1.00  0.00     0.029 A 
BRANCH  36  40
HETATM   40  C   UNL     1       4.215  33.557  63.851  1.00  0.00     0.155 C 
HETATM   41  C   UNL     1       3.915  34.431  65.040  1.00  0.00     0.096 C 
HETATM   42  O   UNL     1       3.323  33.197  63.083  1.00  0.00    -0.293 OA
ENDBRANCH  36  40
ENDBRANCH  30  34
ENDBRANCH  27  28
ENDBRANCH   4  27
TORSDOF 9
ENDMDL
MODEL 3
REMARK VINA RESULT:     -10.2      3.386     10.144
REMARK  9 active torsions:
REMARK  status: ('A' for Active; 'I' for Inactive)
REMARK    1  A    between atoms: C_2  and  C_3 
REMARK    2  A    between atoms: C_3  and  C_4 
REMARK    3  A    between atoms: C_3  and  C_39 
REMARK    4  A    between atoms: C_6  and  C_7 
REMARK    5  A    between atoms: C_14  and  C_15 
REMARK    6  A    between atoms: C_18  and  C_19 
REMARK    7  A    between atoms: C_19  and  N_20 
REMARK       I    between atoms: N_20  and  C_21 
REMARK       I    between atoms: C_21  and  N_22 
REMARK    8  A    between atoms: N_22  and  C_23 
REMARK    9  A    between atoms: C_25  and  C_26 
ROOT
HETATM    1  C   UNL     1       4.956  30.062  55.981  1.00  0.00     0.068 C 
HETATM    2  C   UNL     1       5.186  31.585  55.771  1.00  0.00     0.001 C 
HETATM    3  C   UNL     1       5.098  32.323  57.128  1.00  0.00     0.040 C 
HETATM    4  C   UNL     1       3.678  32.211  57.717  1.00  0.00     0.206 C 
HETATM    5  N   UNL     1       2.932  31.200  56.853  1.00  0.00    -0.065 N 
HETATM    6  H   UNL     1       2.021  31.002  57.320  1.00  0.00     0.280 HD
HETATM    7  C   UNL     1       3.640  29.856  56.752  1.00  0.00     0.246 C 
HETATM    8  C   UNL     1       4.043  32.108  54.870  1.00  0.00     0.033 C 
HETATM    9  C   UNL     1       2.679  31.769  55.481  1.00  0.00     0.236 C 
ENDROOT
BRANCH   1  10
HETATM   10  C   UNL     1       6.143  29.375  56.621  1.00  0.00     0.045 A 
HETATM   11  N   UNL     1       6.293  28.048  56.423  1.00  0.00    -0.233 NA
HETATM   12  C   UNL     1       7.342  27.452  57.035  1.00  0.00     0.160 A 
HETATM   13  N   UNL     1       8.204  28.089  57.846  1.00  0.00    -0.233 NA
HETATM   14  C   UNL     1       8.031  29.411  58.034  1.00  0.00     0.043 A 
HETATM   15  C   UNL     1       6.999  30.102  57.430  1.00  0.00     0.055 A 
BRANCH  12  16
HETATM   16  C   UNL     1       7.555  26.009  56.818  1.00  0.00     0.014 A 
HETATM   17  C   UNL     1       6.726  25.271  55.959  1.00  0.00     0.034 A 
HETATM   18  C   UNL     1       6.963  23.918  55.775  1.00  0.00     0.117 A 
HETATM   19  N   UNL     1       7.962  23.246  56.381  1.00  0.00    -0.273 NA
HETATM   20  C   UNL     1       8.746  23.952  57.217  1.00  0.00     0.117 A 
HETATM   21  C   UNL     1       8.585  25.307  57.463  1.00  0.00     0.034 A 
ENDBRANCH  12  16
BRANCH  14  22
HETATM   22  C   UNL     1       8.987  30.124  58.975  1.00  0.00     0.037 C 
BRANCH  22  23
HETATM   23  C   UNL     1       8.234  31.007  59.995  1.00  0.00     0.006 C 
HETATM   24  C   UNL     1       9.002  31.214  61.294  1.00  0.00     0.006 C 
ENDBRANCH  22  23
BRANCH  22  25
HETATM   25  C   UNL     1       9.995  30.985  58.184  1.00  0.00     0.006 C 
HETATM   26  C   UNL     1      10.951  30.162  57.327  1.00  0.00     0.006 C 
ENDBRANCH  22  25
ENDBRANCH  14  22
ENDBRANCH   1  10
BRANCH   4  27
HETATM   27  C   UNL     1       3.662  31.879  59.233  1.00  0.00     0.157 C 
BRANCH  27  28
HETATM   28  N   UNL     1       4.106  32.948  60.134  1.00  0.00    -0.341 N 
HETATM   29  C   UNL     1       4.333  32.723  61.471  1.00  0.00     0.320 C 
HETATM   30  N   UNL     1       4.968  33.771  62.085  1.00  0.00    -0.309 N 
HETATM   31  O   UNL     1       3.948  31.689  62.005  1.00  0.00    -0.247 OA
HETATM   32  H   UNL     1       4.985  34.652  61.592  1.00  0.00     0.170 HD
HETATM   33  H   UNL     1       4.737  33.624  59.718  1.00  0.00     0.164 HD
BRANCH  30  34
HETATM   34  C   UNL     1       5.457  33.787  63.411  1.00  0.00     0.037 A 
HETATM   35  C   UNL     1       4.657  34.062  64.525  1.00  0.00     0.044 A 
HETATM   36  C   UNL     1       5.192  34.059  65.823  1.00  0.00     0.011 A 
HETATM   37  C   UNL     1       6.547  33.771  66.008  1.00  0.00     0.015 A 
HETATM   38  C   UNL     1       7.350  33.482  64.902  1.00  0.00     0.003 A 
HETATM   39  C   UNL     1       6.808  33.487  63.613  1.00  0.00     0.029 A 
BRANCH  36  40
HETATM   40  C   UNL     1       4.275  34.375  66.958  1.00  0.00     0.155 C 
HETATM   41  C   UNL     1       3.162  35.366  66.748  1.00  0.00     0.096 C 
HETATM   42  O   UNL     1       4.435  33.815  68.043  1.00  0.00    -0.293 OA
ENDBRANCH  36  40
ENDBRANCH  30  34
ENDBRANCH  27  28
ENDBRANCH   4  27
TORSDOF 9
ENDMDL
MODEL 4
REMARK VINA RESULT:     -10.1      3.798     10.012
REMARK  9 active torsions:
REMARK  status: ('A' for Active; 'I' for Inactive)
REMARK    1  A    between atoms: C_2  and  C_3 
REMARK    2  A    between atoms: C_3  and  C_4 
REMARK    3  A    between atoms: C_3  and  C_39 
REMARK    4  A    between atoms: C_6  and  C_7 
REMARK    5  A    between atoms: C_14  and  C_15 
REMARK    6  A    between atoms: C_18  and  C_19 
REMARK    7  A    between atoms: C_19  and  N_20 
REMARK       I    between atoms: N_20  and  C_21 
REMARK       I    between atoms: C_21  and  N_22 
REMARK    8  A    between atoms: N_22  and  C_23 
REMARK    9  A    between atoms: C_25  and  C_26 
ROOT
HETATM    1  C   UNL     1       6.690  25.816  52.108  1.00  0.00     0.068 C 
HETATM    2  C   UNL     1       6.008  24.510  52.604  1.00  0.00     0.001 C 
HETATM    3  C   UNL     1       5.275  24.773  53.941  1.00  0.00     0.040 C 
HETATM    4  C   UNL     1       6.280  25.143  55.049  1.00  0.00     0.206 C 
HETATM    5  N   UNL     1       7.624  25.350  54.359  1.00  0.00    -0.065 N 
HETATM    6  H   UNL     1       8.282  25.742  55.068  1.00  0.00     0.280 HD
HETATM    7  C   UNL     1       7.573  26.379  53.238  1.00  0.00     0.246 C 
HETATM    8  C   UNL     1       7.124  23.473  52.870  1.00  0.00     0.033 C 
HETATM    9  C   UNL     1       8.160  24.038  53.850  1.00  0.00     0.236 C 
ENDROOT
BRANCH   1  10
HETATM   10  C   UNL     1       5.700  26.821  51.560  1.00  0.00     0.045 A 
HETATM   11  N   UNL     1       5.388  27.889  52.324  1.00  0.00    -0.233 NA
HETATM   12  C   UNL     1       4.474  28.753  51.825  1.00  0.00     0.160 A 
HETATM   13  N   UNL     1       3.843  28.588  50.650  1.00  0.00    -0.233 NA
HETATM   14  C   UNL     1       4.165  27.511  49.908  1.00  0.00     0.043 A 
HETATM   15  C   UNL     1       5.103  26.591  50.332  1.00  0.00     0.055 A 
BRANCH  12  16
HETATM   16  C   UNL     1       4.131  29.948  52.618  1.00  0.00     0.014 A 
HETATM   17  C   UNL     1       4.130  31.228  52.043  1.00  0.00     0.034 A 
HETATM   18  C   UNL     1       3.796  32.326  52.819  1.00  0.00     0.117 A 
HETATM   19  N   UNL     1       3.460  32.245  54.122  1.00  0.00    -0.273 NA
HETATM   20  C   UNL     1       3.477  31.018  54.675  1.00  0.00     0.117 A 
HETATM   21  C   UNL     1       3.799  29.864  53.978  1.00  0.00     0.034 A 
ENDBRANCH  12  16
BRANCH  14  22
HETATM   22  C   UNL     1       3.427  27.308  48.596  1.00  0.00     0.037 C 
BRANCH  22  23
HETATM   23  C   UNL     1       3.938  26.063  47.838  1.00  0.00     0.006 C 
HETATM   24  C   UNL     1       2.835  25.309  47.106  1.00  0.00     0.006 C 
ENDBRANCH  22  23
BRANCH  22  25
HETATM   25  C   UNL     1       3.557  28.557  47.696  1.00  0.00     0.006 C 
HETATM   26  C   UNL     1       4.995  28.865  47.294  1.00  0.00     0.006 C 
ENDBRANCH  22  25
ENDBRANCH  14  22
ENDBRANCH   1  10
BRANCH   4  27
HETATM   27  C   UNL     1       5.826  26.345  55.920  1.00  0.00     0.157 C 
BRANCH  27  28
HETATM   28  N   UNL     1       6.757  26.770  56.970  1.00  0.00    -0.341 N 
HETATM   29  C   UNL     1       7.313  28.028  56.981  1.00  0.00     0.320 C 
HETATM   30  N   UNL     1       7.955  28.313  58.157  1.00  0.00    -0.309 N 
HETATM   31  O   UNL     1       7.237  28.753  55.996  1.00  0.00    -0.247 OA
HETATM   32  H   UNL     1       8.164  27.537  58.769  1.00  0.00     0.170 HD
HETATM   33  H   UNL     1       6.561  26.399  57.892  1.00  0.00     0.164 HD
BRANCH  30  34
HETATM   34  C   UNL     1       8.504  29.564  58.524  1.00  0.00     0.037 A 
HETATM   35  C   UNL     1       8.014  30.342  59.576  1.00  0.00     0.044 A 
HETATM   36  C   UNL     1       8.601  31.575  59.903  1.00  0.00     0.011 A 
HETATM   37  C   UNL     1       9.698  32.031  59.168  1.00  0.00     0.015 A 
HETATM   38  C   UNL     1      10.203  31.253  58.124  1.00  0.00     0.003 A 
HETATM   39  C   UNL     1       9.612  30.026  57.806  1.00  0.00     0.029 A 
BRANCH  36  40
HETATM   40  C   UNL     1       8.011  32.354  61.032  1.00  0.00     0.155 C 
HETATM   41  C   UNL     1       8.646  32.264  62.395  1.00  0.00     0.096 C 
HETATM   42  O   UNL     1       7.026  33.064  60.834  1.00  0.00    -0.293 OA
ENDBRANCH  36  40
ENDBRANCH  30  34
ENDBRANCH  27  28
ENDBRANCH   4  27
TORSDOF 9
ENDMDL
MODEL 5
REMARK VINA RESULT:      -9.9      3.542     10.714
REMARK  9 active torsions:
REMARK  status: ('A' for Active; 'I' for Inactive)
REMARK    1  A    between atoms: C_2  and  C_3 
REMARK    2  A    between atoms: C_3  and  C_4 
REMARK    3  A    between atoms: C_3  and  C_39 
REMARK    4  A    between atoms: C_6  and  C_7 
REMARK    5  A    between atoms: C_14  and  C_15 
REMARK    6  A    between atoms: C_18  and  C_19 
REMARK    7  A    between atoms: C_19  and  N_20 
REMARK       I    between atoms: N_20  and  C_21 
REMARK       I    between atoms: C_21  and  N_22 
REMARK    8  A    between atoms: N_22  and  C_23 
REMARK    9  A    between atoms: C_25  and  C_26 
ROOT
HETATM    1  C   UNL     1       3.906  28.553  55.038  1.00  0.00     0.068 C 
HETATM    2  C   UNL     1       4.093  30.069  54.747  1.00  0.00     0.001 C 
HETATM    3  C   UNL     1       5.518  30.512  55.155  1.00  0.00     0.040 C 
HETATM    4  C   UNL     1       5.717  30.371  56.676  1.00  0.00     0.206 C 
HETATM    5  N   UNL     1       4.503  29.611  57.201  1.00  0.00    -0.065 N 
HETATM    6  H   UNL     1       4.687  29.378  58.201  1.00  0.00     0.280 HD
HETATM    7  C   UNL     1       4.282  28.275  56.505  1.00  0.00     0.246 C 
HETATM    8  C   UNL     1       3.084  30.840  55.630  1.00  0.00     0.033 C 
HETATM    9  C   UNL     1       3.268  30.468  57.106  1.00  0.00     0.236 C 
ENDROOT
BRANCH   1  10
HETATM   10  C   UNL     1       4.642  27.673  54.051  1.00  0.00     0.045 A 
HETATM   11  N   UNL     1       5.391  26.661  54.536  1.00  0.00    -0.233 NA
HETATM   12  C   UNL     1       6.068  25.913  53.634  1.00  0.00     0.160 A 
HETATM   13  N   UNL     1       6.065  26.142  52.310  1.00  0.00    -0.233 NA
HETATM   14  C   UNL     1       5.315  27.162  51.849  1.00  0.00     0.043 A 
HETATM   15  C   UNL     1       4.577  27.962  52.698  1.00  0.00     0.055 A 
BRANCH  12  16
HETATM   16  C   UNL     1       6.873  24.779  54.125  1.00  0.00     0.014 A 
HETATM   17  C   UNL     1       7.618  23.979  53.244  1.00  0.00     0.034 A 
HETATM   18  C   UNL     1       8.368  22.926  53.744  1.00  0.00     0.117 A 
HETATM   19  N   UNL     1       8.432  22.612  55.052  1.00  0.00    -0.273 NA
HETATM   20  C   UNL     1       7.705  23.370  55.893  1.00  0.00     0.117 A 
HETATM   21  C   UNL     1       6.925  24.442  55.485  1.00  0.00     0.034 A 
ENDBRANCH  12  16
BRANCH  14  22
HETATM   22  C   UNL     1       5.338  27.440  50.355  1.00  0.00     0.037 C 
BRANCH  22  23
HETATM   23  C   UNL     1       4.704  28.807  50.018  1.00  0.00     0.006 C 
HETATM   24  C   UNL     1       5.734  29.896  49.741  1.00  0.00     0.006 C 
ENDBRANCH  22  23
BRANCH  22  25
HETATM   25  C   UNL     1       4.611  26.321  49.579  1.00  0.00     0.006 C 
HETATM   26  C   UNL     1       3.491  26.837  48.683  1.00  0.00     0.006 C 
ENDBRANCH  22  25
ENDBRANCH  14  22
ENDBRANCH   1  10
BRANCH   4  27
HETATM   27  C   UNL     1       7.077  29.732  57.065  1.00  0.00     0.157 C 
BRANCH  27  28
HETATM   28  N   UNL     1       7.448  29.815  58.482  1.00  0.00    -0.341 N 
HETATM   29  C   UNL     1       7.314  30.979  59.200  1.00  0.00     0.320 C 
HETATM   30  N   UNL     1       7.481  30.794  60.547  1.00  0.00    -0.309 N 
HETATM   31  O   UNL     1       7.106  32.045  58.630  1.00  0.00    -0.247 OA
HETATM   32  H   UNL     1       7.905  29.927  60.844  1.00  0.00     0.170 HD
HETATM   33  H   UNL     1       7.269  28.976  59.021  1.00  0.00     0.164 HD
BRANCH  30  34
HETATM   34  C   UNL     1       7.271  31.764  61.554  1.00  0.00     0.037 A 
HETATM   35  C   UNL     1       6.229  32.696  61.523  1.00  0.00     0.044 A 
HETATM   36  C   UNL     1       6.063  33.635  62.553  1.00  0.00     0.011 A 
HETATM   37  C   UNL     1       6.950  33.636  63.633  1.00  0.00     0.015 A 
HETATM   38  C   UNL     1       7.985  32.700  63.678  1.00  0.00     0.003 A 
HETATM   39  C   UNL     1       8.143  31.768  62.648  1.00  0.00     0.029 A 
BRANCH  36  40
HETATM   40  C   UNL     1       4.933  34.605  62.440  1.00  0.00     0.155 C 
HETATM   41  C   UNL     1       4.337  34.881  61.086  1.00  0.00     0.096 C 
HETATM   42  O   UNL     1       4.500  35.154  63.452  1.00  0.00    -0.293 OA
ENDBRANCH  36  40
ENDBRANCH  30  34
ENDBRANCH  27  28
ENDBRANCH   4  27
TORSDOF 9
ENDMDL
MODEL 6
REMARK VINA RESULT:      -9.9      4.343     10.917
REMARK  9 active torsions:
REMARK  status: ('A' for Active; 'I' for Inactive)
REMARK    1  A    between atoms: C_2  and  C_3 
REMARK    2  A    between atoms: C_3  and  C_4 
REMARK    3  A    between atoms: C_3  and  C_39 
REMARK    4  A    between atoms: C_6  and  C_7 
REMARK    5  A    between atoms: C_14  and  C_15 
REMARK    6  A    between atoms: C_18  and  C_19 
REMARK    7  A    between atoms: C_19  and  N_20 
REMARK       I    between atoms: N_20  and  C_21 
REMARK       I    between atoms: C_21  and  N_22 
REMARK    8  A    between atoms: N_22  and  C_23 
REMARK    9  A    between atoms: C_25  and  C_26 
ROOT
HETATM    1  C   UNL     1       6.693  25.596  52.018  1.00  0.00     0.068 C 
HETATM    2  C   UNL     1       5.962  24.440  52.758  1.00  0.00     0.001 C 
HETATM    3  C   UNL     1       5.430  24.941  54.122  1.00  0.00     0.040 C 
HETATM    4  C   UNL     1       6.596  25.334  55.049  1.00  0.00     0.206 C 
HETATM    5  N   UNL     1       7.856  25.312  54.190  1.00  0.00    -0.065 N 
HETATM    6  H   UNL     1       8.631  25.715  54.761  1.00  0.00     0.280 HD
HETATM    7  C   UNL     1       7.758  26.195  52.955  1.00  0.00     0.246 C 
HETATM    8  C   UNL     1       7.004  23.331  53.032  1.00  0.00     0.033 C 
HETATM    9  C   UNL     1       8.202  23.898  53.804  1.00  0.00     0.236 C 
ENDROOT
BRANCH   1  10
HETATM   10  C   UNL     1       5.737  26.626  51.455  1.00  0.00     0.045 A 
HETATM   11  N   UNL     1       5.010  26.292  50.367  1.00  0.00    -0.233 NA
HETATM   12  C   UNL     1       4.190  27.243  49.863  1.00  0.00     0.160 A 
HETATM   13  N   UNL     1       4.091  28.491  50.353  1.00  0.00    -0.233 NA
HETATM   14  C   UNL     1       4.831  28.803  51.434  1.00  0.00     0.043 A 
HETATM   15  C   UNL     1       5.678  27.886  52.024  1.00  0.00     0.055 A 
BRANCH  12  16
HETATM   16  C   UNL     1       3.358  26.905  48.694  1.00  0.00     0.014 A 
HETATM   17  C   UNL     1       3.497  25.675  48.032  1.00  0.00     0.034 A 
HETATM   18  C   UNL     1       2.691  25.391  46.941  1.00  0.00     0.117 A 
HETATM   19  N   UNL     1       1.758  26.237  46.462  1.00  0.00    -0.273 NA
HETATM   20  C   UNL     1       1.638  27.423  47.088  1.00  0.00     0.117 A 
HETATM   21  C   UNL     1       2.399  27.794  48.186  1.00  0.00     0.034 A 
ENDBRANCH  12  16
BRANCH  14  22
HETATM   22  C   UNL     1       4.742  30.223  51.967  1.00  0.00     0.037 C 
BRANCH  22  23
HETATM   23  C   UNL     1       3.646  30.362  53.046  1.00  0.00     0.006 C 
HETATM   24  C   UNL     1       4.199  30.677  54.430  1.00  0.00     0.006 C 
ENDBRANCH  22  23
BRANCH  22  25
HETATM   25  C   UNL     1       4.477  31.223  50.820  1.00  0.00     0.006 C 
HETATM   26  C   UNL     1       5.743  31.889  50.293  1.00  0.00     0.006 C 
ENDBRANCH  22  25
ENDBRANCH  14  22
ENDBRANCH   1  10
BRANCH   4  27
HETATM   27  C   UNL     1       6.367  26.675  55.797  1.00  0.00     0.157 C 
BRANCH  27  28
HETATM   28  N   UNL     1       7.526  27.227  56.505  1.00  0.00    -0.341 N 
HETATM   29  C   UNL     1       7.545  28.521  56.969  1.00  0.00     0.320 C 
HETATM   30  N   UNL     1       8.602  28.769  57.805  1.00  0.00    -0.309 N 
HETATM   31  O   UNL     1       6.697  29.328  56.605  1.00  0.00    -0.247 OA
HETATM   32  H   UNL     1       9.357  28.099  57.805  1.00  0.00     0.170 HD
HETATM   33  H   UNL     1       8.017  26.570  57.100  1.00  0.00     0.164 HD
BRANCH  30  34
HETATM   34  C   UNL     1       8.819  29.955  58.545  1.00  0.00     0.037 A 
HETATM   35  C   UNL     1       8.050  30.325  59.652  1.00  0.00     0.044 A 
HETATM   36  C   UNL     1       8.312  31.511  60.355  1.00  0.00     0.011 A 
HETATM   37  C   UNL     1       9.363  32.336  59.946  1.00  0.00     0.015 A 
HETATM   38  C   UNL     1      10.144  31.967  58.849  1.00  0.00     0.003 A 
HETATM   39  C   UNL     1       9.876  30.782  58.155  1.00  0.00     0.029 A 
BRANCH  36  40
HETATM   40  C   UNL     1       7.437  31.843  61.519  1.00  0.00     0.155 C 
HETATM   41  C   UNL     1       8.050  31.937  62.892  1.00  0.00     0.096 C 
HETATM   42  O   UNL     1       6.237  32.043  61.342  1.00  0.00    -0.293 OA
ENDBRANCH  36  40
ENDBRANCH  30  34
ENDBRANCH  27  28
ENDBRANCH   4  27
TORSDOF 9
ENDMDL
MODEL 7
REMARK VINA RESULT:      -9.8      1.818      4.172
REMARK  9 active torsions:
REMARK  status: ('A' for Active; 'I' for Inactive)
REMARK    1  A    between atoms: C_2  and  C_3 
REMARK    2  A    between atoms: C_3  and  C_4 
REMARK    3  A    between atoms: C_3  and  C_39 
REMARK    4  A    between atoms: C_6  and  C_7 
REMARK    5  A    between atoms: C_14  and  C_15 
REMARK    6  A    between atoms: C_18  and  C_19 
REMARK    7  A    between atoms: C_19  and  N_20 
REMARK       I    between atoms: N_20  and  C_21 
REMARK       I    between atoms: C_21  and  N_22 
REMARK    8  A    between atoms: N_22  and  C_23 
REMARK    9  A    between atoms: C_25  and  C_26 
ROOT
HETATM    1  C   UNL     1       4.342  32.988  56.425  1.00  0.00     0.068 C 
HETATM    2  C   UNL     1       2.911  32.529  56.025  1.00  0.00     0.001 C 
HETATM    3  C   UNL     1       2.753  31.011  56.284  1.00  0.00     0.040 C 
HETATM    4  C   UNL     1       3.700  30.203  55.378  1.00  0.00     0.206 C 
HETATM    5  N   UNL     1       4.631  31.213  54.716  1.00  0.00    -0.065 N 
HETATM    6  H   UNL     1       5.371  30.676  54.214  1.00  0.00     0.280 HD
HETATM    7  C   UNL     1       5.372  32.092  55.714  1.00  0.00     0.246 C 
HETATM    8  C   UNL     1       2.754  32.770  54.505  1.00  0.00     0.033 C 
HETATM    9  C   UNL     1       3.870  32.060  53.730  1.00  0.00     0.236 C 
ENDROOT
BRANCH   1  10
HETATM   10  C   UNL     1       4.535  33.056  57.925  1.00  0.00     0.045 A 
HETATM   11  N   UNL     1       5.668  32.537  58.445  1.00  0.00    -0.233 NA
HETATM   12  C   UNL     1       5.799  32.577  59.791  1.00  0.00     0.160 A 
HETATM   13  N   UNL     1       4.864  33.062  60.625  1.00  0.00    -0.233 NA
HETATM   14  C   UNL     1       3.739  33.568  60.085  1.00  0.00     0.043 A 
HETATM   15  C   UNL     1       3.533  33.585  58.720  1.00  0.00     0.055 A 
BRANCH  12  16
HETATM   16  C   UNL     1       7.036  32.048  60.392  1.00  0.00     0.014 A 
HETATM   17  C   UNL     1       7.843  31.125  59.707  1.00  0.00     0.034 A 
HETATM   18  C   UNL     1       9.002  30.655  60.304  1.00  0.00     0.117 A 
HETATM   19  N   UNL     1       9.419  31.036  61.527  1.00  0.00    -0.273 NA
HETATM   20  C   UNL     1       8.636  31.908  62.188  1.00  0.00     0.117 A 
HETATM   21  C   UNL     1       7.460  32.431  61.673  1.00  0.00     0.034 A 
ENDBRANCH  12  16
BRANCH  14  22
HETATM   22  C   UNL     1       2.669  34.086  61.031  1.00  0.00     0.037 C 
BRANCH  22  23
HETATM   23  C   UNL     1       1.653  34.994  60.304  1.00  0.00     0.006 C 
HETATM   24  C   UNL     1       0.210  34.736  60.720  1.00  0.00     0.006 C 
ENDBRANCH  22  23
BRANCH  22  25
HETATM   25  C   UNL     1       3.306  34.855  62.210  1.00  0.00     0.006 C 
HETATM   26  C   UNL     1       3.539  36.332  61.913  1.00  0.00     0.006 C 
ENDBRANCH  22  25
ENDBRANCH  14  22
ENDBRANCH   1  10
BRANCH   4  27
HETATM   27  C   UNL     1       4.439  29.057  56.121  1.00  0.00     0.157 C 
BRANCH  27  28
HETATM   28  N   UNL     1       4.369  27.732  55.496  1.00  0.00    -0.341 N 
HETATM   29  C   UNL     1       5.500  27.042  55.128  1.00  0.00     0.320 C 
HETATM   30  N   UNL     1       5.242  25.740  54.791  1.00  0.00    -0.309 N 
HETATM   31  O   UNL     1       6.589  27.604  55.089  1.00  0.00    -0.247 OA
HETATM   32  H   UNL     1       4.279  25.492  54.615  1.00  0.00     0.170 HD
HETATM   33  H   UNL     1       3.618  27.140  55.831  1.00  0.00     0.164 HD
BRANCH  30  34
HETATM   34  C   UNL     1       6.206  24.747  54.503  1.00  0.00     0.037 A 
HETATM   35  C   UNL     1       6.791  23.933  55.478  1.00  0.00     0.044 A 
HETATM   36  C   UNL     1       7.740  22.957  55.136  1.00  0.00     0.011 A 
HETATM   37  C   UNL     1       8.105  22.791  53.797  1.00  0.00     0.015 A 
HETATM   38  C   UNL     1       7.515  23.590  52.816  1.00  0.00     0.003 A 
HETATM   39  C   UNL     1       6.570  24.559  53.165  1.00  0.00     0.029 A 
BRANCH  36  40
HETATM   40  C   UNL     1       8.328  22.136  56.236  1.00  0.00     0.155 C 
HETATM   41  C   UNL     1       8.804  20.740  55.935  1.00  0.00     0.096 C 
HETATM   42  O   UNL     1       8.425  22.613  57.366  1.00  0.00    -0.293 OA
ENDBRANCH  36  40
ENDBRANCH  30  34
ENDBRANCH  27  28
ENDBRANCH   4  27
TORSDOF 9
ENDMDL
MODEL 8
REMARK VINA RESULT:      -9.8      4.464      6.583
REMARK  9 active torsions:
REMARK  status: ('A' for Active; 'I' for Inactive)
REMARK    1  A    between atoms: C_2  and  C_3 
REMARK    2  A    between atoms: C_3  and  C_4 
REMARK    3  A    between atoms: C_3  and  C_39 
REMARK    4  A    between atoms: C_6  and  C_7 
REMARK    5  A    between atoms: C_14  and  C_15 
REMARK    6  A    between atoms: C_18  and  C_19 
REMARK    7  A    between atoms: C_19  and  N_20 
REMARK       I    between atoms: N_20  and  C_21 
REMARK       I    between atoms: C_21  and  N_22 
REMARK    8  A    between atoms: N_22  and  C_23 
REMARK    9  A    between atoms: C_25  and  C_26 
ROOT
HETATM    1  C   UNL     1       6.299  27.513  57.044  1.00  0.00     0.068 C 
HETATM    2  C   UNL     1       7.473  26.903  56.227  1.00  0.00     0.001 C 
HETATM    3  C   UNL     1       7.581  27.606  54.854  1.00  0.00     0.040 C 
HETATM    4  C   UNL     1       6.324  27.339  54.005  1.00  0.00     0.206 C 
HETATM    5  N   UNL     1       5.314  26.667  54.930  1.00  0.00    -0.065 N 
HETATM    6  H   UNL     1       4.408  26.611  54.416  1.00  0.00     0.280 HD
HETATM    7  C   UNL     1       5.021  27.474  56.187  1.00  0.00     0.246 C 
HETATM    8  C   UNL     1       7.139  25.414  55.974  1.00  0.00     0.033 C 
HETATM    9  C   UNL     1       5.774  25.279  55.288  1.00  0.00     0.236 C 
ENDROOT
BRANCH   1  10
HETATM   10  C   UNL     1       6.619  28.889  57.588  1.00  0.00     0.045 A 
HETATM   11  N   UNL     1       5.664  29.840  57.514  1.00  0.00    -0.233 NA
HETATM   12  C   UNL     1       5.987  31.070  57.973  1.00  0.00     0.160 A 
HETATM   13  N   UNL     1       7.198  31.401  58.456  1.00  0.00    -0.233 NA
HETATM   14  C   UNL     1       8.137  30.438  58.514  1.00  0.00     0.043 A 
HETATM   15  C   UNL     1       7.884  29.150  58.085  1.00  0.00     0.055 A 
BRANCH  12  16
HETATM   16  C   UNL     1       4.960  32.127  57.937  1.00  0.00     0.014 A 
HETATM   17  C   UNL     1       4.082  32.253  56.848  1.00  0.00     0.034 A 
HETATM   18  C   UNL     1       3.125  33.255  56.853  1.00  0.00     0.117 A 
HETATM   19  N   UNL     1       2.976  34.138  57.860  1.00  0.00    -0.273 NA
HETATM   20  C   UNL     1       3.828  34.026  58.895  1.00  0.00     0.117 A 
HETATM   21  C   UNL     1       4.816  33.057  58.977  1.00  0.00     0.034 A 
ENDBRANCH  12  16
BRANCH  14  22
HETATM   22  C   UNL     1       9.514  30.821  59.029  1.00  0.00     0.037 C 
BRANCH  22  23
HETATM   23  C   UNL     1       9.449  32.027  59.991  1.00  0.00     0.006 C 
HETATM   24  C   UNL     1       9.492  31.627  61.461  1.00  0.00     0.006 C 
ENDBRANCH  22  23
BRANCH  22  25
HETATM   25  C   UNL     1      10.468  31.138  57.857  1.00  0.00     0.006 C 
HETATM   26  C   UNL     1      11.208  29.913  57.331  1.00  0.00     0.006 C 
ENDBRANCH  22  25
ENDBRANCH  14  22
ENDBRANCH   1  10
BRANCH   4  27
HETATM   27  C   UNL     1       5.779  28.605  53.290  1.00  0.00     0.157 C 
BRANCH  27  28
HETATM   28  N   UNL     1       5.768  28.565  51.824  1.00  0.00    -0.341 N 
HETATM   29  C   UNL     1       4.906  27.752  51.127  1.00  0.00     0.320 C 
HETATM   30  N   UNL     1       4.879  28.033  49.786  1.00  0.00    -0.309 N 
HETATM   31  O   UNL     1       4.284  26.863  51.699  1.00  0.00    -0.247 OA
HETATM   32  H   UNL     1       5.628  28.602  49.420  1.00  0.00     0.170 HD
HETATM   33  H   UNL     1       5.954  29.451  51.370  1.00  0.00     0.164 HD
BRANCH  30  34
HETATM   34  C   UNL     1       4.000  27.467  48.834  1.00  0.00     0.037 A 
HETATM   35  C   UNL     1       2.945  28.170  48.246  1.00  0.00     0.044 A 
HETATM   36  C   UNL     1       2.104  27.561  47.300  1.00  0.00     0.011 A 
HETATM   37  C   UNL     1       2.329  26.232  46.934  1.00  0.00     0.015 A 
HETATM   38  C   UNL     1       3.390  25.527  47.506  1.00  0.00     0.003 A 
HETATM   39  C   UNL     1       4.223  26.142  48.447  1.00  0.00     0.029 A 
BRANCH  36  40
HETATM   40  C   UNL     1       0.991  28.375  46.726  1.00  0.00     0.155 C 
HETATM   41  C   UNL     1      -0.249  27.676  46.234  1.00  0.00     0.096 C 
HETATM   42  O   UNL     1       1.096  29.600  46.674  1.00  0.00    -0.293 OA
ENDBRANCH  36  40
ENDBRANCH  30  34
ENDBRANCH  27  28
ENDBRANCH   4  27
TORSDOF 9
ENDMDL
MODEL 9
REMARK VINA RESULT:      -9.8      4.054      7.259
REMARK  9 active torsions:
REMARK  status: ('A' for Active; 'I' for Inactive)
REMARK    1  A    between atoms: C_2  and  C_3 
REMARK    2  A    between atoms: C_3  and  C_4 
REMARK    3  A    between atoms: C_3  and  C_39 
REMARK    4  A    between atoms: C_6  and  C_7 
REMARK    5  A    between atoms: C_14  and  C_15 
REMARK    6  A    between atoms: C_18  and  C_19 
REMARK    7  A    between atoms: C_19  and  N_20 
REMARK       I    between atoms: N_20  and  C_21 
REMARK       I    between atoms: C_21  and  N_22 
REMARK    8  A    between atoms: N_22  and  C_23 
REMARK    9  A    between atoms: C_25  and  C_26 
ROOT
HETATM    1  C   UNL     1       7.074  25.999  57.322  1.00  0.00     0.068 C 
HETATM    2  C   UNL     1       8.301  25.682  56.422  1.00  0.00     0.001 C 
HETATM    3  C   UNL     1       7.878  25.680  54.934  1.00  0.00     0.040 C 
HETATM    4  C   UNL     1       6.875  24.543  54.656  1.00  0.00     0.206 C 
HETATM    5  N   UNL     1       6.478  23.976  56.015  1.00  0.00    -0.065 N 
HETATM    6  H   UNL     1       5.694  23.307  55.858  1.00  0.00     0.280 HD
HETATM    7  C   UNL     1       5.931  25.029  56.969  1.00  0.00     0.246 C 
HETATM    8  C   UNL     1       8.786  24.258  56.781  1.00  0.00     0.033 C 
HETATM    9  C   UNL     1       7.640  23.249  56.639  1.00  0.00     0.236 C 
ENDROOT
BRANCH   1  10
HETATM   10  C   UNL     1       6.667  27.456  57.264  1.00  0.00     0.045 A 
HETATM   11  N   UNL     1       7.430  28.357  57.917  1.00  0.00    -0.233 NA
HETATM   12  C   UNL     1       7.025  29.646  57.879  1.00  0.00     0.160 A 
HETATM   13  N   UNL     1       5.903  30.066  57.269  1.00  0.00    -0.233 NA
HETATM   14  C   UNL     1       5.153  29.149  56.630  1.00  0.00     0.043 A 
HETATM   15  C   UNL     1       5.505  27.814  56.601  1.00  0.00     0.055 A 
BRANCH  12  16
HETATM   16  C   UNL     1       7.850  30.663  58.556  1.00  0.00     0.014 A 
HETATM   17  C   UNL     1       7.297  31.538  59.504  1.00  0.00     0.034 A 
HETATM   18  C   UNL     1       8.107  32.476  60.124  1.00  0.00     0.117 A 
HETATM   19  N   UNL     1       9.424  32.607  59.873  1.00  0.00    -0.273 NA
HETATM   20  C   UNL     1       9.949  31.777  58.952  1.00  0.00     0.117 A 
HETATM   21  C   UNL     1       9.218  30.810  58.281  1.00  0.00     0.034 A 
ENDBRANCH  12  16
BRANCH  14  22
HETATM   22  C   UNL     1       3.868  29.620  55.968  1.00  0.00     0.037 C 
BRANCH  22  23
HETATM   23  C   UNL     1       4.130  30.205  54.563  1.00  0.00     0.006 C 
HETATM   24  C   UNL     1       3.629  29.311  53.436  1.00  0.00     0.006 C 
ENDBRANCH  22  23
BRANCH  22  25
HETATM   25  C   UNL     1       3.154  30.670  56.847  1.00  0.00     0.006 C 
HETATM   26  C   UNL     1       2.995  32.023  56.163  1.00  0.00     0.006 C 
ENDBRANCH  22  25
ENDBRANCH  14  22
ENDBRANCH   1  10
BRANCH   4  27
HETATM   27  C   UNL     1       5.671  24.981  53.779  1.00  0.00     0.157 C 
BRANCH  27  28
HETATM   28  N   UNL     1       5.887  26.154  52.925  1.00  0.00    -0.341 N 
HETATM   29  C   UNL     1       5.403  26.214  51.639  1.00  0.00     0.320 C 
HETATM   30  N   UNL     1       5.494  27.468  51.096  1.00  0.00    -0.309 N 
HETATM   31  O   UNL     1       4.982  25.206  51.082  1.00  0.00    -0.247 OA
HETATM   32  H   UNL     1       6.096  28.130  51.564  1.00  0.00     0.170 HD
HETATM   33  H   UNL     1       5.878  27.043  53.409  1.00  0.00     0.164 HD
BRANCH  30  34
HETATM   34  C   UNL     1       4.962  27.878  49.852  1.00  0.00     0.037 A 
HETATM   35  C   UNL     1       4.045  27.120  49.118  1.00  0.00     0.044 A 
HETATM   36  C   UNL     1       3.543  27.578  47.889  1.00  0.00     0.011 A 
HETATM   37  C   UNL     1       3.961  28.815  47.393  1.00  0.00     0.015 A 
HETATM   38  C   UNL     1       4.865  29.585  48.127  1.00  0.00     0.003 A 
HETATM   39  C   UNL     1       5.360  29.121  49.350  1.00  0.00     0.029 A 
BRANCH  36  40
HETATM   40  C   UNL     1       2.576  26.704  47.159  1.00  0.00     0.155 C 
HETATM   41  C   UNL     1       1.131  27.119  47.077  1.00  0.00     0.096 C 
HETATM   42  O   UNL     1       2.974  25.668  46.628  1.00  0.00    -0.293 OA
ENDBRANCH  36  40
ENDBRANCH  30  34
ENDBRANCH  27  28
ENDBRANCH   4  27
TORSDOF 9
ENDMDL
MODEL 10
REMARK VINA RESULT:      -9.6      2.487      5.638
REMARK  9 active torsions:
REMARK  status: ('A' for Active; 'I' for Inactive)
REMARK    1  A    between atoms: C_2  and  C_3 
REMARK    2  A    between atoms: C_3  and  C_4 
REMARK    3  A    between atoms: C_3  and  C_39 
REMARK    4  A    between atoms: C_6  and  C_7 
REMARK    5  A    between atoms: C_14  and  C_15 
REMARK    6  A    between atoms: C_18  and  C_19 
REMARK    7  A    between atoms: C_19  and  N_20 
REMARK       I    between atoms: N_20  and  C_21 
REMARK       I    between atoms: C_21  and  N_22 
REMARK    8  A    between atoms: N_22  and  C_23 
REMARK    9  A    between atoms: C_25  and  C_26 
ROOT
HETATM    1  C   UNL     1       7.531  32.366  62.229  1.00  0.00     0.068 C 
HETATM    2  C   UNL     1       8.838  32.738  61.475  1.00  0.00     0.001 C 
HETATM    3  C   UNL     1       8.615  32.629  59.948  1.00  0.00     0.040 C 
HETATM    4  C   UNL     1       8.322  31.172  59.543  1.00  0.00     0.206 C 
HETATM    5  N   UNL     1       8.121  30.396  60.841  1.00  0.00    -0.065 N 
HETATM    6  H   UNL     1       7.779  29.444  60.586  1.00  0.00     0.280 HD
HETATM    7  C   UNL     1       7.043  30.991  61.736  1.00  0.00     0.246 C 
HETATM    8  C   UNL     1       9.916  31.702  61.872  1.00  0.00     0.033 C 
HETATM    9  C   UNL     1       9.424  30.278  61.588  1.00  0.00     0.236 C 
ENDROOT
BRANCH   1  10
HETATM   10  C   UNL     1       6.476  33.447  62.139  1.00  0.00     0.045 A 
HETATM   11  N   UNL     1       5.696  33.486  61.038  1.00  0.00    -0.233 NA
HETATM   12  C   UNL     1       4.786  34.484  60.966  1.00  0.00     0.160 A 
HETATM   13  N   UNL     1       4.645  35.444  61.896  1.00  0.00    -0.233 NA
HETATM   14  C   UNL     1       5.438  35.390  62.983  1.00  0.00     0.043 A 
HETATM   15  C   UNL     1       6.379  34.393  63.146  1.00  0.00     0.055 A 
BRANCH  12  16
HETATM   16  C   UNL     1       3.896  34.540  59.792  1.00  0.00     0.014 A 
HETATM   17  C   UNL     1       2.734  35.328  59.795  1.00  0.00     0.034 A 
HETATM   18  C   UNL     1       1.926  35.359  58.670  1.00  0.00     0.117 A 
HETATM   19  N   UNL     1       2.189  34.669  57.543  1.00  0.00    -0.273 NA
HETATM   20  C   UNL     1       3.295  33.902  57.548  1.00  0.00     0.117 A 
HETATM   21  C   UNL     1       4.161  33.807  58.626  1.00  0.00     0.034 A 
ENDBRANCH  12  16
BRANCH  14  22
HETATM   22  C   UNL     1       5.299  36.494  64.017  1.00  0.00     0.037 C 
BRANCH  22  23
HETATM   23  C   UNL     1       4.098  36.250  64.956  1.00  0.00     0.006 C 
HETATM   24  C   UNL     1       4.500  36.075  66.415  1.00  0.00     0.006 C 
ENDBRANCH  22  23
BRANCH  22  25
HETATM   25  C   UNL     1       5.156  37.871  63.333  1.00  0.00     0.006 C 
HETATM   26  C   UNL     1       6.411  38.730  63.434  1.00  0.00     0.006 C 
ENDBRANCH  22  25
ENDBRANCH  14  22
ENDBRANCH   1  10
BRANCH   4  27
HETATM   27  C   UNL     1       7.148  31.033  58.537  1.00  0.00     0.157 C 
BRANCH  27  28
HETATM   28  N   UNL     1       6.616  29.680  58.347  1.00  0.00    -0.341 N 
HETATM   29  C   UNL     1       7.203  28.783  57.485  1.00  0.00     0.320 C 
HETATM   30  N   UNL     1       6.713  27.512  57.628  1.00  0.00    -0.309 N 
HETATM   31  O   UNL     1       8.042  29.156  56.673  1.00  0.00    -0.247 OA
HETATM   32  H   UNL     1       5.850  27.405  58.142  1.00  0.00     0.170 HD
HETATM   33  H   UNL     1       6.224  29.253  59.179  1.00  0.00     0.164 HD
BRANCH  30  34
HETATM   34  C   UNL     1       7.206  26.352  56.986  1.00  0.00     0.037 A 
HETATM   35  C   UNL     1       6.737  25.895  55.752  1.00  0.00     0.044 A 
HETATM   36  C   UNL     1       7.266  24.739  55.155  1.00  0.00     0.011 A 
HETATM   37  C   UNL     1       8.284  24.036  55.803  1.00  0.00     0.015 A 
HETATM   38  C   UNL     1       8.769  24.493  57.030  1.00  0.00     0.003 A 
HETATM   39  C   UNL     1       8.236  25.646  57.616  1.00  0.00     0.029 A 
BRANCH  36  40
HETATM   40  C   UNL     1       6.702  24.309  53.842  1.00  0.00     0.155 C 
HETATM   41  C   UNL     1       7.540  23.453  52.929  1.00  0.00     0.096 C 
HETATM   42  O   UNL     1       5.561  24.648  53.528  1.00  0.00    -0.293 OA
ENDBRANCH  36  40
ENDBRANCH  30  34
ENDBRANCH  27  28
ENDBRANCH   4  27
TORSDOF 9
ENDMDL
