MODEL 1
REMARK VINA RESULT:      -9.3      0.000      0.000
REMARK  5 active torsions:
REMARK  status: ('A' for Active; 'I' for Inactive)
REMARK    1  A    between atoms: N_2  and  C_4 
REMARK    2  A    between atoms: C_4  and  C_5 
REMARK    3  A    between atoms: C_5  and  N_6 
REMARK    4  A    between atoms: C_11  and  C_12 
REMARK    5  A    between atoms: C_15  and  O_16 
ROOT
HETATM    1  N   UNL     1       5.429  28.800  56.523  1.00  0.00    -0.332 N 
HETATM    2  C   UNL     1       5.147  28.019  55.406  1.00  0.00     0.279 C 
HETATM    3  O   UNL     1       4.423  28.335  54.479  1.00  0.00    -0.265 OA
HETATM    4  C   UNL     1       5.890  26.758  55.564  1.00  0.00     0.156 C 
HETATM    5  C   UNL     1       6.599  26.883  56.683  1.00  0.00     0.060 C 
HETATM    6  C   UNL     1       6.485  28.206  57.341  1.00  0.00     0.161 C 
HETATM    7  O   UNL     1       5.878  25.702  54.699  1.00  0.00    -0.303 OA
HETATM    8  C   UNL     1       6.783  24.695  54.975  1.00  0.00     0.090 A 
HETATM    9  C   UNL     1       7.567  24.673  56.142  1.00  0.00     0.051 A 
HETATM   10  C   UNL     1       7.438  25.775  57.119  1.00  0.00     0.196 C 
HETATM   11  O   UNL     1       7.983  25.774  58.210  1.00  0.00    -0.287 OA
HETATM   12  C   UNL     1       6.913  23.679  54.029  1.00  0.00     0.041 A 
HETATM   13  C   UNL     1       7.833  22.651  54.249  1.00  0.00     0.045 A 
HETATM   14  C   UNL     1       8.604  22.642  55.411  1.00  0.00     0.117 A 
HETATM   15  F   UNL     1       9.487  21.655  55.604  1.00  0.00    -0.206 F 
HETATM   16  C   UNL     1       8.478  23.641  56.367  1.00  0.00     0.060 A 
ENDROOT
BRANCH   6  17
HETATM   17  C   UNL     1       7.793  28.977  57.300  1.00  0.00    -0.030 A 
HETATM   18  C   UNL     1       8.618  28.994  56.158  1.00  0.00     0.012 A 
HETATM   19  C   UNL     1       9.864  29.626  56.184  1.00  0.00     0.037 A 
HETATM   20  C   UNL     1      10.291  30.245  57.351  1.00  0.00     0.065 A 
HETATM   21  C   UNL     1       9.491  30.252  58.486  1.00  0.00     0.037 A 
HETATM   22  C   UNL     1       8.249  29.615  58.464  1.00  0.00     0.012 A 
BRANCH  20  23
HETATM   23  O   UNL     1      11.508  30.852  57.430  1.00  0.00    -0.361 OA
HETATM   24  H   UNL     1      12.070  30.536  56.704  1.00  0.00     0.217 HD
ENDBRANCH  20  23
ENDBRANCH   6  17
BRANCH   1  25
HETATM   25  C   UNL     1       5.016  30.190  56.641  1.00  0.00     0.155 C 
BRANCH  25  26
HETATM   26  C   UNL     1       3.995  30.434  57.773  1.00  0.00     0.254 C 
BRANCH  26  27
HETATM   27  N   UNL     1       4.589  31.247  58.914  1.00  0.00    -0.077 N 
HETATM   28  C   UNL     1       3.564  31.938  59.768  1.00  0.00     0.269 C 
HETATM   29  H   UNL     1       5.106  30.589  59.515  1.00  0.00     0.279 HD
HETATM   30  C   UNL     1       5.617  32.223  58.401  1.00  0.00     0.269 C 
ENDBRANCH  26  27
ENDBRANCH  25  26
ENDBRANCH   1  25
TORSDOF 5
ENDMDL
MODEL 2
REMARK VINA RESULT:      -9.2      3.368      7.591
REMARK  5 active torsions:
REMARK  status: ('A' for Active; 'I' for Inactive)
REMARK    1  A    between atoms: N_2  and  C_4 
REMARK    2  A    between atoms: C_4  and  C_5 
REMARK    3  A    between atoms: C_5  and  N_6 
REMARK    4  A    between atoms: C_11  and  C_12 
REMARK    5  A    between atoms: C_15  and  O_16 
ROOT
HETATM    1  N   UNL     1       7.148  24.178  56.283  1.00  0.00    -0.332 N 
HETATM    2  C   UNL     1       8.095  24.868  57.034  1.00  0.00     0.279 C 
HETATM    3  O   UNL     1       9.165  24.426  57.413  1.00  0.00    -0.265 OA
HETATM    4  C   UNL     1       7.557  26.217  57.271  1.00  0.00     0.156 C 
HETATM    5  C   UNL     1       6.401  26.277  56.615  1.00  0.00     0.060 C 
HETATM    6  C   UNL     1       6.074  25.062  55.832  1.00  0.00     0.161 C 
HETATM    7  O   UNL     1       8.161  27.213  57.985  1.00  0.00    -0.303 OA
HETATM    8  C   UNL     1       7.542  28.446  57.931  1.00  0.00     0.090 A 
HETATM    9  C   UNL     1       6.296  28.647  57.310  1.00  0.00     0.051 A 
HETATM   10  C   UNL     1       5.615  27.501  56.672  1.00  0.00     0.196 C 
HETATM   11  O   UNL     1       4.482  27.557  56.222  1.00  0.00    -0.287 OA
HETATM   12  C   UNL     1       8.211  29.521  58.513  1.00  0.00     0.041 A 
HETATM   13  C   UNL     1       7.638  30.794  58.463  1.00  0.00     0.045 A 
HETATM   14  C   UNL     1       6.403  30.979  57.843  1.00  0.00     0.117 A 
HETATM   15  F   UNL     1       5.870  32.205  57.796  1.00  0.00    -0.206 F 
HETATM   16  C   UNL     1       5.718  29.916  57.269  1.00  0.00     0.060 A 
ENDROOT
BRANCH   6  17
HETATM   17  C   UNL     1       6.091  25.325  54.336  1.00  0.00    -0.030 A 
HETATM   18  C   UNL     1       7.087  26.114  53.725  1.00  0.00     0.012 A 
HETATM   19  C   UNL     1       7.019  26.426  52.365  1.00  0.00     0.037 A 
HETATM   20  C   UNL     1       5.957  25.949  51.608  1.00  0.00     0.065 A 
HETATM   21  C   UNL     1       4.971  25.160  52.184  1.00  0.00     0.037 A 
HETATM   22  C   UNL     1       5.032  24.854  53.545  1.00  0.00     0.012 A 
BRANCH  20  23
HETATM   23  O   UNL     1       5.837  26.248  50.284  1.00  0.00    -0.361 OA
HETATM   24  H   UNL     1       5.024  26.761  50.145  1.00  0.00     0.217 HD
ENDBRANCH  20  23
ENDBRANCH   6  17
BRANCH   1  25
HETATM   25  C   UNL     1       7.401  22.868  55.702  1.00  0.00     0.155 C 
BRANCH  25  26
HETATM   26  C   UNL     1       8.528  22.870  54.648  1.00  0.00     0.254 C 
BRANCH  26  27
HETATM   27  N   UNL     1       9.091  21.477  54.410  1.00  0.00    -0.077 N 
HETATM   28  C   UNL     1       8.336  20.682  53.382  1.00  0.00     0.269 C 
HETATM   29  H   UNL     1      10.055  21.596  54.068  1.00  0.00     0.279 HD
HETATM   30  C   UNL     1       9.210  20.715  55.706  1.00  0.00     0.269 C 
ENDBRANCH  26  27
ENDBRANCH  25  26
ENDBRANCH   1  25
TORSDOF 5
ENDMDL
MODEL 3
REMARK VINA RESULT:      -9.2      2.231      4.568
REMARK  5 active torsions:
REMARK  status: ('A' for Active; 'I' for Inactive)
REMARK    1  A    between atoms: N_2  and  C_4 
REMARK    2  A    between atoms: C_4  and  C_5 
REMARK    3  A    between atoms: C_5  and  N_6 
REMARK    4  A    between atoms: C_11  and  C_12 
REMARK    5  A    between atoms: C_15  and  O_16 
ROOT
HETATM    1  N   UNL     1       7.558  27.871  55.799  1.00  0.00    -0.332 N 
HETATM    2  C   UNL     1       7.587  26.787  56.671  1.00  0.00     0.279 C 
HETATM    3  O   UNL     1       7.481  26.843  57.883  1.00  0.00    -0.265 OA
HETATM    4  C   UNL     1       7.765  25.578  55.850  1.00  0.00     0.156 C 
HETATM    5  C   UNL     1       7.760  25.986  54.583  1.00  0.00     0.060 C 
HETATM    6  C   UNL     1       7.512  27.436  54.404  1.00  0.00     0.161 C 
HETATM    7  O   UNL     1       7.865  24.297  56.312  1.00  0.00    -0.303 OA
HETATM    8  C   UNL     1       7.861  23.312  55.343  1.00  0.00     0.090 A 
HETATM    9  C   UNL     1       7.899  23.596  53.966  1.00  0.00     0.051 A 
HETATM   10  C   UNL     1       7.932  25.005  53.521  1.00  0.00     0.196 C 
HETATM   11  O   UNL     1       8.091  25.340  52.359  1.00  0.00    -0.287 OA
HETATM   12  C   UNL     1       7.800  21.990  55.780  1.00  0.00     0.041 A 
HETATM   13  C   UNL     1       7.768  20.957  54.839  1.00  0.00     0.045 A 
HETATM   14  C   UNL     1       7.806  21.254  53.478  1.00  0.00     0.117 A 
HETATM   15  F   UNL     1       7.766  20.255  52.588  1.00  0.00    -0.206 F 
HETATM   16  C   UNL     1       7.878  22.565  53.027  1.00  0.00     0.060 A 
ENDROOT
BRANCH   6  17
HETATM   17  C   UNL     1       6.181  27.708  53.725  1.00  0.00    -0.030 A 
HETATM   18  C   UNL     1       6.096  28.340  52.468  1.00  0.00     0.012 A 
HETATM   19  C   UNL     1       4.856  28.671  51.915  1.00  0.00     0.037 A 
HETATM   20  C   UNL     1       3.695  28.370  52.616  1.00  0.00     0.065 A 
HETATM   21  C   UNL     1       3.753  27.737  53.850  1.00  0.00     0.037 A 
HETATM   22  C   UNL     1       4.990  27.412  54.407  1.00  0.00     0.012 A 
BRANCH  20  23
HETATM   23  O   UNL     1       2.465  28.696  52.127  1.00  0.00    -0.361 OA
HETATM   24  H   UNL     1       2.531  28.842  51.169  1.00  0.00     0.217 HD
ENDBRANCH  20  23
ENDBRANCH   6  17
BRANCH   1  25
HETATM   25  C   UNL     1       7.220  29.220  56.226  1.00  0.00     0.155 C 
BRANCH  25  26
HETATM   26  C   UNL     1       8.175  29.783  57.299  1.00  0.00     0.254 C 
BRANCH  26  27
HETATM   27  N   UNL     1       7.454  30.086  58.605  1.00  0.00    -0.077 N 
HETATM   28  C   UNL     1       6.427  31.177  58.495  1.00  0.00     0.269 C 
HETATM   29  H   UNL     1       6.967  29.223  58.886  1.00  0.00     0.279 HD
HETATM   30  C   UNL     1       8.440  30.376  59.709  1.00  0.00     0.269 C 
ENDBRANCH  26  27
ENDBRANCH  25  26
ENDBRANCH   1  25
TORSDOF 5
ENDMDL
MODEL 4
REMARK VINA RESULT:      -9.0      1.474      2.028
REMARK  5 active torsions:
REMARK  status: ('A' for Active; 'I' for Inactive)
REMARK    1  A    between atoms: N_2  and  C_4 
REMARK    2  A    between atoms: C_4  and  C_5 
REMARK    3  A    between atoms: C_5  and  N_6 
REMARK    4  A    between atoms: C_11  and  C_12 
REMARK    5  A    between atoms: C_15  and  O_16 
ROOT
HETATM    1  N   UNL     1       4.889  27.438  54.705  1.00  0.00    -0.332 N 
HETATM    2  C   UNL     1       5.084  26.630  53.588  1.00  0.00     0.279 C 
HETATM    3  O   UNL     1       4.679  26.859  52.463  1.00  0.00    -0.265 OA
HETATM    4  C   UNL     1       5.867  25.466  54.031  1.00  0.00     0.156 C 
HETATM    5  C   UNL     1       6.145  25.672  55.316  1.00  0.00     0.060 C 
HETATM    6  C   UNL     1       5.673  26.972  55.848  1.00  0.00     0.161 C 
HETATM    7  O   UNL     1       6.262  24.416  53.252  1.00  0.00    -0.303 OA
HETATM    8  C   UNL     1       7.130  23.523  53.850  1.00  0.00     0.090 A 
HETATM    9  C   UNL     1       7.479  23.592  55.211  1.00  0.00     0.051 A 
HETATM   10  C   UNL     1       6.909  24.671  56.047  1.00  0.00     0.196 C 
HETATM   11  O   UNL     1       7.058  24.733  57.256  1.00  0.00    -0.287 OA
HETATM   12  C   UNL     1       7.680  22.530  53.041  1.00  0.00     0.041 A 
HETATM   13  C   UNL     1       8.583  21.617  53.592  1.00  0.00     0.045 A 
HETATM   14  C   UNL     1       8.919  21.699  54.943  1.00  0.00     0.117 A 
HETATM   15  F   UNL     1       9.791  20.823  55.455  1.00  0.00    -0.206 F 
HETATM   16  C   UNL     1       8.371  22.675  55.764  1.00  0.00     0.060 A 
ENDROOT
BRANCH   6  17
HETATM   17  C   UNL     1       6.824  27.892  56.212  1.00  0.00    -0.030 A 
HETATM   18  C   UNL     1       7.753  28.347  55.253  1.00  0.00     0.012 A 
HETATM   19  C   UNL     1       8.862  29.107  55.634  1.00  0.00     0.037 A 
HETATM   20  C   UNL     1       9.047  29.419  56.975  1.00  0.00     0.065 A 
HETATM   21  C   UNL     1       8.140  28.994  57.936  1.00  0.00     0.037 A 
HETATM   22  C   UNL     1       7.035  28.227  57.558  1.00  0.00     0.012 A 
BRANCH  20  23
HETATM   23  O   UNL     1      10.126  30.137  57.395  1.00  0.00    -0.361 OA
HETATM   24  H   UNL     1      10.572  29.653  58.109  1.00  0.00     0.217 HD
ENDBRANCH  20  23
ENDBRANCH   6  17
BRANCH   1  25
HETATM   25  C   UNL     1       4.308  28.770  54.626  1.00  0.00     0.155 C 
BRANCH  25  26
HETATM   26  C   UNL     1       3.548  29.186  55.903  1.00  0.00     0.254 C 
BRANCH  26  27
HETATM   27  N   UNL     1       3.940  30.579  56.374  1.00  0.00    -0.077 N 
HETATM   28  C   UNL     1       5.144  31.143  55.673  1.00  0.00     0.269 C 
HETATM   29  H   UNL     1       3.142  31.199  56.175  1.00  0.00     0.279 HD
HETATM   30  C   UNL     1       4.118  30.611  57.871  1.00  0.00     0.269 C 
ENDBRANCH  26  27
ENDBRANCH  25  26
ENDBRANCH   1  25
TORSDOF 5
ENDMDL
MODEL 5
REMARK VINA RESULT:      -9.0      2.508      3.809
REMARK  5 active torsions:
REMARK  status: ('A' for Active; 'I' for Inactive)
REMARK    1  A    between atoms: N_2  and  C_4 
REMARK    2  A    between atoms: C_4  and  C_5 
REMARK    3  A    between atoms: C_5  and  N_6 
REMARK    4  A    between atoms: C_11  and  C_12 
REMARK    5  A    between atoms: C_15  and  O_16 
ROOT
HETATM    1  N   UNL     1       5.027  27.223  53.716  1.00  0.00    -0.332 N 
HETATM    2  C   UNL     1       5.508  26.346  52.748  1.00  0.00     0.279 C 
HETATM    3  O   UNL     1       5.434  26.503  51.543  1.00  0.00    -0.265 OA
HETATM    4  C   UNL     1       6.118  25.211  53.461  1.00  0.00     0.156 C 
HETATM    5  C   UNL     1       6.033  25.498  54.757  1.00  0.00     0.060 C 
HETATM    6  C   UNL     1       5.456  26.830  55.057  1.00  0.00     0.161 C 
HETATM    7  O   UNL     1       6.693  24.113  52.887  1.00  0.00    -0.303 OA
HETATM    8  C   UNL     1       7.345  23.260  53.755  1.00  0.00     0.090 A 
HETATM    9  C   UNL     1       7.305  23.415  55.152  1.00  0.00     0.051 A 
HETATM   10  C   UNL     1       6.547  24.545  55.731  1.00  0.00     0.196 C 
HETATM   11  O   UNL     1       6.357  24.684  56.927  1.00  0.00    -0.287 OA
HETATM   12  C   UNL     1       8.079  22.217  53.191  1.00  0.00     0.041 A 
HETATM   13  C   UNL     1       8.777  21.340  54.025  1.00  0.00     0.045 A 
HETATM   14  C   UNL     1       8.729  21.507  55.408  1.00  0.00     0.117 A 
HETATM   15  F   UNL     1       9.410  20.665  56.194  1.00  0.00    -0.206 F 
HETATM   16  C   UNL     1       7.994  22.534  55.985  1.00  0.00     0.060 A 
ENDROOT
BRANCH   6  17
HETATM   17  C   UNL     1       6.479  27.770  55.669  1.00  0.00    -0.030 A 
HETATM   18  C   UNL     1       7.637  28.174  54.974  1.00  0.00     0.012 A 
HETATM   19  C   UNL     1       8.612  28.956  55.599  1.00  0.00     0.037 A 
HETATM   20  C   UNL     1       8.433  29.340  56.922  1.00  0.00     0.065 A 
HETATM   21  C   UNL     1       7.296  28.965  57.624  1.00  0.00     0.037 A 
HETATM   22  C   UNL     1       6.324  28.178  57.004  1.00  0.00     0.012 A 
BRANCH  20  23
HETATM   23  O   UNL     1       9.369  30.081  57.579  1.00  0.00    -0.361 OA
HETATM   24  H   UNL     1      10.011  30.426  56.938  1.00  0.00     0.217 HD
ENDBRANCH  20  23
ENDBRANCH   6  17
BRANCH   1  25
HETATM   25  C   UNL     1       4.515  28.548  53.398  1.00  0.00     0.155 C 
BRANCH  25  26
HETATM   26  C   UNL     1       3.122  28.525  52.735  1.00  0.00     0.254 C 
BRANCH  26  27
HETATM   27  N   UNL     1       3.205  28.685  51.223  1.00  0.00    -0.077 N 
HETATM   28  C   UNL     1       4.249  29.668  50.772  1.00  0.00     0.269 C 
HETATM   29  H   UNL     1       3.453  27.764  50.837  1.00  0.00     0.279 HD
HETATM   30  C   UNL     1       1.855  29.021  50.643  1.00  0.00     0.269 C 
ENDBRANCH  26  27
ENDBRANCH  25  26
ENDBRANCH   1  25
TORSDOF 5
ENDMDL
MODEL 6
REMARK VINA RESULT:      -8.3      2.986      5.247
REMARK  5 active torsions:
REMARK  status: ('A' for Active; 'I' for Inactive)
REMARK    1  A    between atoms: N_2  and  C_4 
REMARK    2  A    between atoms: C_4  and  C_5 
REMARK    3  A    between atoms: C_5  and  N_6 
REMARK    4  A    between atoms: C_11  and  C_12 
REMARK    5  A    between atoms: C_15  and  O_16 
ROOT
HETATM    1  N   UNL     1       5.974  27.381  54.698  1.00  0.00    -0.332 N 
HETATM    2  C   UNL     1       5.791  26.327  55.588  1.00  0.00     0.279 C 
HETATM    3  O   UNL     1       5.106  26.355  56.595  1.00  0.00    -0.265 OA
HETATM    4  C   UNL     1       6.573  25.190  55.076  1.00  0.00     0.156 C 
HETATM    5  C   UNL     1       7.098  25.591  53.921  1.00  0.00     0.060 C 
HETATM    6  C   UNL     1       6.690  26.952  53.498  1.00  0.00     0.161 C 
HETATM    7  O   UNL     1       6.686  23.961  55.660  1.00  0.00    -0.303 OA
HETATM    8  C   UNL     1       7.340  23.003  54.910  1.00  0.00     0.090 A 
HETATM    9  C   UNL     1       7.979  23.292  53.691  1.00  0.00     0.051 A 
HETATM   10  C   UNL     1       7.947  24.676  53.171  1.00  0.00     0.196 C 
HETATM   11  O   UNL     1       8.576  25.041  52.192  1.00  0.00    -0.287 OA
HETATM   12  C   UNL     1       7.335  21.698  55.400  1.00  0.00     0.041 A 
HETATM   13  C   UNL     1       7.961  20.687  54.666  1.00  0.00     0.045 A 
HETATM   14  C   UNL     1       8.590  20.989  53.459  1.00  0.00     0.117 A 
HETATM   15  F   UNL     1       9.178  20.009  52.763  1.00  0.00    -0.206 F 
HETATM   16  C   UNL     1       8.613  22.286  52.963  1.00  0.00     0.060 A 
ENDROOT
BRANCH   6  17
HETATM   17  C   UNL     1       5.825  26.926  52.250  1.00  0.00    -0.030 A 
HETATM   18  C   UNL     1       5.237  25.739  51.770  1.00  0.00     0.012 A 
HETATM   19  C   UNL     1       4.533  25.725  50.562  1.00  0.00     0.037 A 
HETATM   20  C   UNL     1       4.411  26.900  49.831  1.00  0.00     0.065 A 
HETATM   21  C   UNL     1       4.972  28.084  50.289  1.00  0.00     0.037 A 
HETATM   22  C   UNL     1       5.682  28.098  51.491  1.00  0.00     0.012 A 
BRANCH  20  23
HETATM   23  O   UNL     1       3.756  26.928  48.637  1.00  0.00    -0.361 OA
HETATM   24  H   UNL     1       4.069  26.195  48.082  1.00  0.00     0.217 HD
ENDBRANCH  20  23
ENDBRANCH   6  17
BRANCH   1  25
HETATM   25  C   UNL     1       5.217  28.621  54.774  1.00  0.00     0.155 C 
BRANCH  25  26
HETATM   26  C   UNL     1       5.882  29.694  55.663  1.00  0.00     0.254 C 
BRANCH  26  27
HETATM   27  N   UNL     1       5.297  31.078  55.424  1.00  0.00    -0.077 N 
HETATM   28  C   UNL     1       4.899  31.797  56.682  1.00  0.00     0.269 C 
HETATM   29  H   UNL     1       6.028  31.638  54.961  1.00  0.00     0.279 HD
HETATM   30  C   UNL     1       4.151  31.017  54.447  1.00  0.00     0.269 C 
ENDBRANCH  26  27
ENDBRANCH  25  26
ENDBRANCH   1  25
TORSDOF 5
ENDMDL
MODEL 7
REMARK VINA RESULT:      -7.5      6.181     10.389
REMARK  5 active torsions:
REMARK  status: ('A' for Active; 'I' for Inactive)
REMARK    1  A    between atoms: N_2  and  C_4 
REMARK    2  A    between atoms: C_4  and  C_5 
REMARK    3  A    between atoms: C_5  and  N_6 
REMARK    4  A    between atoms: C_11  and  C_12 
REMARK    5  A    between atoms: C_15  and  O_16 
ROOT
HETATM    1  N   UNL     1       4.935  32.503  59.893  1.00  0.00    -0.332 N 
HETATM    2  C   UNL     1       6.145  32.496  60.582  1.00  0.00     0.279 C 
HETATM    3  O   UNL     1       7.241  32.284  60.095  1.00  0.00    -0.265 OA
HETATM    4  C   UNL     1       5.841  32.795  61.990  1.00  0.00     0.156 C 
HETATM    5  C   UNL     1       4.531  33.025  62.047  1.00  0.00     0.060 C 
HETATM    6  C   UNL     1       3.842  32.987  60.736  1.00  0.00     0.161 C 
HETATM    7  O   UNL     1       6.744  32.865  63.013  1.00  0.00    -0.303 OA
HETATM    8  C   UNL     1       6.246  33.324  64.217  1.00  0.00     0.090 A 
HETATM    9  C   UNL     1       4.878  33.568  64.434  1.00  0.00     0.051 A 
HETATM   10  C   UNL     1       3.921  33.339  63.331  1.00  0.00     0.196 C 
HETATM   11  O   UNL     1       2.710  33.405  63.466  1.00  0.00    -0.287 OA
HETATM   12  C   UNL     1       7.166  33.562  65.237  1.00  0.00     0.041 A 
HETATM   13  C   UNL     1       6.716  34.050  66.466  1.00  0.00     0.045 A 
HETATM   14  C   UNL     1       5.357  34.287  66.667  1.00  0.00     0.117 A 
HETATM   15  F   UNL     1       4.942  34.763  67.846  1.00  0.00    -0.206 F 
HETATM   16  C   UNL     1       4.427  34.045  65.664  1.00  0.00     0.060 A 
ENDROOT
BRANCH   6  17
HETATM   17  C   UNL     1       3.318  34.352  60.327  1.00  0.00    -0.030 A 
HETATM   18  C   UNL     1       4.135  35.501  60.328  1.00  0.00     0.012 A 
HETATM   19  C   UNL     1       3.600  36.761  60.048  1.00  0.00     0.037 A 
HETATM   20  C   UNL     1       2.246  36.879  59.763  1.00  0.00     0.065 A 
HETATM   21  C   UNL     1       1.423  35.762  59.744  1.00  0.00     0.037 A 
HETATM   22  C   UNL     1       1.954  34.503  60.031  1.00  0.00     0.012 A 
BRANCH  20  23
HETATM   23  O   UNL     1       1.677  38.091  59.509  1.00  0.00    -0.361 OA
HETATM   24  H   UNL     1       2.364  38.777  59.527  1.00  0.00     0.217 HD
ENDBRANCH  20  23
ENDBRANCH   6  17
BRANCH   1  25
HETATM   25  C   UNL     1       4.849  32.422  58.443  1.00  0.00     0.155 C 
BRANCH  25  26
HETATM   26  C   UNL     1       3.991  31.241  57.943  1.00  0.00     0.254 C 
BRANCH  26  27
HETATM   27  N   UNL     1       4.826  29.996  57.684  1.00  0.00    -0.077 N 
HETATM   28  C   UNL     1       6.290  30.274  57.487  1.00  0.00     0.269 C 
HETATM   29  H   UNL     1       4.730  29.391  58.512  1.00  0.00     0.279 HD
HETATM   30  C   UNL     1       4.265  29.201  56.532  1.00  0.00     0.269 C 
ENDBRANCH  26  27
ENDBRANCH  25  26
ENDBRANCH   1  25
TORSDOF 5
ENDMDL
MODEL 8
REMARK VINA RESULT:      -7.4      7.623     11.953
REMARK  5 active torsions:
REMARK  status: ('A' for Active; 'I' for Inactive)
REMARK    1  A    between atoms: N_2  and  C_4 
REMARK    2  A    between atoms: C_4  and  C_5 
REMARK    3  A    between atoms: C_5  and  N_6 
REMARK    4  A    between atoms: C_11  and  C_12 
REMARK    5  A    between atoms: C_15  and  O_16 
ROOT
HETATM    1  N   UNL     1       5.626  33.285  62.152  1.00  0.00    -0.332 N 
HETATM    2  C   UNL     1       4.647  33.556  61.200  1.00  0.00     0.279 C 
HETATM    3  O   UNL     1       4.054  32.728  60.532  1.00  0.00    -0.265 OA
HETATM    4  C   UNL     1       4.472  35.016  61.166  1.00  0.00     0.156 C 
HETATM    5  C   UNL     1       5.271  35.508  62.110  1.00  0.00     0.060 C 
HETATM    6  C   UNL     1       5.986  34.484  62.906  1.00  0.00     0.161 C 
HETATM    7  O   UNL     1       3.619  35.708  60.353  1.00  0.00    -0.303 OA
HETATM    8  C   UNL     1       3.509  37.059  60.617  1.00  0.00     0.090 A 
HETATM    9  C   UNL     1       4.318  37.722  61.557  1.00  0.00     0.051 A 
HETATM   10  C   UNL     1       5.328  36.949  62.312  1.00  0.00     0.196 C 
HETATM   11  O   UNL     1       6.152  37.461  63.050  1.00  0.00    -0.287 OA
HETATM   12  C   UNL     1       2.532  37.767  59.918  1.00  0.00     0.041 A 
HETATM   13  C   UNL     1       2.363  39.131  60.166  1.00  0.00     0.045 A 
HETATM   14  C   UNL     1       3.174  39.775  61.101  1.00  0.00     0.117 A 
HETATM   15  F   UNL     1       2.995  41.080  61.335  1.00  0.00    -0.206 F 
HETATM   16  C   UNL     1       4.158  39.086  61.798  1.00  0.00     0.060 A 
ENDROOT
BRANCH   6  17
HETATM   17  C   UNL     1       5.519  34.456  64.351  1.00  0.00    -0.030 A 
HETATM   18  C   UNL     1       6.408  34.228  65.422  1.00  0.00     0.012 A 
HETATM   19  C   UNL     1       5.934  34.104  66.731  1.00  0.00     0.037 A 
HETATM   20  C   UNL     1       4.572  34.210  66.977  1.00  0.00     0.065 A 
HETATM   21  C   UNL     1       3.679  34.447  65.941  1.00  0.00     0.037 A 
HETATM   22  C   UNL     1       4.148  34.564  64.631  1.00  0.00     0.012 A 
BRANCH  20  23
HETATM   23  O   UNL     1       4.063  34.072  68.233  1.00  0.00    -0.361 OA
HETATM   24  H   UNL     1       4.634  33.475  68.745  1.00  0.00     0.217 HD
ENDBRANCH  20  23
ENDBRANCH   6  17
BRANCH   1  25
HETATM   25  C   UNL     1       5.947  31.937  62.595  1.00  0.00     0.155 C 
BRANCH  25  26
HETATM   26  C   UNL     1       7.464  31.668  62.697  1.00  0.00     0.254 C 
BRANCH  26  27
HETATM   27  N   UNL     1       7.956  30.741  61.595  1.00  0.00    -0.077 N 
HETATM   28  C   UNL     1       9.405  30.362  61.721  1.00  0.00     0.269 C 
HETATM   29  H   UNL     1       7.399  29.877  61.658  1.00  0.00     0.279 HD
HETATM   30  C   UNL     1       7.662  31.319  60.234  1.00  0.00     0.269 C 
ENDBRANCH  26  27
ENDBRANCH  25  26
ENDBRANCH   1  25
TORSDOF 5
ENDMDL
MODEL 9
REMARK VINA RESULT:      -7.2      6.392      8.729
REMARK  5 active torsions:
REMARK  status: ('A' for Active; 'I' for Inactive)
REMARK    1  A    between atoms: N_2  and  C_4 
REMARK    2  A    between atoms: C_4  and  C_5 
REMARK    3  A    between atoms: C_5  and  N_6 
REMARK    4  A    between atoms: C_11  and  C_12 
REMARK    5  A    between atoms: C_15  and  O_16 
ROOT
HETATM    1  N   UNL     1       3.322  34.271  60.340  1.00  0.00    -0.332 N 
HETATM    2  C   UNL     1       4.234  34.011  59.321  1.00  0.00     0.279 C 
HETATM    3  O   UNL     1       4.166  34.432  58.180  1.00  0.00    -0.265 OA
HETATM    4  C   UNL     1       5.279  33.145  59.888  1.00  0.00     0.156 C 
HETATM    5  C   UNL     1       4.983  33.002  61.178  1.00  0.00     0.060 C 
HETATM    6  C   UNL     1       3.805  33.778  61.629  1.00  0.00     0.161 C 
HETATM    7  O   UNL     1       6.357  32.638  59.220  1.00  0.00    -0.303 OA
HETATM    8  C   UNL     1       7.291  31.987  60.002  1.00  0.00     0.090 A 
HETATM    9  C   UNL     1       7.093  31.726  61.370  1.00  0.00     0.051 A 
HETATM   10  C   UNL     1       5.840  32.174  62.015  1.00  0.00     0.196 C 
HETATM   11  O   UNL     1       5.532  31.883  63.159  1.00  0.00    -0.287 OA
HETATM   12  C   UNL     1       8.478  31.597  59.385  1.00  0.00     0.041 A 
HETATM   13  C   UNL     1       9.466  30.958  60.138  1.00  0.00     0.045 A 
HETATM   14  C   UNL     1       9.255  30.706  61.493  1.00  0.00     0.117 A 
HETATM   15  F   UNL     1      10.213  30.100  62.204  1.00  0.00    -0.206 F 
HETATM   16  C   UNL     1       8.074  31.078  62.121  1.00  0.00     0.060 A 
ENDROOT
BRANCH   6  17
HETATM   17  C   UNL     1       4.187  34.884  62.598  1.00  0.00    -0.030 A 
HETATM   18  C   UNL     1       5.292  35.730  62.372  1.00  0.00     0.012 A 
HETATM   19  C   UNL     1       5.682  36.669  63.330  1.00  0.00     0.037 A 
HETATM   20  C   UNL     1       4.969  36.769  64.518  1.00  0.00     0.065 A 
HETATM   21  C   UNL     1       3.871  35.955  64.758  1.00  0.00     0.037 A 
HETATM   22  C   UNL     1       3.483  35.011  63.806  1.00  0.00     0.012 A 
BRANCH  20  23
HETATM   23  O   UNL     1       5.329  37.653  65.490  1.00  0.00    -0.361 OA
HETATM   24  H   UNL     1       4.746  38.429  65.448  1.00  0.00     0.217 HD
ENDBRANCH  20  23
ENDBRANCH   6  17
BRANCH   1  25
HETATM   25  C   UNL     1       2.242  35.237  60.208  1.00  0.00     0.155 C 
BRANCH  25  26
HETATM   26  C   UNL     1       2.729  36.658  59.856  1.00  0.00     0.254 C 
BRANCH  26  27
HETATM   27  N   UNL     1       2.169  37.142  58.526  1.00  0.00    -0.077 N 
HETATM   28  C   UNL     1       1.344  36.115  57.803  1.00  0.00     0.269 C 
HETATM   29  H   UNL     1       1.560  37.947  58.730  1.00  0.00     0.279 HD
HETATM   30  C   UNL     1       3.268  37.677  57.642  1.00  0.00     0.269 C 
ENDBRANCH  26  27
ENDBRANCH  25  26
ENDBRANCH   1  25
TORSDOF 5
ENDMDL
MODEL 10
REMARK VINA RESULT:      -7.0      7.261     10.030
REMARK  5 active torsions:
REMARK  status: ('A' for Active; 'I' for Inactive)
REMARK    1  A    between atoms: N_2  and  C_4 
REMARK    2  A    between atoms: C_4  and  C_5 
REMARK    3  A    between atoms: C_5  and  N_6 
REMARK    4  A    between atoms: C_11  and  C_12 
REMARK    5  A    between atoms: C_15  and  O_16 
ROOT
HETATM    1  N   UNL     1       4.510  32.739  59.007  1.00  0.00    -0.332 N 
HETATM    2  C   UNL     1       5.798  32.589  59.514  1.00  0.00     0.279 C 
HETATM    3  O   UNL     1       6.798  32.354  58.861  1.00  0.00    -0.265 OA
HETATM    4  C   UNL     1       5.710  32.772  60.972  1.00  0.00     0.156 C 
HETATM    5  C   UNL     1       4.442  33.079  61.232  1.00  0.00     0.060 C 
HETATM    6  C   UNL     1       3.581  33.210  60.033  1.00  0.00     0.161 C 
HETATM    7  O   UNL     1       6.745  32.687  61.859  1.00  0.00    -0.303 OA
HETATM    8  C   UNL     1       6.451  33.060  63.156  1.00  0.00     0.090 A 
HETATM    9  C   UNL     1       5.148  33.370  63.584  1.00  0.00     0.051 A 
HETATM   10  C   UNL     1       4.036  33.309  62.611  1.00  0.00     0.196 C 
HETATM   11  O   UNL     1       2.863  33.439  62.921  1.00  0.00    -0.287 OA
HETATM   12  C   UNL     1       7.515  33.140  64.052  1.00  0.00     0.041 A 
HETATM   13  C   UNL     1       7.274  33.538  65.370  1.00  0.00     0.045 A 
HETATM   14  C   UNL     1       5.977  33.842  65.779  1.00  0.00     0.117 A 
HETATM   15  F   UNL     1       5.762  34.229  67.042  1.00  0.00    -0.206 F 
HETATM   16  C   UNL     1       4.905  33.756  64.901  1.00  0.00     0.060 A 
ENDROOT
BRANCH   6  17
HETATM   17  C   UNL     1       3.113  34.639  59.820  1.00  0.00    -0.030 A 
HETATM   18  C   UNL     1       3.955  35.746  60.051  1.00  0.00     0.012 A 
HETATM   19  C   UNL     1       3.466  37.051  59.948  1.00  0.00     0.037 A 
HETATM   20  C   UNL     1       2.135  37.257  59.610  1.00  0.00     0.065 A 
HETATM   21  C   UNL     1       1.290  36.183  59.365  1.00  0.00     0.037 A 
HETATM   22  C   UNL     1       1.773  34.878  59.475  1.00  0.00     0.012 A 
BRANCH  20  23
HETATM   23  O   UNL     1       1.609  38.510  59.522  1.00  0.00    -0.361 OA
HETATM   24  H   UNL     1       1.705  38.958  60.378  1.00  0.00     0.217 HD
ENDBRANCH  20  23
ENDBRANCH   6  17
BRANCH   1  25
HETATM   25  C   UNL     1       4.224  32.802  57.582  1.00  0.00     0.155 C 
BRANCH  25  26
HETATM   26  C   UNL     1       4.825  34.044  56.888  1.00  0.00     0.254 C 
BRANCH  26  27
HETATM   27  N   UNL     1       3.818  34.738  55.983  1.00  0.00    -0.077 N 
HETATM   28  C   UNL     1       3.596  36.186  56.317  1.00  0.00     0.269 C 
HETATM   29  H   UNL     1       4.192  34.690  55.025  1.00  0.00     0.279 HD
HETATM   30  C   UNL     1       2.514  33.981  55.949  1.00  0.00     0.269 C 
ENDBRANCH  26  27
ENDBRANCH  25  26
ENDBRANCH   1  25
TORSDOF 5
ENDMDL
