MODEL 1
REMARK VINA RESULT:      -8.6      0.000      0.000
REMARK  5 active torsions:
REMARK  status: ('A' for Active; 'I' for Inactive)
REMARK    1  A    between atoms: C_2  and  C_3 
REMARK    2  A    between atoms: C_3  and  N_4 
REMARK    3  A    between atoms: C_7  and  C_8 
REMARK    4  A    between atoms: C_8  and  O_9 
REMARK    5  A    between atoms: N_13  and  C_15 
ROOT
HETATM    1  N   UNL     1       6.500  28.973  57.763  1.00  0.00    -0.067 N 
HETATM    2  H   UNL     1       6.372  29.061  58.781  1.00  0.00     0.280 HD
HETATM    3  C   UNL     1       5.404  28.028  57.343  1.00  0.00     0.242 C 
HETATM    4  C   UNL     1       5.632  27.357  55.962  1.00  0.00     0.044 C 
HETATM    5  C   UNL     1       7.075  26.748  55.807  1.00  0.00    -0.029 C 
HETATM    6  C   UNL     1       7.258  25.493  56.722  1.00  0.00     0.037 C 
HETATM    7  C   UNL     1       6.530  24.234  56.232  1.00  0.00     0.236 C 
HETATM    8  N   UNL     1       6.945  23.878  54.819  1.00  0.00    -0.067 N 
HETATM    9  H   UNL     1       6.296  23.133  54.524  1.00  0.00     0.280 HD
HETATM   10  C   UNL     1       6.634  25.048  53.906  1.00  0.00     0.236 C 
HETATM   11  C   UNL     1       7.405  26.290  54.352  1.00  0.00     0.037 C 
HETATM   12  C   UNL     1       8.098  27.851  56.207  1.00  0.00     0.037 C 
HETATM   13  C   UNL     1       7.887  28.428  57.604  1.00  0.00     0.236 C 
ENDROOT
BRANCH   4  14
HETATM   14  C   UNL     1       5.207  28.274  54.796  1.00  0.00     0.171 C 
BRANCH  14  15
HETATM   15  O   UNL     1       3.972  27.822  54.278  1.00  0.00    -0.400 OA
HETATM   16  H   UNL     1       3.563  27.216  54.928  1.00  0.00     0.209 HD
ENDBRANCH  14  15
ENDBRANCH   4  14
BRANCH   1  17
HETATM   17  C   UNL     1       6.337  30.420  57.316  1.00  0.00     0.273 C 
BRANCH  17  18
HETATM   18  C   UNL     1       6.172  31.380  58.467  1.00  0.00    -0.033 A 
HETATM   19  C   UNL     1       7.230  31.618  59.362  1.00  0.00     0.010 A 
HETATM   20  C   UNL     1       7.061  32.482  60.448  1.00  0.00     0.024 A 
HETATM   21  C   UNL     1       5.839  33.121  60.644  1.00  0.00     0.034 A 
HETATM   22  C   UNL     1       4.788  32.911  59.757  1.00  0.00     0.024 A 
HETATM   23 CL   UNL     1       5.629  34.172  61.986  1.00  0.00    -0.084 Cl
HETATM   24  C   UNL     1       4.955  32.047  58.671  1.00  0.00     0.010 A 
ENDBRANCH  17  18
ENDBRANCH   1  17
BRANCH   8  25
HETATM   25  C   UNL     1       8.366  23.257  54.675  1.00  0.00     0.192 C 
HETATM   26  C   UNL     1       8.644  22.221  55.777  1.00  0.00     0.059 C 
HETATM   27  C   UNL     1       7.838  20.947  55.573  1.00  0.00     0.169 C 
HETATM   28  O   UNL     1       8.076  20.416  54.277  1.00  0.00    -0.391 OA
HETATM   29  C   UNL     1       7.749  21.291  53.208  1.00  0.00     0.169 C 
HETATM   30  C   UNL     1       8.562  22.572  53.314  1.00  0.00     0.059 C 
ENDBRANCH   8  25
TORSDOF 5
ENDMDL
MODEL 2
REMARK VINA RESULT:      -8.2      2.471      3.484
REMARK  5 active torsions:
REMARK  status: ('A' for Active; 'I' for Inactive)
REMARK    1  A    between atoms: C_2  and  C_3 
REMARK    2  A    between atoms: C_3  and  N_4 
REMARK    3  A    between atoms: C_7  and  C_8 
REMARK    4  A    between atoms: C_8  and  O_9 
REMARK    5  A    between atoms: N_13  and  C_15 
ROOT
HETATM    1  N   UNL     1       5.752  28.375  55.778  1.00  0.00    -0.067 N 
HETATM    2  H   UNL     1       5.418  29.016  55.045  1.00  0.00     0.280 HD
HETATM    3  C   UNL     1       7.181  28.098  55.390  1.00  0.00     0.242 C 
HETATM    4  C   UNL     1       7.784  26.822  56.038  1.00  0.00     0.044 C 
HETATM    5  C   UNL     1       6.845  25.566  55.907  1.00  0.00    -0.029 C 
HETATM    6  C   UNL     1       6.767  25.073  54.425  1.00  0.00     0.037 C 
HETATM    7  C   UNL     1       8.025  24.351  53.925  1.00  0.00     0.236 C 
HETATM    8  N   UNL     1       8.371  23.176  54.816  1.00  0.00    -0.067 N 
HETATM    9  H   UNL     1       9.302  22.861  54.503  1.00  0.00     0.280 HD
HETATM   10  C   UNL     1       8.587  23.679  56.231  1.00  0.00     0.236 C 
HETATM   11  C   UNL     1       7.316  24.345  56.757  1.00  0.00     0.037 C 
HETATM   12  C   UNL     1       5.430  25.981  56.405  1.00  0.00     0.037 C 
HETATM   13  C   UNL     1       4.840  27.190  55.686  1.00  0.00     0.236 C 
ENDROOT
BRANCH   4  14
HETATM   14  C   UNL     1       8.288  27.086  57.473  1.00  0.00     0.171 C 
BRANCH  14  15
HETATM   15  O   UNL     1       9.026  28.291  57.489  1.00  0.00    -0.400 OA
HETATM   16  H   UNL     1       9.384  28.426  58.390  1.00  0.00     0.209 HD
ENDBRANCH  14  15
ENDBRANCH   4  14
BRANCH   1  17
HETATM   17  C   UNL     1       5.557  29.225  57.028  1.00  0.00     0.273 C 
BRANCH  17  18
HETATM   18  C   UNL     1       4.785  30.494  56.766  1.00  0.00    -0.033 A 
HETATM   19  C   UNL     1       3.520  30.453  56.156  1.00  0.00     0.010 A 
HETATM   20  C   UNL     1       2.824  31.635  55.883  1.00  0.00     0.024 A 
HETATM   21  C   UNL     1       3.381  32.864  56.226  1.00  0.00     0.034 A 
HETATM   22  C   UNL     1       4.625  32.921  56.848  1.00  0.00     0.024 A 
HETATM   23 CL   UNL     1       2.531  34.315  55.879  1.00  0.00    -0.084 Cl
HETATM   24  C   UNL     1       5.322  31.741  57.120  1.00  0.00     0.010 A 
ENDBRANCH  17  18
ENDBRANCH   1  17
BRANCH   8  25
HETATM   25  C   UNL     1       7.451  21.928  54.667  1.00  0.00     0.192 C 
HETATM   26  C   UNL     1       7.620  21.262  53.292  1.00  0.00     0.059 C 
HETATM   27  C   UNL     1       8.960  20.549  53.169  1.00  0.00     0.169 C 
HETATM   28  O   UNL     1       9.120  19.619  54.229  1.00  0.00    -0.391 OA
HETATM   29  C   UNL     1       9.069  20.186  55.530  1.00  0.00     0.169 C 
HETATM   30  C   UNL     1       7.729  20.873  55.748  1.00  0.00     0.059 C 
ENDBRANCH   8  25
TORSDOF 5
ENDMDL
MODEL 3
REMARK VINA RESULT:      -7.9      5.058      8.824
REMARK  5 active torsions:
REMARK  status: ('A' for Active; 'I' for Inactive)
REMARK    1  A    between atoms: C_2  and  C_3 
REMARK    2  A    between atoms: C_3  and  N_4 
REMARK    3  A    between atoms: C_7  and  C_8 
REMARK    4  A    between atoms: C_8  and  O_9 
REMARK    5  A    between atoms: N_13  and  C_15 
ROOT
HETATM    1  N   UNL     1       6.049  25.932  55.634  1.00  0.00    -0.067 N 
HETATM    2  H   UNL     1       5.560  25.673  56.503  1.00  0.00     0.280 HD
HETATM    3  C   UNL     1       5.973  27.437  55.614  1.00  0.00     0.242 C 
HETATM    4  C   UNL     1       6.213  28.071  54.217  1.00  0.00     0.044 C 
HETATM    5  C   UNL     1       5.365  27.387  53.081  1.00  0.00    -0.029 C 
HETATM    6  C   UNL     1       3.844  27.712  53.240  1.00  0.00     0.037 C 
HETATM    7  C   UNL     1       3.453  29.145  52.853  1.00  0.00     0.236 C 
HETATM    8  N   UNL     1       3.879  29.463  51.434  1.00  0.00    -0.067 N 
HETATM    9  H   UNL     1       3.724  30.477  51.324  1.00  0.00     0.280 HD
HETATM   10  C   UNL     1       5.380  29.284  51.320  1.00  0.00     0.236 C 
HETATM   11  C   UNL     1       5.769  27.842  51.644  1.00  0.00     0.037 C 
HETATM   12  C   UNL     1       5.594  25.851  53.181  1.00  0.00     0.037 C 
HETATM   13  C   UNL     1       5.271  25.255  54.548  1.00  0.00     0.236 C 
ENDROOT
BRANCH   4  14
HETATM   14  C   UNL     1       7.715  28.201  53.891  1.00  0.00     0.171 C 
BRANCH  14  15
HETATM   15  O   UNL     1       8.336  28.996  54.881  1.00  0.00    -0.400 OA
HETATM   16  H   UNL     1       8.972  28.440  55.376  1.00  0.00     0.209 HD
ENDBRANCH  14  15
ENDBRANCH   4  14
BRANCH   1  17
HETATM   17  C   UNL     1       7.431  25.340  55.882  1.00  0.00     0.273 C 
BRANCH  17  18
HETATM   18  C   UNL     1       7.681  24.075  55.101  1.00  0.00    -0.033 A 
HETATM   19  C   UNL     1       8.116  24.129  53.766  1.00  0.00     0.010 A 
HETATM   20  C   UNL     1       8.313  22.953  53.034  1.00  0.00     0.024 A 
HETATM   21  C   UNL     1       8.087  21.716  53.633  1.00  0.00     0.034 A 
HETATM   22  C   UNL     1       7.674  21.645  54.960  1.00  0.00     0.024 A 
HETATM   23 CL   UNL     1       8.317  20.274  52.729  1.00  0.00    -0.084 Cl
HETATM   24  C   UNL     1       7.475  22.819  55.692  1.00  0.00     0.010 A 
ENDBRANCH  17  18
ENDBRANCH   1  17
BRANCH   8  25
HETATM   25  C   UNL     1       3.023  28.800  50.314  1.00  0.00     0.192 C 
HETATM   26  C   UNL     1       1.536  29.163  50.449  1.00  0.00     0.059 C 
HETATM   27  C   UNL     1       1.272  30.616  50.080  1.00  0.00     0.169 C 
HETATM   28  O   UNL     1       1.765  30.891  48.778  1.00  0.00    -0.391 OA
HETATM   29  C   UNL     1       3.158  30.665  48.611  1.00  0.00     0.169 C 
HETATM   30  C   UNL     1       3.491  29.212  48.910  1.00  0.00     0.059 C 
ENDBRANCH   8  25
TORSDOF 5
ENDMDL
MODEL 4
REMARK VINA RESULT:      -7.8      3.832      9.047
REMARK  5 active torsions:
REMARK  status: ('A' for Active; 'I' for Inactive)
REMARK    1  A    between atoms: C_2  and  C_3 
REMARK    2  A    between atoms: C_3  and  N_4 
REMARK    3  A    between atoms: C_7  and  C_8 
REMARK    4  A    between atoms: C_8  and  O_9 
REMARK    5  A    between atoms: N_13  and  C_15 
ROOT
HETATM    1  N   UNL     1       6.744  25.873  53.800  1.00  0.00    -0.067 N 
HETATM    2  H   UNL     1       6.026  25.369  53.260  1.00  0.00     0.280 HD
HETATM    3  C   UNL     1       6.339  25.652  55.234  1.00  0.00     0.242 C 
HETATM    4  C   UNL     1       6.958  26.663  56.236  1.00  0.00     0.044 C 
HETATM    5  C   UNL     1       6.810  28.158  55.769  1.00  0.00    -0.029 C 
HETATM    6  C   UNL     1       5.319  28.626  55.839  1.00  0.00     0.037 C 
HETATM    7  C   UNL     1       4.795  28.879  57.258  1.00  0.00     0.236 C 
HETATM    8  N   UNL     1       5.661  29.884  57.990  1.00  0.00    -0.067 N 
HETATM    9  H   UNL     1       5.334  29.866  58.968  1.00  0.00     0.280 HD
HETATM   10  C   UNL     1       7.083  29.360  58.045  1.00  0.00     0.236 C 
HETATM   11  C   UNL     1       7.632  29.164  56.632  1.00  0.00     0.037 C 
HETATM   12  C   UNL     1       7.327  28.247  54.304  1.00  0.00     0.037 C 
HETATM   13  C   UNL     1       6.637  27.293  53.334  1.00  0.00     0.236 C 
ENDROOT
BRANCH   4  14
HETATM   14  C   UNL     1       8.393  26.268  56.644  1.00  0.00     0.171 C 
BRANCH  14  15
HETATM   15  O   UNL     1       8.374  25.745  57.957  1.00  0.00    -0.400 OA
HETATM   16  H   UNL     1       8.479  26.484  58.589  1.00  0.00     0.209 HD
ENDBRANCH  14  15
ENDBRANCH   4  14
BRANCH   1  17
HETATM   17  C   UNL     1       8.011  25.157  53.349  1.00  0.00     0.273 C 
BRANCH  17  18
HETATM   18  C   UNL     1       8.118  23.751  53.882  1.00  0.00    -0.033 A 
HETATM   19  C   UNL     1       8.718  23.498  55.128  1.00  0.00     0.010 A 
HETATM   20  C   UNL     1       8.847  22.188  55.602  1.00  0.00     0.024 A 
HETATM   21  C   UNL     1       8.370  21.124  54.840  1.00  0.00     0.034 A 
HETATM   22  C   UNL     1       7.757  21.358  53.614  1.00  0.00     0.024 A 
HETATM   23 CL   UNL     1       8.541  19.515  55.418  1.00  0.00    -0.084 Cl
HETATM   24  C   UNL     1       7.629  22.666  53.138  1.00  0.00     0.010 A 
ENDBRANCH  17  18
ENDBRANCH   1  17
BRANCH   8  25
HETATM   25  C   UNL     1       5.495  31.366  57.536  1.00  0.00     0.192 C 
HETATM   26  C   UNL     1       4.020  31.797  57.546  1.00  0.00     0.059 C 
HETATM   27  C   UNL     1       3.484  31.952  58.963  1.00  0.00     0.169 C 
HETATM   28  O   UNL     1       4.302  32.847  59.702  1.00  0.00    -0.391 OA
HETATM   29  C   UNL     1       5.663  32.456  59.812  1.00  0.00     0.169 C 
HETATM   30  C   UNL     1       6.284  32.334  58.429  1.00  0.00     0.059 C 
ENDBRANCH   8  25
TORSDOF 5
ENDMDL
MODEL 5
REMARK VINA RESULT:      -7.8      3.928      9.331
REMARK  5 active torsions:
REMARK  status: ('A' for Active; 'I' for Inactive)
REMARK    1  A    between atoms: C_2  and  C_3 
REMARK    2  A    between atoms: C_3  and  N_4 
REMARK    3  A    between atoms: C_7  and  C_8 
REMARK    4  A    between atoms: C_8  and  O_9 
REMARK    5  A    between atoms: N_13  and  C_15 
ROOT
HETATM    1  N   UNL     1       6.705  26.052  55.538  1.00  0.00    -0.067 N 
HETATM    2  H   UNL     1       7.488  25.498  55.914  1.00  0.00     0.280 HD
HETATM    3  C   UNL     1       7.345  27.357  55.142  1.00  0.00     0.242 C 
HETATM    4  C   UNL     1       6.347  28.535  54.980  1.00  0.00     0.044 C 
HETATM    5  C   UNL     1       5.353  28.669  56.193  1.00  0.00    -0.029 C 
HETATM    6  C   UNL     1       6.098  29.154  57.480  1.00  0.00     0.037 C 
HETATM    7  C   UNL     1       6.492  30.637  57.469  1.00  0.00     0.236 C 
HETATM    8  N   UNL     1       5.285  31.522  57.235  1.00  0.00    -0.067 N 
HETATM    9  H   UNL     1       5.666  32.468  57.083  1.00  0.00     0.280 HD
HETATM   10  C   UNL     1       4.646  31.143  55.913  1.00  0.00     0.236 C 
HETATM   11  C   UNL     1       4.195  29.683  55.940  1.00  0.00     0.037 C 
HETATM   12  C   UNL     1       4.721  27.268  56.441  1.00  0.00     0.037 C 
HETATM   13  C   UNL     1       5.735  26.153  56.676  1.00  0.00     0.236 C 
ENDROOT
BRANCH   4  14
HETATM   14  C   UNL     1       5.658  28.523  53.599  1.00  0.00     0.171 C 
BRANCH  14  15
HETATM   15  O   UNL     1       6.575  28.970  52.621  1.00  0.00    -0.400 OA
HETATM   16  H   UNL     1       6.099  29.542  51.984  1.00  0.00     0.209 HD
ENDBRANCH  14  15
ENDBRANCH   4  14
BRANCH   1  17
HETATM   17  C   UNL     1       6.238  25.166  54.390  1.00  0.00     0.273 C 
BRANCH  17  18
HETATM   18  C   UNL     1       6.945  23.835  54.343  1.00  0.00    -0.033 A 
HETATM   19  C   UNL     1       7.351  23.279  53.118  1.00  0.00     0.010 A 
HETATM   20  C   UNL     1       7.974  22.028  53.076  1.00  0.00     0.024 A 
HETATM   21  C   UNL     1       8.204  21.327  54.258  1.00  0.00     0.034 A 
HETATM   22  C   UNL     1       7.826  21.872  55.481  1.00  0.00     0.024 A 
HETATM   23 CL   UNL     1       8.958  19.785  54.204  1.00  0.00    -0.084 Cl
HETATM   24  C   UNL     1       7.201  23.121  55.524  1.00  0.00     0.010 A 
ENDBRANCH  17  18
ENDBRANCH   1  17
BRANCH   8  25
HETATM   25  C   UNL     1       4.316  31.666  58.447  1.00  0.00     0.192 C 
HETATM   26  C   UNL     1       5.078  31.975  59.745  1.00  0.00     0.059 C 
HETATM   27  C   UNL     1       5.635  33.391  59.753  1.00  0.00     0.169 C 
HETATM   28  O   UNL     1       4.595  34.329  59.516  1.00  0.00    -0.391 OA
HETATM   29  C   UNL     1       3.911  34.158  58.283  1.00  0.00     0.169 C 
HETATM   30  C   UNL     1       3.277  32.776  58.225  1.00  0.00     0.059 C 
ENDBRANCH   8  25
TORSDOF 5
ENDMDL
MODEL 6
REMARK VINA RESULT:      -7.7      4.439      9.456
REMARK  5 active torsions:
REMARK  status: ('A' for Active; 'I' for Inactive)
REMARK    1  A    between atoms: C_2  and  C_3 
REMARK    2  A    between atoms: C_3  and  N_4 
REMARK    3  A    between atoms: C_7  and  C_8 
REMARK    4  A    between atoms: C_8  and  O_9 
REMARK    5  A    between atoms: N_13  and  C_15 
ROOT
HETATM    1  N   UNL     1       6.821  26.430  54.293  1.00  0.00    -0.067 N 
HETATM    2  H   UNL     1       6.912  25.891  53.420  1.00  0.00     0.280 HD
HETATM    3  C   UNL     1       5.333  26.508  54.515  1.00  0.00     0.242 C 
HETATM    4  C   UNL     1       4.889  27.637  55.483  1.00  0.00     0.044 C 
HETATM    5  C   UNL     1       5.544  29.028  55.145  1.00  0.00    -0.029 C 
HETATM    6  C   UNL     1       4.972  29.611  53.812  1.00  0.00     0.037 C 
HETATM    7  C   UNL     1       3.543  30.159  53.916  1.00  0.00     0.236 C 
HETATM    8  N   UNL     1       3.440  31.214  54.998  1.00  0.00    -0.067 N 
HETATM    9  H   UNL     1       2.431  31.401  55.102  1.00  0.00     0.280 HD
HETATM   10  C   UNL     1       3.861  30.604  56.321  1.00  0.00     0.236 C 
HETATM   11  C   UNL     1       5.305  30.111  56.243  1.00  0.00     0.037 C 
HETATM   12  C   UNL     1       7.079  28.806  55.014  1.00  0.00     0.037 C 
HETATM   13  C   UNL     1       7.476  27.744  53.993  1.00  0.00     0.236 C 
ENDROOT
BRANCH   4  14
HETATM   14  C   UNL     1       5.027  27.218  56.962  1.00  0.00     0.171 C 
BRANCH  14  15
HETATM   15  O   UNL     1       4.450  25.940  57.136  1.00  0.00    -0.400 OA
HETATM   16  H   UNL     1       3.573  26.047  57.559  1.00  0.00     0.209 HD
ENDBRANCH  14  15
ENDBRANCH   4  14
BRANCH   1  17
HETATM   17  C   UNL     1       7.593  25.551  55.268  1.00  0.00     0.273 C 
BRANCH  17  18
HETATM   18  C   UNL     1       7.928  24.193  54.704  1.00  0.00    -0.033 A 
HETATM   19  C   UNL     1       7.696  23.901  53.349  1.00  0.00     0.010 A 
HETATM   20  C   UNL     1       7.974  22.629  52.838  1.00  0.00     0.024 A 
HETATM   21  C   UNL     1       8.494  21.644  53.674  1.00  0.00     0.034 A 
HETATM   22  C   UNL     1       8.747  21.922  55.014  1.00  0.00     0.024 A 
HETATM   23 CL   UNL     1       8.824  20.078  53.049  1.00  0.00    -0.084 Cl
HETATM   24  C   UNL     1       8.468  23.192  55.526  1.00  0.00     0.010 A 
ENDBRANCH  17  18
ENDBRANCH   1  17
BRANCH   8  25
HETATM   25  C   UNL     1       4.072  32.595  54.649  1.00  0.00     0.192 C 
HETATM   26  C   UNL     1       3.509  33.157  53.334  1.00  0.00     0.059 C 
HETATM   27  C   UNL     1       2.067  33.621  53.487  1.00  0.00     0.169 C 
HETATM   28  O   UNL     1       1.962  34.557  54.550  1.00  0.00    -0.391 OA
HETATM   29  C   UNL     1       2.378  34.067  55.816  1.00  0.00     0.169 C 
HETATM   30  C   UNL     1       3.835  33.634  55.756  1.00  0.00     0.059 C 
ENDBRANCH   8  25
TORSDOF 5
ENDMDL
MODEL 7
REMARK VINA RESULT:      -7.6      5.059      6.740
REMARK  5 active torsions:
REMARK  status: ('A' for Active; 'I' for Inactive)
REMARK    1  A    between atoms: C_2  and  C_3 
REMARK    2  A    between atoms: C_3  and  N_4 
REMARK    3  A    between atoms: C_7  and  C_8 
REMARK    4  A    between atoms: C_8  and  O_9 
REMARK    5  A    between atoms: N_13  and  C_15 
ROOT
HETATM    1  N   UNL     1       5.432  26.655  51.407  1.00  0.00    -0.067 N 
HETATM    2  H   UNL     1       5.464  26.630  50.378  1.00  0.00     0.280 HD
HETATM    3  C   UNL     1       6.884  26.666  51.812  1.00  0.00     0.242 C 
HETATM    4  C   UNL     1       7.141  26.239  53.282  1.00  0.00     0.044 C 
HETATM    5  C   UNL     1       6.393  24.911  53.674  1.00  0.00    -0.029 C 
HETATM    6  C   UNL     1       7.019  23.676  52.948  1.00  0.00     0.037 C 
HETATM    7  C   UNL     1       8.379  23.231  53.502  1.00  0.00     0.236 C 
HETATM    8  N   UNL     1       8.295  22.938  54.986  1.00  0.00    -0.067 N 
HETATM    9  H   UNL     1       9.271  22.809  55.295  1.00  0.00     0.280 HD
HETATM   10  C   UNL     1       7.822  24.186  55.707  1.00  0.00     0.236 C 
HETATM   11  C   UNL     1       6.440  24.599  55.202  1.00  0.00     0.037 C 
HETATM   12  C   UNL     1       4.901  25.071  53.262  1.00  0.00     0.037 C 
HETATM   13  C   UNL     1       4.689  25.412  51.790  1.00  0.00     0.236 C 
ENDROOT
BRANCH   4  14
HETATM   14  C   UNL     1       6.918  27.404  54.270  1.00  0.00     0.171 C 
BRANCH  14  15
HETATM   15  O   UNL     1       7.560  28.561  53.773  1.00  0.00    -0.400 OA
HETATM   16  H   UNL     1       8.215  28.290  53.098  1.00  0.00     0.209 HD
ENDBRANCH  14  15
ENDBRANCH   4  14
BRANCH   1  17
HETATM   17  C   UNL     1       4.664  27.948  51.651  1.00  0.00     0.273 C 
BRANCH  17  18
HETATM   18  C   UNL     1       4.765  28.921  50.504  1.00  0.00    -0.033 A 
HETATM   19  C   UNL     1       5.687  29.981  50.540  1.00  0.00     0.010 A 
HETATM   20  C   UNL     1       5.752  30.903  49.490  1.00  0.00     0.024 A 
HETATM   21  C   UNL     1       4.903  30.767  48.394  1.00  0.00     0.034 A 
HETATM   22  C   UNL     1       3.997  29.713  48.334  1.00  0.00     0.024 A 
HETATM   23 CL   UNL     1       4.975  31.908  47.111  1.00  0.00    -0.084 Cl
HETATM   24  C   UNL     1       3.930  28.793  49.383  1.00  0.00     0.010 A 
ENDBRANCH  17  18
ENDBRANCH   1  17
BRANCH   8  25
HETATM   25  C   UNL     1       7.572  21.612  55.367  1.00  0.00     0.192 C 
HETATM   26  C   UNL     1       7.491  20.650  54.172  1.00  0.00     0.059 C 
HETATM   27  C   UNL     1       8.850  20.055  53.830  1.00  0.00     0.169 C 
HETATM   28  O   UNL     1       9.415  19.431  54.973  1.00  0.00    -0.391 OA
HETATM   29  C   UNL     1       9.606  20.291  56.087  1.00  0.00     0.169 C 
HETATM   30  C   UNL     1       8.274  20.883  56.523  1.00  0.00     0.059 C 
ENDBRANCH   8  25
TORSDOF 5
ENDMDL
MODEL 8
REMARK VINA RESULT:      -7.2      6.773     10.266
REMARK  5 active torsions:
REMARK  status: ('A' for Active; 'I' for Inactive)
REMARK    1  A    between atoms: C_2  and  C_3 
REMARK    2  A    between atoms: C_3  and  N_4 
REMARK    3  A    between atoms: C_7  and  C_8 
REMARK    4  A    between atoms: C_8  and  O_9 
REMARK    5  A    between atoms: N_13  and  C_15 
ROOT
HETATM    1  N   UNL     1       5.060  26.424  51.774  1.00  0.00    -0.067 N 
HETATM    2  H   UNL     1       4.663  25.627  52.292  1.00  0.00     0.280 HD
HETATM    3  C   UNL     1       4.170  27.580  52.154  1.00  0.00     0.242 C 
HETATM    4  C   UNL     1       4.242  28.788  51.181  1.00  0.00     0.044 C 
HETATM    5  C   UNL     1       4.109  28.368  49.671  1.00  0.00    -0.029 C 
HETATM    6  C   UNL     1       2.659  27.879  49.347  1.00  0.00     0.037 C 
HETATM    7  C   UNL     1       1.612  28.997  49.266  1.00  0.00     0.236 C 
HETATM    8  N   UNL     1       2.013  30.050  48.254  1.00  0.00    -0.067 N 
HETATM    9  H   UNL     1       1.345  30.825  48.386  1.00  0.00     0.280 HD
HETATM   10  C   UNL     1       3.359  30.626  48.651  1.00  0.00     0.236 C 
HETATM   11  C   UNL     1       4.421  29.526  48.673  1.00  0.00     0.037 C 
HETATM   12  C   UNL     1       5.128  27.221  49.409  1.00  0.00     0.037 C 
HETATM   13  C   UNL     1       4.972  26.018  50.334  1.00  0.00     0.236 C 
ENDROOT
BRANCH   4  14
HETATM   14  C   UNL     1       5.452  29.699  51.479  1.00  0.00     0.171 C 
BRANCH  14  15
HETATM   15  O   UNL     1       4.986  30.980  51.850  1.00  0.00    -0.400 OA
HETATM   16  H   UNL     1       5.123  31.097  52.812  1.00  0.00     0.209 HD
ENDBRANCH  14  15
ENDBRANCH   4  14
BRANCH   1  17
HETATM   17  C   UNL     1       6.477  26.465  52.331  1.00  0.00     0.273 C 
BRANCH  17  18
HETATM   18  C   UNL     1       6.890  25.176  52.994  1.00  0.00    -0.033 A 
HETATM   19  C   UNL     1       7.636  24.213  52.291  1.00  0.00     0.010 A 
HETATM   20  C   UNL     1       7.986  23.003  52.899  1.00  0.00     0.024 A 
HETATM   21  C   UNL     1       7.603  22.750  54.214  1.00  0.00     0.034 A 
HETATM   22  C   UNL     1       6.881  23.700  54.930  1.00  0.00     0.024 A 
HETATM   23 CL   UNL     1       8.023  21.258  54.955  1.00  0.00    -0.084 Cl
HETATM   24  C   UNL     1       6.529  24.909  54.323  1.00  0.00     0.010 A 
ENDBRANCH  17  18
ENDBRANCH   1  17
BRANCH   8  25
HETATM   25  C   UNL     1       1.860  29.635  46.760  1.00  0.00     0.192 C 
HETATM   26  C   UNL     1       0.478  29.021  46.483  1.00  0.00     0.059 C 
HETATM   27  C   UNL     1      -0.625  30.069  46.523  1.00  0.00     0.169 C 
HETATM   28  O   UNL     1      -0.330  31.129  45.626  1.00  0.00    -0.391 OA
HETATM   29  C   UNL     1       0.893  31.803  45.885  1.00  0.00     0.169 C 
HETATM   30  C   UNL     1       2.056  30.825  45.808  1.00  0.00     0.059 C 
ENDBRANCH   8  25
TORSDOF 5
ENDMDL
MODEL 9
REMARK VINA RESULT:      -7.1      2.341      3.247
REMARK  5 active torsions:
REMARK  status: ('A' for Active; 'I' for Inactive)
REMARK    1  A    between atoms: C_2  and  C_3 
REMARK    2  A    between atoms: C_3  and  N_4 
REMARK    3  A    between atoms: C_7  and  C_8 
REMARK    4  A    between atoms: C_8  and  O_9 
REMARK    5  A    between atoms: N_13  and  C_15 
ROOT
HETATM    1  N   UNL     1       5.167  29.908  56.400  1.00  0.00    -0.067 N 
HETATM    2  H   UNL     1       4.827  30.584  55.701  1.00  0.00     0.280 HD
HETATM    3  C   UNL     1       6.610  29.695  56.022  1.00  0.00     0.242 C 
HETATM    4  C   UNL     1       7.237  28.398  56.601  1.00  0.00     0.044 C 
HETATM    5  C   UNL     1       6.338  27.127  56.375  1.00  0.00    -0.029 C 
HETATM    6  C   UNL     1       6.299  26.727  54.863  1.00  0.00     0.037 C 
HETATM    7  C   UNL     1       7.586  26.072  54.344  1.00  0.00     0.236 C 
HETATM    8  N   UNL     1       7.951  24.854  55.167  1.00  0.00    -0.067 N 
HETATM    9  H   UNL     1       8.895  24.584  54.852  1.00  0.00     0.280 HD
HETATM   10  C   UNL     1       8.128  25.273  56.614  1.00  0.00     0.236 C 
HETATM   11  C   UNL     1       6.829  25.869  57.156  1.00  0.00     0.037 C 
HETATM   12  C   UNL     1       4.903  27.471  56.870  1.00  0.00     0.037 C 
HETATM   13  C   UNL     1       4.291  28.707  56.217  1.00  0.00     0.236 C 
ENDROOT
BRANCH   4  14
HETATM   14  C   UNL     1       7.709  28.585  58.059  1.00  0.00     0.171 C 
BRANCH  14  15
HETATM   15  O   UNL     1       8.617  29.667  58.116  1.00  0.00    -0.400 OA
HETATM   16  H   UNL     1       8.143  30.487  57.870  1.00  0.00     0.209 HD
ENDBRANCH  14  15
ENDBRANCH   4  14
BRANCH   1  17
HETATM   17  C   UNL     1       4.925  30.672  57.696  1.00  0.00     0.273 C 
BRANCH  17  18
HETATM   18  C   UNL     1       4.380  32.060  57.472  1.00  0.00    -0.033 A 
HETATM   19  C   UNL     1       4.785  33.131  58.288  1.00  0.00     0.010 A 
HETATM   20  C   UNL     1       4.249  34.409  58.100  1.00  0.00     0.024 A 
HETATM   21  C   UNL     1       3.315  34.629  57.091  1.00  0.00     0.034 A 
HETATM   22  C   UNL     1       2.918  33.584  56.263  1.00  0.00     0.024 A 
HETATM   23 CL   UNL     1       2.649  36.197  56.871  1.00  0.00    -0.084 Cl
HETATM   24  C   UNL     1       3.450  32.306  56.451  1.00  0.00     0.010 A 
ENDBRANCH  17  18
ENDBRANCH   1  17
BRANCH   8  25
HETATM   25  C   UNL     1       7.069  23.592  54.923  1.00  0.00     0.192 C 
HETATM   26  C   UNL     1       6.955  23.265  53.425  1.00  0.00     0.059 C 
HETATM   27  C   UNL     1       8.260  22.718  52.864  1.00  0.00     0.169 C 
HETATM   28  O   UNL     1       8.688  21.595  53.619  1.00  0.00    -0.391 OA
HETATM   29  C   UNL     1       8.905  21.854  54.999  1.00  0.00     0.169 C 
HETATM   30  C   UNL     1       7.621  22.354  55.644  1.00  0.00     0.059 C 
ENDBRANCH   8  25
TORSDOF 5
ENDMDL
MODEL 10
REMARK VINA RESULT:      -7.1      4.613      5.283
REMARK  5 active torsions:
REMARK  status: ('A' for Active; 'I' for Inactive)
REMARK    1  A    between atoms: C_2  and  C_3 
REMARK    2  A    between atoms: C_3  and  N_4 
REMARK    3  A    between atoms: C_7  and  C_8 
REMARK    4  A    between atoms: C_8  and  O_9 
REMARK    5  A    between atoms: N_13  and  C_15 
ROOT
HETATM    1  N   UNL     1       5.198  28.374  52.711  1.00  0.00    -0.067 N 
HETATM    2  H   UNL     1       4.657  29.059  53.257  1.00  0.00     0.280 HD
HETATM    3  C   UNL     1       4.450  27.082  52.911  1.00  0.00     0.242 C 
HETATM    4  C   UNL     1       5.278  25.808  52.593  1.00  0.00     0.044 C 
HETATM    5  C   UNL     1       6.700  25.817  53.267  1.00  0.00    -0.029 C 
HETATM    6  C   UNL     1       6.589  25.656  54.819  1.00  0.00     0.037 C 
HETATM    7  C   UNL     1       6.228  24.241  55.290  1.00  0.00     0.236 C 
HETATM    8  N   UNL     1       7.214  23.220  54.759  1.00  0.00    -0.067 N 
HETATM    9  H   UNL     1       6.804  22.302  54.987  1.00  0.00     0.280 HD
HETATM   10  C   UNL     1       7.214  23.280  53.243  1.00  0.00     0.236 C 
HETATM   11  C   UNL     1       7.633  24.671  52.767  1.00  0.00     0.037 C 
HETATM   12  C   UNL     1       7.377  27.174  52.920  1.00  0.00     0.037 C 
HETATM   13  C   UNL     1       6.566  28.403  53.321  1.00  0.00     0.236 C 
ENDROOT
BRANCH   4  14
HETATM   14  C   UNL     1       5.298  25.493  51.083  1.00  0.00     0.171 C 
BRANCH  14  15
HETATM   15  O   UNL     1       4.180  26.102  50.468  1.00  0.00    -0.400 OA
HETATM   16  H   UNL     1       3.518  26.310  51.158  1.00  0.00     0.209 HD
ENDBRANCH  14  15
ENDBRANCH   4  14
BRANCH   1  17
HETATM   17  C   UNL     1       5.120  28.978  51.314  1.00  0.00     0.273 C 
BRANCH  17  18
HETATM   18  C   UNL     1       5.003  30.481  51.325  1.00  0.00    -0.033 A 
HETATM   19  C   UNL     1       5.713  31.264  50.398  1.00  0.00     0.010 A 
HETATM   20  C   UNL     1       5.630  32.659  50.435  1.00  0.00     0.024 A 
HETATM   21  C   UNL     1       4.830  33.283  51.390  1.00  0.00     0.034 A 
HETATM   22  C   UNL     1       4.106  32.522  52.302  1.00  0.00     0.024 A 
HETATM   23 CL   UNL     1       4.740  34.997  51.441  1.00  0.00    -0.084 Cl
HETATM   24  C   UNL     1       4.190  31.128  52.268  1.00  0.00     0.010 A 
ENDBRANCH  17  18
ENDBRANCH   1  17
BRANCH   8  25
HETATM   25  C   UNL     1       8.613  23.221  55.444  1.00  0.00     0.192 C 
HETATM   26  C   UNL     1       8.503  22.950  56.953  1.00  0.00     0.059 C 
HETATM   27  C   UNL     1       8.129  21.503  57.243  1.00  0.00     0.169 C 
HETATM   28  O   UNL     1       9.048  20.622  56.615  1.00  0.00    -0.391 OA
HETATM   29  C   UNL     1       9.128  20.756  55.203  1.00  0.00     0.169 C 
HETATM   30  C   UNL     1       9.554  22.170  54.836  1.00  0.00     0.059 C 
ENDBRANCH   8  25
TORSDOF 5
ENDMDL
