MODEL 1
REMARK VINA RESULT:      -9.0      0.000      0.000
REMARK  5 active torsions:
REMARK  status: ('A' for Active; 'I' for Inactive)
REMARK    1  A    between atoms: C_8  and  C_9 
REMARK       I    between atoms: N_10  and  C_11 
REMARK       I    between atoms: C_11  and  N_12 
REMARK    2  A    between atoms: N_12  and  C_13 
REMARK    3  A    between atoms: C_15  and  O_16 
REMARK    4  A    between atoms: O_16  and  C_17 
REMARK    5  A    between atoms: C_17  and  C_18 
ROOT
HETATM    1  C   UNL     1       6.031  25.886  55.115  1.00  0.00     0.126 C 
HETATM    2  N   UNL     1       6.822  26.983  55.671  1.00  0.00    -0.325 N 
HETATM    3  C   UNL     1       7.263  27.946  54.824  1.00  0.00     0.323 C 
HETATM    4  N   UNL     1       8.192  28.876  55.117  1.00  0.00    -0.309 N 
HETATM    5  O   UNL     1       6.915  27.944  53.633  1.00  0.00    -0.247 OA
HETATM    6  C   UNL     1       6.848  26.898  57.120  1.00  0.00     0.128 C 
HETATM    7  C   UNL     1       6.245  25.545  57.480  1.00  0.00     0.022 C 
HETATM    8  C   UNL     1       5.315  25.258  56.314  1.00  0.00     0.032 C 
HETATM    9  H   UNL     1       8.541  29.209  54.225  1.00  0.00     0.170 HD
ENDROOT
BRANCH   4  10
HETATM   10  C   UNL     1       8.841  29.446  56.219  1.00  0.00     0.039 A 
HETATM   11  C   UNL     1       8.223  30.041  57.311  1.00  0.00     0.066 A 
HETATM   12  C   UNL     1       8.975  30.588  58.363  1.00  0.00     0.071 A 
HETATM   13  C   UNL     1      10.367  30.605  58.280  1.00  0.00     0.037 A 
HETATM   14  C   UNL     1      10.998  30.074  57.159  1.00  0.00     0.005 A 
HETATM   15  C   UNL     1      10.239  29.504  56.137  1.00  0.00     0.030 A 
BRANCH  12  16
HETATM   16  O   UNL     1       8.233  31.076  59.406  1.00  0.00    -0.347 OA
BRANCH  16  17
HETATM   17  C   UNL     1       8.863  32.037  60.253  1.00  0.00     0.208 C 
BRANCH  17  18
HETATM   18  C   UNL     1       8.894  31.492  61.660  1.00  0.00    -0.069 C 
HETATM   19  C   UNL     1       8.239  32.346  62.710  1.00  0.00     0.044 C 
HETATM   20  C   UNL     1       9.443  30.302  61.959  1.00  0.00     0.016 C 
ENDBRANCH  17  18
ENDBRANCH  16  17
ENDBRANCH  12  16
ENDBRANCH   4  10
BRANCH   1  21
HETATM   21  C   UNL     1       6.895  24.903  54.357  1.00  0.00     0.014 A 
HETATM   22  C   UNL     1       7.997  24.148  54.743  1.00  0.00     0.034 A 
HETATM   23  C   UNL     1       8.769  24.021  56.001  1.00  0.00     0.070 C 
HETATM   24  N   UNL     1       8.360  23.422  53.641  1.00  0.00    -0.282 N 
HETATM   25  H   UNL     1       9.125  22.763  53.553  1.00  0.00     0.189 HD
HETATM   26  N   UNL     1       7.597  23.640  52.567  1.00  0.00    -0.179 NA
HETATM   27  C   UNL     1       6.723  24.564  52.976  1.00  0.00     0.061 A 
HETATM   28  C   UNL     1       5.732  25.114  52.015  1.00  0.00     0.073 C 
ENDBRANCH   1  21
TORSDOF 5
ENDMDL
MODEL 2
REMARK VINA RESULT:      -8.5      5.535     10.798
REMARK  5 active torsions:
REMARK  status: ('A' for Active; 'I' for Inactive)
REMARK    1  A    between atoms: C_8  and  C_9 
REMARK       I    between atoms: N_10  and  C_11 
REMARK       I    between atoms: C_11  and  N_12 
REMARK    2  A    between atoms: N_12  and  C_13 
REMARK    3  A    between atoms: C_15  and  O_16 
REMARK    4  A    between atoms: O_16  and  C_17 
REMARK    5  A    between atoms: C_17  and  C_18 
ROOT
HETATM    1  C   UNL     1       4.570  34.423  63.878  1.00  0.00     0.126 C 
HETATM    2  N   UNL     1       5.455  33.713  62.955  1.00  0.00    -0.325 N 
HETATM    3  C   UNL     1       5.465  32.357  62.993  1.00  0.00     0.323 C 
HETATM    4  N   UNL     1       6.379  31.568  62.400  1.00  0.00    -0.309 N 
HETATM    5  O   UNL     1       4.668  31.743  63.720  1.00  0.00    -0.247 OA
HETATM    6  C   UNL     1       6.064  34.649  62.027  1.00  0.00     0.128 C 
HETATM    7  C   UNL     1       5.733  36.043  62.546  1.00  0.00     0.022 C 
HETATM    8  C   UNL     1       4.431  35.833  63.300  1.00  0.00     0.032 C 
HETATM    9  H   UNL     1       6.322  30.673  62.873  1.00  0.00     0.170 HD
ENDROOT
BRANCH   4  10
HETATM   10  C   UNL     1       7.383  31.619  61.424  1.00  0.00     0.039 A 
HETATM   11  C   UNL     1       7.261  31.200  60.105  1.00  0.00     0.066 A 
HETATM   12  C   UNL     1       8.338  31.295  59.210  1.00  0.00     0.071 A 
HETATM   13  C   UNL     1       9.576  31.745  59.666  1.00  0.00     0.037 A 
HETATM   14  C   UNL     1       9.732  32.103  61.002  1.00  0.00     0.005 A 
HETATM   15  C   UNL     1       8.644  32.036  61.872  1.00  0.00     0.030 A 
BRANCH  12  16
HETATM   16  O   UNL     1       8.052  30.912  57.926  1.00  0.00    -0.347 OA
BRANCH  16  17
HETATM   17  C   UNL     1       7.521  29.598  57.747  1.00  0.00     0.208 C 
BRANCH  17  18
HETATM   18  C   UNL     1       8.618  28.703  57.227  1.00  0.00    -0.069 C 
HETATM   19  C   UNL     1       8.300  27.235  57.179  1.00  0.00     0.044 C 
HETATM   20  C   UNL     1       9.798  29.184  56.799  1.00  0.00     0.016 C 
ENDBRANCH  17  18
ENDBRANCH  16  17
ENDBRANCH  12  16
ENDBRANCH   4  10
BRANCH   1  21
HETATM   21  C   UNL     1       5.110  34.410  65.290  1.00  0.00     0.014 A 
HETATM   22  C   UNL     1       6.366  34.096  65.800  1.00  0.00     0.034 A 
HETATM   23  C   UNL     1       7.637  33.633  65.194  1.00  0.00     0.070 C 
HETATM   24  N   UNL     1       6.279  34.278  67.153  1.00  0.00    -0.282 N 
HETATM   25  H   UNL     1       7.005  34.141  67.848  1.00  0.00     0.189 HD
HETATM   26  N   UNL     1       5.077  34.678  67.575  1.00  0.00    -0.179 NA
HETATM   27  C   UNL     1       4.346  34.729  66.459  1.00  0.00     0.061 A 
HETATM   28  C   UNL     1       2.905  35.082  66.540  1.00  0.00     0.073 C 
ENDBRANCH   1  21
TORSDOF 5
ENDMDL
MODEL 3
REMARK VINA RESULT:      -8.1      6.813     11.058
REMARK  5 active torsions:
REMARK  status: ('A' for Active; 'I' for Inactive)
REMARK    1  A    between atoms: C_8  and  C_9 
REMARK       I    between atoms: N_10  and  C_11 
REMARK       I    between atoms: C_11  and  N_12 
REMARK    2  A    between atoms: N_12  and  C_13 
REMARK    3  A    between atoms: C_15  and  O_16 
REMARK    4  A    between atoms: O_16  and  C_17 
REMARK    5  A    between atoms: C_17  and  C_18 
ROOT
HETATM    1  C   UNL     1       4.261  35.598  64.117  1.00  0.00     0.126 C 
HETATM    2  N   UNL     1       4.402  34.805  62.896  1.00  0.00    -0.325 N 
HETATM    3  C   UNL     1       3.581  33.737  62.729  1.00  0.00     0.323 C 
HETATM    4  N   UNL     1       3.736  32.774  61.802  1.00  0.00    -0.309 N 
HETATM    5  O   UNL     1       2.673  33.509  63.543  1.00  0.00    -0.247 OA
HETATM    6  C   UNL     1       5.338  35.445  61.989  1.00  0.00     0.128 C 
HETATM    7  C   UNL     1       6.000  36.567  62.779  1.00  0.00     0.022 C 
HETATM    8  C   UNL     1       4.949  36.931  63.813  1.00  0.00     0.032 C 
HETATM    9  H   UNL     1       3.200  31.980  62.136  1.00  0.00     0.170 HD
ENDROOT
BRANCH   4  10
HETATM   10  C   UNL     1       4.430  32.518  60.613  1.00  0.00     0.039 A 
HETATM   11  C   UNL     1       5.809  32.426  60.476  1.00  0.00     0.066 A 
HETATM   12  C   UNL     1       6.400  32.169  59.229  1.00  0.00     0.071 A 
HETATM   13  C   UNL     1       5.599  32.080  58.091  1.00  0.00     0.037 A 
HETATM   14  C   UNL     1       4.221  32.239  58.202  1.00  0.00     0.005 A 
HETATM   15  C   UNL     1       3.644  32.460  59.453  1.00  0.00     0.030 A 
BRANCH  12  16
HETATM   16  O   UNL     1       7.763  32.033  59.258  1.00  0.00    -0.347 OA
BRANCH  16  17
HETATM   17  C   UNL     1       8.283  30.871  59.906  1.00  0.00     0.208 C 
BRANCH  17  18
HETATM   18  C   UNL     1       8.972  31.298  61.178  1.00  0.00    -0.069 C 
HETATM   19  C   UNL     1       8.368  30.786  62.456  1.00  0.00     0.044 C 
HETATM   20  C   UNL     1      10.078  32.062  61.177  1.00  0.00     0.016 C 
ENDBRANCH  17  18
ENDBRANCH  16  17
ENDBRANCH  12  16
ENDBRANCH   4  10
BRANCH   1  21
HETATM   21  C   UNL     1       4.849  34.886  65.316  1.00  0.00     0.014 A 
HETATM   22  C   UNL     1       6.036  34.181  65.485  1.00  0.00     0.034 A 
HETATM   23  C   UNL     1       7.160  33.825  64.587  1.00  0.00     0.070 C 
HETATM   24  N   UNL     1       6.047  33.771  66.790  1.00  0.00    -0.282 N 
HETATM   25  H   UNL     1       6.759  33.229  67.267  1.00  0.00     0.189 HD
HETATM   26  N   UNL     1       4.970  34.140  67.489  1.00  0.00    -0.179 NA
HETATM   27  C   UNL     1       4.216  34.788  66.597  1.00  0.00     0.061 A 
HETATM   28  C   UNL     1       2.881  35.302  66.999  1.00  0.00     0.073 C 
ENDBRANCH   1  21
TORSDOF 5
ENDMDL
MODEL 4
REMARK VINA RESULT:      -7.8      5.986     11.181
REMARK  5 active torsions:
REMARK  status: ('A' for Active; 'I' for Inactive)
REMARK    1  A    between atoms: C_8  and  C_9 
REMARK       I    between atoms: N_10  and  C_11 
REMARK       I    between atoms: C_11  and  N_12 
REMARK    2  A    between atoms: N_12  and  C_13 
REMARK    3  A    between atoms: C_15  and  O_16 
REMARK    4  A    between atoms: O_16  and  C_17 
REMARK    5  A    between atoms: C_17  and  C_18 
ROOT
HETATM    1  C   UNL     1       3.720  34.821  63.364  1.00  0.00     0.126 C 
HETATM    2  N   UNL     1       4.767  33.986  62.775  1.00  0.00    -0.325 N 
HETATM    3  C   UNL     1       5.321  33.018  63.546  1.00  0.00     0.323 C 
HETATM    4  N   UNL     1       6.443  32.335  63.251  1.00  0.00    -0.309 N 
HETATM    5  O   UNL     1       4.877  32.787  64.681  1.00  0.00    -0.247 OA
HETATM    6  C   UNL     1       4.900  34.276  61.358  1.00  0.00     0.128 C 
HETATM    7  C   UNL     1       4.066  35.524  61.097  1.00  0.00     0.022 C 
HETATM    8  C   UNL     1       2.998  35.461  62.175  1.00  0.00     0.032 C 
HETATM    9  H   UNL     1       6.774  31.954  64.131  1.00  0.00     0.170 HD
ENDROOT
BRANCH   4  10
HETATM   10  C   UNL     1       7.289  32.060  62.170  1.00  0.00     0.039 A 
HETATM   11  C   UNL     1       6.893  31.604  60.919  1.00  0.00     0.066 A 
HETATM   12  C   UNL     1       7.832  31.356  59.905  1.00  0.00     0.071 A 
HETATM   13  C   UNL     1       9.193  31.494  60.176  1.00  0.00     0.037 A 
HETATM   14  C   UNL     1       9.608  31.883  61.446  1.00  0.00     0.005 A 
HETATM   15  C   UNL     1       8.663  32.159  62.433  1.00  0.00     0.030 A 
BRANCH  12  16
HETATM   16  O   UNL     1       7.292  30.981  58.703  1.00  0.00    -0.347 OA
BRANCH  16  17
HETATM   17  C   UNL     1       8.061  30.083  57.901  1.00  0.00     0.208 C 
BRANCH  17  18
HETATM   18  C   UNL     1       7.203  28.891  57.556  1.00  0.00    -0.069 C 
HETATM   19  C   UNL     1       7.923  27.578  57.433  1.00  0.00     0.044 C 
HETATM   20  C   UNL     1       5.871  28.984  57.399  1.00  0.00     0.016 C 
ENDBRANCH  17  18
ENDBRANCH  16  17
ENDBRANCH  12  16
ENDBRANCH   4  10
BRANCH   1  21
HETATM   21  C   UNL     1       4.294  35.837  64.327  1.00  0.00     0.014 A 
HETATM   22  C   UNL     1       5.211  36.867  64.151  1.00  0.00     0.034 A 
HETATM   23  C   UNL     1       5.998  37.359  62.996  1.00  0.00     0.070 C 
HETATM   24  N   UNL     1       5.339  37.470  65.372  1.00  0.00    -0.282 N 
HETATM   25  H   UNL     1       5.926  38.259  65.619  1.00  0.00     0.189 HD
HETATM   26  N   UNL     1       4.591  36.923  66.334  1.00  0.00    -0.179 NA
HETATM   27  C   UNL     1       3.976  35.907  65.722  1.00  0.00     0.061 A 
HETATM   28  C   UNL     1       3.089  35.007  66.504  1.00  0.00     0.073 C 
ENDBRANCH   1  21
TORSDOF 5
ENDMDL
MODEL 5
REMARK VINA RESULT:      -7.8      4.270      6.504
REMARK  5 active torsions:
REMARK  status: ('A' for Active; 'I' for Inactive)
REMARK    1  A    between atoms: C_8  and  C_9 
REMARK       I    between atoms: N_10  and  C_11 
REMARK       I    between atoms: C_11  and  N_12 
REMARK    2  A    between atoms: N_12  and  C_13 
REMARK    3  A    between atoms: C_15  and  O_16 
REMARK    4  A    between atoms: O_16  and  C_17 
REMARK    5  A    between atoms: C_17  and  C_18 
ROOT
HETATM    1  C   UNL     1       4.738  27.573  48.987  1.00  0.00     0.126 C 
HETATM    2  N   UNL     1       5.123  27.753  50.387  1.00  0.00    -0.325 N 
HETATM    3  C   UNL     1       5.075  26.673  51.206  1.00  0.00     0.323 C 
HETATM    4  N   UNL     1       5.157  26.711  52.550  1.00  0.00    -0.309 N 
HETATM    5  O   UNL     1       4.810  25.549  50.751  1.00  0.00    -0.247 OA
HETATM    6  C   UNL     1       5.656  29.088  50.592  1.00  0.00     0.128 C 
HETATM    7  C   UNL     1       5.367  29.865  49.313  1.00  0.00     0.022 C 
HETATM    8  C   UNL     1       5.322  28.781  48.250  1.00  0.00     0.032 C 
HETATM    9  H   UNL     1       4.761  25.836  52.875  1.00  0.00     0.170 HD
ENDROOT
BRANCH   4  10
HETATM   10  C   UNL     1       5.538  27.571  53.586  1.00  0.00     0.039 A 
HETATM   11  C   UNL     1       6.803  27.651  54.157  1.00  0.00     0.066 A 
HETATM   12  C   UNL     1       7.074  28.552  55.199  1.00  0.00     0.071 A 
HETATM   13  C   UNL     1       6.042  29.328  55.726  1.00  0.00     0.037 A 
HETATM   14  C   UNL     1       4.755  29.208  55.211  1.00  0.00     0.005 A 
HETATM   15  C   UNL     1       4.507  28.334  54.153  1.00  0.00     0.030 A 
BRANCH  12  16
HETATM   16  O   UNL     1       8.379  28.573  55.613  1.00  0.00    -0.347 OA
BRANCH  16  17
HETATM   17  C   UNL     1       8.611  28.498  57.021  1.00  0.00     0.208 C 
BRANCH  17  18
HETATM   18  C   UNL     1       9.661  29.517  57.390  1.00  0.00    -0.069 C 
HETATM   19  C   UNL     1       9.332  30.404  58.559  1.00  0.00     0.044 C 
HETATM   20  C   UNL     1      10.834  29.611  56.740  1.00  0.00     0.016 C 
ENDBRANCH  17  18
ENDBRANCH  16  17
ENDBRANCH  12  16
ENDBRANCH   4  10
BRANCH   1  21
HETATM   21  C   UNL     1       3.238  27.452  48.834  1.00  0.00     0.014 A 
HETATM   22  C   UNL     1       2.188  28.196  49.362  1.00  0.00     0.034 A 
HETATM   23  C   UNL     1       2.108  29.353  50.284  1.00  0.00     0.070 C 
HETATM   24  N   UNL     1       1.043  27.637  48.865  1.00  0.00    -0.282 N 
HETATM   25  H   UNL     1       0.085  27.919  49.039  1.00  0.00     0.189 HD
HETATM   26  N   UNL     1       1.249  26.590  48.061  1.00  0.00    -0.179 NA
HETATM   27  C   UNL     1       2.577  26.444  48.060  1.00  0.00     0.061 A 
HETATM   28  C   UNL     1       3.190  25.317  47.311  1.00  0.00     0.073 C 
ENDBRANCH   1  21
TORSDOF 5
ENDMDL
MODEL 6
REMARK VINA RESULT:      -7.7      5.538      8.619
REMARK  5 active torsions:
REMARK  status: ('A' for Active; 'I' for Inactive)
REMARK    1  A    between atoms: C_8  and  C_9 
REMARK       I    between atoms: N_10  and  C_11 
REMARK       I    between atoms: C_11  and  N_12 
REMARK    2  A    between atoms: N_12  and  C_13 
REMARK    3  A    between atoms: C_15  and  O_16 
REMARK    4  A    between atoms: O_16  and  C_17 
REMARK    5  A    between atoms: C_17  and  C_18 
ROOT
HETATM    1  C   UNL     1       4.555  28.280  49.078  1.00  0.00     0.126 C 
HETATM    2  N   UNL     1       4.991  27.490  50.229  1.00  0.00    -0.325 N 
HETATM    3  C   UNL     1       4.634  26.182  50.279  1.00  0.00     0.323 C 
HETATM    4  N   UNL     1       4.737  25.388  51.361  1.00  0.00    -0.309 N 
HETATM    5  O   UNL     1       4.043  25.655  49.324  1.00  0.00    -0.247 OA
HETATM    6  C   UNL     1       5.898  28.267  51.054  1.00  0.00     0.128 C 
HETATM    7  C   UNL     1       5.838  29.696  50.527  1.00  0.00     0.022 C 
HETATM    8  C   UNL     1       5.463  29.512  49.067  1.00  0.00     0.032 C 
HETATM    9  H   UNL     1       4.103  24.614  51.197  1.00  0.00     0.170 HD
ENDROOT
BRANCH   4  10
HETATM   10  C   UNL     1       5.367  25.339  52.610  1.00  0.00     0.039 A 
HETATM   11  C   UNL     1       6.321  24.409  53.007  1.00  0.00     0.066 A 
HETATM   12  C   UNL     1       6.886  24.452  54.292  1.00  0.00     0.071 A 
HETATM   13  C   UNL     1       6.431  25.393  55.215  1.00  0.00     0.037 A 
HETATM   14  C   UNL     1       5.427  26.286  54.854  1.00  0.00     0.005 A 
HETATM   15  C   UNL     1       4.899  26.254  53.564  1.00  0.00     0.030 A 
BRANCH  12  16
HETATM   16  O   UNL     1       7.864  23.519  54.519  1.00  0.00    -0.347 OA
BRANCH  16  17
HETATM   17  C   UNL     1       8.315  22.769  53.390  1.00  0.00     0.208 C 
BRANCH  17  18
HETATM   18  C   UNL     1       8.190  21.299  53.709  1.00  0.00    -0.069 C 
HETATM   19  C   UNL     1       7.843  20.963  55.133  1.00  0.00     0.044 C 
HETATM   20  C   UNL     1       8.345  20.344  52.775  1.00  0.00     0.016 C 
ENDBRANCH  17  18
ENDBRANCH  16  17
ENDBRANCH  12  16
ENDBRANCH   4  10
BRANCH   1  21
HETATM   21  C   UNL     1       3.085  28.626  49.164  1.00  0.00     0.014 A 
HETATM   22  C   UNL     1       2.339  29.267  50.147  1.00  0.00     0.034 A 
HETATM   23  C   UNL     1       2.659  29.828  51.480  1.00  0.00     0.070 C 
HETATM   24  N   UNL     1       1.056  29.317  49.674  1.00  0.00    -0.282 N 
HETATM   25  H   UNL     1       0.240  29.713  50.127  1.00  0.00     0.189 HD
HETATM   26  N   UNL     1       0.895  28.761  48.470  1.00  0.00    -0.179 NA
HETATM   27  C   UNL     1       2.112  28.305  48.162  1.00  0.00     0.061 A 
HETATM   28  C   UNL     1       2.316  27.554  46.897  1.00  0.00     0.073 C 
ENDBRANCH   1  21
TORSDOF 5
ENDMDL
MODEL 7
REMARK VINA RESULT:      -7.4      2.100      2.618
REMARK  5 active torsions:
REMARK  status: ('A' for Active; 'I' for Inactive)
REMARK    1  A    between atoms: C_8  and  C_9 
REMARK       I    between atoms: N_10  and  C_11 
REMARK       I    between atoms: C_11  and  N_12 
REMARK    2  A    between atoms: N_12  and  C_13 
REMARK    3  A    between atoms: C_15  and  O_16 
REMARK    4  A    between atoms: O_16  and  C_17 
REMARK    5  A    between atoms: C_17  and  C_18 
ROOT
HETATM    1  C   UNL     1       6.355  25.568  55.066  1.00  0.00     0.126 C 
HETATM    2  N   UNL     1       6.598  26.827  55.769  1.00  0.00    -0.325 N 
HETATM    3  C   UNL     1       7.483  27.701  55.227  1.00  0.00     0.323 C 
HETATM    4  N   UNL     1       8.000  28.774  55.854  1.00  0.00    -0.309 N 
HETATM    5  O   UNL     1       7.990  27.476  54.118  1.00  0.00    -0.247 OA
HETATM    6  C   UNL     1       5.677  26.964  56.884  1.00  0.00     0.128 C 
HETATM    7  C   UNL     1       4.985  25.614  57.035  1.00  0.00     0.022 C 
HETATM    8  C   UNL     1       5.033  25.040  55.630  1.00  0.00     0.032 C 
HETATM    9  H   UNL     1       8.844  29.012  55.344  1.00  0.00     0.170 HD
ENDROOT
BRANCH   4  10
HETATM   10  C   UNL     1       7.780  29.581  56.977  1.00  0.00     0.039 A 
HETATM   11  C   UNL     1       6.712  30.452  57.159  1.00  0.00     0.066 A 
HETATM   12  C   UNL     1       6.592  31.220  58.329  1.00  0.00     0.071 A 
HETATM   13  C   UNL     1       7.598  31.169  59.293  1.00  0.00     0.037 A 
HETATM   14  C   UNL     1       8.708  30.354  59.092  1.00  0.00     0.005 A 
HETATM   15  C   UNL     1       8.797  29.571  57.941  1.00  0.00     0.030 A 
BRANCH  12  16
HETATM   16  O   UNL     1       5.454  31.977  58.402  1.00  0.00    -0.347 OA
BRANCH  16  17
HETATM   17  C   UNL     1       4.740  31.953  59.639  1.00  0.00     0.208 C 
BRANCH  17  18
HETATM   18  C   UNL     1       4.809  33.326  60.262  1.00  0.00    -0.069 C 
HETATM   19  C   UNL     1       5.605  33.432  61.532  1.00  0.00     0.044 C 
HETATM   20  C   UNL     1       4.223  34.399  59.703  1.00  0.00     0.016 C 
ENDBRANCH  17  18
ENDBRANCH  16  17
ENDBRANCH  12  16
ENDBRANCH   4  10
BRANCH   1  21
HETATM   21  C   UNL     1       7.505  24.600  55.243  1.00  0.00     0.014 A 
HETATM   22  C   UNL     1       8.367  24.370  56.310  1.00  0.00     0.034 A 
HETATM   23  C   UNL     1       8.529  24.974  57.652  1.00  0.00     0.070 C 
HETATM   24  N   UNL     1       9.200  23.362  55.908  1.00  0.00    -0.282 N 
HETATM   25  H   UNL     1       9.958  22.935  56.429  1.00  0.00     0.189 HD
HETATM   26  N   UNL     1       8.964  22.916  54.672  1.00  0.00    -0.179 NA
HETATM   27  C   UNL     1       7.958  23.683  54.241  1.00  0.00     0.061 A 
HETATM   28  C   UNL     1       7.453  23.520  52.853  1.00  0.00     0.073 C 
ENDBRANCH   1  21
TORSDOF 5
ENDMDL
MODEL 8
REMARK VINA RESULT:      -7.4      8.945     11.766
REMARK  5 active torsions:
REMARK  status: ('A' for Active; 'I' for Inactive)
REMARK    1  A    between atoms: C_8  and  C_9 
REMARK       I    between atoms: N_10  and  C_11 
REMARK       I    between atoms: C_11  and  N_12 
REMARK    2  A    between atoms: N_12  and  C_13 
REMARK    3  A    between atoms: C_15  and  O_16 
REMARK    4  A    between atoms: O_16  and  C_17 
REMARK    5  A    between atoms: C_17  and  C_18 
ROOT
HETATM    1  C   UNL     1       4.808  35.610  61.586  1.00  0.00     0.126 C 
HETATM    2  N   UNL     1       5.130  35.300  62.979  1.00  0.00    -0.325 N 
HETATM    3  C   UNL     1       5.825  34.163  63.236  1.00  0.00     0.323 C 
HETATM    4  N   UNL     1       5.988  33.609  64.452  1.00  0.00    -0.309 N 
HETATM    5  O   UNL     1       6.258  33.467  62.305  1.00  0.00    -0.247 OA
HETATM    6  C   UNL     1       4.755  36.408  63.838  1.00  0.00     0.128 C 
HETATM    7  C   UNL     1       3.937  37.361  62.975  1.00  0.00     0.022 C 
HETATM    8  C   UNL     1       4.465  37.102  61.574  1.00  0.00     0.032 C 
HETATM    9  H   UNL     1       6.239  32.641  64.284  1.00  0.00     0.170 HD
ENDROOT
BRANCH   4  10
HETATM   10  C   UNL     1       5.859  33.924  65.810  1.00  0.00     0.039 A 
HETATM   11  C   UNL     1       6.902  34.180  66.691  1.00  0.00     0.066 A 
HETATM   12  C   UNL     1       6.657  34.483  68.040  1.00  0.00     0.071 A 
HETATM   13  C   UNL     1       5.350  34.453  68.527  1.00  0.00     0.037 A 
HETATM   14  C   UNL     1       4.301  34.130  67.672  1.00  0.00     0.005 A 
HETATM   15  C   UNL     1       4.557  33.864  66.327  1.00  0.00     0.030 A 
BRANCH  12  16
HETATM   16  O   UNL     1       7.774  34.784  68.773  1.00  0.00    -0.347 OA
BRANCH  16  17
HETATM   17  C   UNL     1       7.660  35.849  69.717  1.00  0.00     0.208 C 
BRANCH  17  18
HETATM   18  C   UNL     1       7.608  35.259  71.105  1.00  0.00    -0.069 C 
HETATM   19  C   UNL     1       8.726  34.320  71.461  1.00  0.00     0.044 C 
HETATM   20  C   UNL     1       6.642  35.573  71.986  1.00  0.00     0.016 C 
ENDBRANCH  17  18
ENDBRANCH  16  17
ENDBRANCH  12  16
ENDBRANCH   4  10
BRANCH   1  21
HETATM   21  C   UNL     1       3.686  34.738  61.066  1.00  0.00     0.014 A 
HETATM   22  C   UNL     1       2.607  34.137  61.705  1.00  0.00     0.034 A 
HETATM   23  C   UNL     1       2.143  34.079  63.111  1.00  0.00     0.070 C 
HETATM   24  N   UNL     1       1.909  33.481  60.727  1.00  0.00    -0.282 N 
HETATM   25  H   UNL     1       1.064  32.930  60.828  1.00  0.00     0.189 HD
HETATM   26  N   UNL     1       2.439  33.595  59.507  1.00  0.00    -0.179 NA
HETATM   27  C   UNL     1       3.539  34.327  59.702  1.00  0.00     0.061 A 
HETATM   28  C   UNL     1       4.442  34.615  58.558  1.00  0.00     0.073 C 
ENDBRANCH   1  21
TORSDOF 5
ENDMDL
MODEL 9
REMARK VINA RESULT:      -7.4      4.049      8.397
REMARK  5 active torsions:
REMARK  status: ('A' for Active; 'I' for Inactive)
REMARK    1  A    between atoms: C_8  and  C_9 
REMARK       I    between atoms: N_10  and  C_11 
REMARK       I    between atoms: C_11  and  N_12 
REMARK    2  A    between atoms: N_12  and  C_13 
REMARK    3  A    between atoms: C_15  and  O_16 
REMARK    4  A    between atoms: O_16  and  C_17 
REMARK    5  A    between atoms: C_17  and  C_18 
ROOT
HETATM    1  C   UNL     1       7.150  26.337  55.237  1.00  0.00     0.126 C 
HETATM    2  N   UNL     1       6.258  26.926  54.239  1.00  0.00    -0.325 N 
HETATM    3  C   UNL     1       5.040  26.357  54.054  1.00  0.00     0.323 C 
HETATM    4  N   UNL     1       4.209  26.613  53.027  1.00  0.00    -0.309 N 
HETATM    5  O   UNL     1       4.663  25.429  54.786  1.00  0.00    -0.247 OA
HETATM    6  C   UNL     1       6.825  28.161  53.728  1.00  0.00     0.128 C 
HETATM    7  C   UNL     1       8.254  28.226  54.254  1.00  0.00     0.022 C 
HETATM    8  C   UNL     1       8.188  27.421  55.540  1.00  0.00     0.032 C 
HETATM    9  H   UNL     1       3.574  25.824  52.982  1.00  0.00     0.170 HD
ENDROOT
BRANCH   4  10
HETATM   10  C   UNL     1       4.005  27.553  52.009  1.00  0.00     0.039 A 
HETATM   11  C   UNL     1       4.405  27.422  50.685  1.00  0.00     0.066 A 
HETATM   12  C   UNL     1       4.150  28.433  49.745  1.00  0.00     0.071 A 
HETATM   13  C   UNL     1       3.553  29.624  50.158  1.00  0.00     0.037 A 
HETATM   14  C   UNL     1       3.209  29.797  51.496  1.00  0.00     0.005 A 
HETATM   15  C   UNL     1       3.438  28.770  52.412  1.00  0.00     0.030 A 
BRANCH  12  16
HETATM   16  O   UNL     1       4.537  28.137  48.465  1.00  0.00    -0.347 OA
BRANCH  16  17
HETATM   17  C   UNL     1       3.534  28.223  47.451  1.00  0.00     0.208 C 
BRANCH  17  18
HETATM   18  C   UNL     1       2.636  27.015  47.560  1.00  0.00    -0.069 C 
HETATM   19  C   UNL     1       3.315  25.679  47.438  1.00  0.00     0.044 C 
HETATM   20  C   UNL     1       1.314  27.118  47.784  1.00  0.00     0.016 C 
ENDBRANCH  17  18
ENDBRANCH  16  17
ENDBRANCH  12  16
ENDBRANCH   4  10
BRANCH   1  21
HETATM   21  C   UNL     1       7.765  25.046  54.743  1.00  0.00     0.014 A 
HETATM   22  C   UNL     1       7.986  24.556  53.461  1.00  0.00     0.034 A 
HETATM   23  C   UNL     1       7.694  25.063  52.100  1.00  0.00     0.070 C 
HETATM   24  N   UNL     1       8.592  23.340  53.623  1.00  0.00    -0.282 N 
HETATM   25  H   UNL     1       8.896  22.695  52.902  1.00  0.00     0.189 HD
HETATM   26  N   UNL     1       8.782  22.989  54.897  1.00  0.00    -0.179 NA
HETATM   27  C   UNL     1       8.253  24.000  55.591  1.00  0.00     0.061 A 
HETATM   28  C   UNL     1       8.221  23.935  57.075  1.00  0.00     0.073 C 
ENDBRANCH   1  21
TORSDOF 5
ENDMDL
MODEL 10
REMARK VINA RESULT:      -7.3      4.474      7.538
REMARK  5 active torsions:
REMARK  status: ('A' for Active; 'I' for Inactive)
REMARK    1  A    between atoms: C_8  and  C_9 
REMARK       I    between atoms: N_10  and  C_11 
REMARK       I    between atoms: C_11  and  N_12 
REMARK    2  A    between atoms: N_12  and  C_13 
REMARK    3  A    between atoms: C_15  and  O_16 
REMARK    4  A    between atoms: O_16  and  C_17 
REMARK    5  A    between atoms: C_17  and  C_18 
ROOT
HETATM    1  C   UNL     1       6.490  26.016  54.614  1.00  0.00     0.126 C 
HETATM    2  N   UNL     1       6.033  26.473  53.302  1.00  0.00    -0.325 N 
HETATM    3  C   UNL     1       5.052  25.767  52.686  1.00  0.00     0.323 C 
HETATM    4  N   UNL     1       4.691  25.899  51.395  1.00  0.00    -0.309 N 
HETATM    5  O   UNL     1       4.494  24.825  53.269  1.00  0.00    -0.247 OA
HETATM    6  C   UNL     1       6.645  27.748  52.975  1.00  0.00     0.128 C 
HETATM    7  C   UNL     1       7.725  27.986  54.023  1.00  0.00     0.022 C 
HETATM    8  C   UNL     1       7.214  27.216  55.229  1.00  0.00     0.032 C 
HETATM    9  H   UNL     1       4.202  25.044  51.156  1.00  0.00     0.170 HD
ENDROOT
BRANCH   4  10
HETATM   10  C   UNL     1       4.834  26.780  50.317  1.00  0.00     0.039 A 
HETATM   11  C   UNL     1       5.325  28.078  50.383  1.00  0.00     0.066 A 
HETATM   12  C   UNL     1       5.422  28.878  49.233  1.00  0.00     0.071 A 
HETATM   13  C   UNL     1       4.948  28.395  48.015  1.00  0.00     0.037 A 
HETATM   14  C   UNL     1       4.389  27.122  47.946  1.00  0.00     0.005 A 
HETATM   15  C   UNL     1       4.331  26.325  49.090  1.00  0.00     0.030 A 
BRANCH  12  16
HETATM   16  O   UNL     1       5.991  30.107  49.437  1.00  0.00    -0.347 OA
BRANCH  16  17
HETATM   17  C   UNL     1       5.369  30.955  50.403  1.00  0.00     0.208 C 
BRANCH  17  18
HETATM   18  C   UNL     1       5.735  32.386  50.095  1.00  0.00    -0.069 C 
HETATM   19  C   UNL     1       6.417  32.619  48.775  1.00  0.00     0.044 C 
HETATM   20  C   UNL     1       5.444  33.400  50.928  1.00  0.00     0.016 C 
ENDBRANCH  17  18
ENDBRANCH  16  17
ENDBRANCH  12  16
ENDBRANCH   4  10
BRANCH   1  21
HETATM   21  C   UNL     1       7.366  24.788  54.502  1.00  0.00     0.014 A 
HETATM   22  C   UNL     1       7.973  24.178  53.408  1.00  0.00     0.034 A 
HETATM   23  C   UNL     1       7.987  24.452  51.953  1.00  0.00     0.070 C 
HETATM   24  N   UNL     1       8.660  23.106  53.909  1.00  0.00    -0.282 N 
HETATM   25  H   UNL     1       9.219  22.431  53.399  1.00  0.00     0.189 HD
HETATM   26  N   UNL     1       8.553  22.957  55.232  1.00  0.00    -0.179 NA
HETATM   27  C   UNL     1       7.741  23.951  55.602  1.00  0.00     0.061 A 
HETATM   28  C   UNL     1       7.331  24.073  57.025  1.00  0.00     0.073 C 
ENDBRANCH   1  21
TORSDOF 5
ENDMDL
