MODEL 1
REMARK VINA RESULT:      -8.5      0.000      0.000
REMARK  7 active torsions:
REMARK  status: ('A' for Active; 'I' for Inactive)
REMARK    1  A    between atoms: C_6  and  C_7 
REMARK       I    between atoms: C_7  and  N_8 
REMARK    2  A    between atoms: N_8  and  N_9 
REMARK       I    between atoms: N_9  and  C_10 
REMARK    3  A    between atoms: C_10  and  C_11 
REMARK    4  A    between atoms: C_11  and  C_12 
REMARK    5  A    between atoms: C_12  and  C_13 
REMARK    6  A    between atoms: C_13  and  O_14 
REMARK    7  A    between atoms: O_14  and  C_15 
ROOT
HETATM    1  N   UNL     1       8.299  30.258  59.361  1.00  0.00    -0.267 N 
HETATM    2  C   UNL     1       9.240  30.950  58.625  1.00  0.00     0.236 C 
HETATM    3  O   UNL     1       9.455  32.151  58.760  1.00  0.00    -0.272 OA
HETATM    4  H   UNL     1       8.251  29.240  59.374  1.00  0.00     0.190 HD
ENDROOT
BRANCH   2   5
HETATM    5  C   UNL     1       9.947  30.070  57.615  1.00  0.00     0.107 C 
BRANCH   5   6
HETATM    6  C   UNL     1       9.115  28.884  57.140  1.00  0.00     0.036 C 
BRANCH   6   7
HETATM    7  C   UNL     1       8.552  29.080  55.730  1.00  0.00     0.176 C 
BRANCH   7   8
HETATM    8  O   UNL     1       7.397  28.253  55.613  1.00  0.00    -0.349 OA
BRANCH   8   9
HETATM    9  C   UNL     1       7.511  26.984  55.119  1.00  0.00     0.090 A 
HETATM   10  C   UNL     1       7.498  25.749  55.786  1.00  0.00     0.069 A 
HETATM   11 CL   UNL     1       7.288  25.543  57.489  1.00  0.00    -0.081 Cl
HETATM   12  C   UNL     1       7.609  24.556  55.053  1.00  0.00     0.050 A 
HETATM   13  C   UNL     1       7.716  24.586  53.666  1.00  0.00     0.035 A 
HETATM   14 CL   UNL     1       7.834  23.114  52.783  1.00  0.00    -0.084 Cl
HETATM   15  C   UNL     1       7.713  25.799  52.990  1.00  0.00     0.026 A 
HETATM   16  C   UNL     1       7.609  26.985  53.717  1.00  0.00     0.040 A 
ENDBRANCH   8   9
ENDBRANCH   7   8
ENDBRANCH   6   7
ENDBRANCH   5   6
ENDBRANCH   2   5
BRANCH   1  17
HETATM   17  N   UNL     1       7.652  30.917  60.407  1.00  0.00    -0.262 N 
HETATM   18  C   UNL     1       8.218  30.923  61.665  1.00  0.00     0.290 C 
HETATM   19  O   UNL     1       9.254  30.312  61.933  1.00  0.00    -0.264 OA
HETATM   20  H   UNL     1       6.847  31.511  60.202  1.00  0.00     0.190 HD
BRANCH  18  21
HETATM   21  C   UNL     1       7.471  31.722  62.644  1.00  0.00     0.147 A 
HETATM   22  N   UNL     1       6.122  31.729  62.685  1.00  0.00    -0.169 NA
HETATM   23  N   UNL     1       5.828  32.557  63.702  1.00  0.00    -0.282 N 
HETATM   24  C   UNL     1       6.928  33.085  64.319  1.00  0.00     0.026 A 
HETATM   25  H   UNL     1       4.850  32.716  63.923  1.00  0.00     0.189 HD
HETATM   26  C   UNL     1       6.836  34.016  65.465  1.00  0.00     0.070 C 
HETATM   27  C   UNL     1       8.012  32.564  63.649  1.00  0.00     0.065 A 
ENDBRANCH  18  21
ENDBRANCH   1  17
TORSDOF 7
ENDMDL
MODEL 2
REMARK VINA RESULT:      -8.3      1.899      2.884
REMARK  7 active torsions:
REMARK  status: ('A' for Active; 'I' for Inactive)
REMARK    1  A    between atoms: C_6  and  C_7 
REMARK       I    between atoms: C_7  and  N_8 
REMARK    2  A    between atoms: N_8  and  N_9 
REMARK       I    between atoms: N_9  and  C_10 
REMARK    3  A    between atoms: C_10  and  C_11 
REMARK    4  A    between atoms: C_11  and  C_12 
REMARK    5  A    between atoms: C_12  and  C_13 
REMARK    6  A    between atoms: C_13  and  O_14 
REMARK    7  A    between atoms: O_14  and  C_15 
ROOT
HETATM    1  N   UNL     1       8.356  29.335  58.552  1.00  0.00    -0.267 N 
HETATM    2  C   UNL     1       7.391  29.088  57.596  1.00  0.00     0.236 C 
HETATM    3  O   UNL     1       6.207  29.380  57.740  1.00  0.00    -0.272 OA
HETATM    4  H   UNL     1       9.354  29.258  58.359  1.00  0.00     0.190 HD
ENDROOT
BRANCH   2   5
HETATM    5  C   UNL     1       7.951  28.390  56.374  1.00  0.00     0.107 C 
BRANCH   5   6
HETATM    6  C   UNL     1       6.929  27.538  55.628  1.00  0.00     0.036 C 
BRANCH   6   7
HETATM    7  C   UNL     1       6.769  26.140  56.230  1.00  0.00     0.176 C 
BRANCH   7   8
HETATM    8  O   UNL     1       7.973  25.423  55.970  1.00  0.00    -0.349 OA
BRANCH   8   9
HETATM    9  C   UNL     1       7.965  24.361  55.111  1.00  0.00     0.090 A 
HETATM   10  C   UNL     1       7.949  24.331  53.708  1.00  0.00     0.069 A 
HETATM   11 CL   UNL     1       7.971  25.724  52.685  1.00  0.00    -0.081 Cl
HETATM   12  C   UNL     1       7.969  23.099  53.033  1.00  0.00     0.050 A 
HETATM   13  C   UNL     1       8.021  21.904  53.744  1.00  0.00     0.035 A 
HETATM   14 CL   UNL     1       8.061  20.406  52.900  1.00  0.00    -0.084 Cl
HETATM   15  C   UNL     1       8.054  21.917  55.132  1.00  0.00     0.026 A 
HETATM   16  C   UNL     1       8.029  23.139  55.805  1.00  0.00     0.040 A 
ENDBRANCH   8   9
ENDBRANCH   7   8
ENDBRANCH   6   7
ENDBRANCH   5   6
ENDBRANCH   2   5
BRANCH   1  17
HETATM   17  N   UNL     1       8.005  30.075  59.682  1.00  0.00    -0.262 N 
HETATM   18  C   UNL     1       8.309  31.420  59.740  1.00  0.00     0.290 C 
HETATM   19  O   UNL     1       8.942  31.998  58.857  1.00  0.00    -0.264 OA
HETATM   20  H   UNL     1       7.398  29.654  60.387  1.00  0.00     0.190 HD
BRANCH  18  21
HETATM   21  C   UNL     1       7.807  32.085  60.948  1.00  0.00     0.147 A 
HETATM   22  N   UNL     1       6.726  32.892  60.927  1.00  0.00    -0.169 NA
HETATM   23  N   UNL     1       6.586  33.289  62.204  1.00  0.00    -0.282 N 
HETATM   24  C   UNL     1       7.530  32.775  63.048  1.00  0.00     0.026 A 
HETATM   25  H   UNL     1       5.819  33.915  62.430  1.00  0.00     0.189 HD
HETATM   26  C   UNL     1       7.562  33.076  64.495  1.00  0.00     0.070 C 
HETATM   27  C   UNL     1       8.341  31.991  62.259  1.00  0.00     0.065 A 
ENDBRANCH  18  21
ENDBRANCH   1  17
TORSDOF 7
ENDMDL
MODEL 3
REMARK VINA RESULT:      -8.3      1.602      2.385
REMARK  7 active torsions:
REMARK  status: ('A' for Active; 'I' for Inactive)
REMARK    1  A    between atoms: C_6  and  C_7 
REMARK       I    between atoms: C_7  and  N_8 
REMARK    2  A    between atoms: N_8  and  N_9 
REMARK       I    between atoms: N_9  and  C_10 
REMARK    3  A    between atoms: C_10  and  C_11 
REMARK    4  A    between atoms: C_11  and  C_12 
REMARK    5  A    between atoms: C_12  and  C_13 
REMARK    6  A    between atoms: C_13  and  O_14 
REMARK    7  A    between atoms: O_14  and  C_15 
ROOT
HETATM    1  N   UNL     1       7.202  30.221  57.558  1.00  0.00    -0.267 N 
HETATM    2  C   UNL     1       7.683  28.938  57.386  1.00  0.00     0.236 C 
HETATM    3  O   UNL     1       8.026  28.214  58.316  1.00  0.00    -0.272 OA
HETATM    4  H   UNL     1       6.754  30.746  56.809  1.00  0.00     0.190 HD
ENDROOT
BRANCH   2   5
HETATM    5  C   UNL     1       7.771  28.543  55.927  1.00  0.00     0.107 C 
BRANCH   5   6
HETATM    6  C   UNL     1       6.425  28.527  55.210  1.00  0.00     0.036 C 
BRANCH   6   7
HETATM    7  C   UNL     1       6.189  27.238  54.419  1.00  0.00     0.176 C 
BRANCH   7   8
HETATM    8  O   UNL     1       7.450  26.595  54.264  1.00  0.00    -0.349 OA
BRANCH   8   9
HETATM    9  C   UNL     1       7.522  25.232  54.207  1.00  0.00     0.090 A 
HETATM   10  C   UNL     1       7.343  24.273  55.217  1.00  0.00     0.069 A 
HETATM   11 CL   UNL     1       6.931  24.625  56.858  1.00  0.00    -0.081 Cl
HETATM   12  C   UNL     1       7.443  22.906  54.911  1.00  0.00     0.050 A 
HETATM   13  C   UNL     1       7.705  22.491  53.609  1.00  0.00     0.035 A 
HETATM   14 CL   UNL     1       7.809  20.812  53.249  1.00  0.00    -0.084 Cl
HETATM   15  C   UNL     1       7.868  23.426  52.596  1.00  0.00     0.026 A 
HETATM   16  C   UNL     1       7.773  24.785  52.898  1.00  0.00     0.040 A 
ENDBRANCH   8   9
ENDBRANCH   7   8
ENDBRANCH   6   7
ENDBRANCH   5   6
ENDBRANCH   2   5
BRANCH   1  17
HETATM   17  N   UNL     1       6.961  30.676  58.855  1.00  0.00    -0.262 N 
HETATM   18  C   UNL     1       7.807  31.606  59.422  1.00  0.00     0.290 C 
HETATM   19  O   UNL     1       8.820  32.018  58.856  1.00  0.00    -0.264 OA
HETATM   20  H   UNL     1       6.083  30.431  59.316  1.00  0.00     0.190 HD
BRANCH  18  21
HETATM   21  C   UNL     1       7.384  32.052  60.756  1.00  0.00     0.147 A 
HETATM   22  N   UNL     1       6.088  32.252  61.068  1.00  0.00    -0.169 NA
HETATM   23  N   UNL     1       6.114  32.638  62.355  1.00  0.00    -0.282 N 
HETATM   24  C   UNL     1       7.372  32.697  62.888  1.00  0.00     0.026 A 
HETATM   25  H   UNL     1       5.232  32.844  62.812  1.00  0.00     0.189 HD
HETATM   26  C   UNL     1       7.633  33.093  64.288  1.00  0.00     0.070 C 
HETATM   27  C   UNL     1       8.220  32.326  61.868  1.00  0.00     0.065 A 
ENDBRANCH  18  21
ENDBRANCH   1  17
TORSDOF 7
ENDMDL
MODEL 4
REMARK VINA RESULT:      -8.2      1.759      2.164
REMARK  7 active torsions:
REMARK  status: ('A' for Active; 'I' for Inactive)
REMARK    1  A    between atoms: C_6  and  C_7 
REMARK       I    between atoms: C_7  and  N_8 
REMARK    2  A    between atoms: N_8  and  N_9 
REMARK       I    between atoms: N_9  and  C_10 
REMARK    3  A    between atoms: C_10  and  C_11 
REMARK    4  A    between atoms: C_11  and  C_12 
REMARK    5  A    between atoms: C_12  and  C_13 
REMARK    6  A    between atoms: C_13  and  O_14 
REMARK    7  A    between atoms: O_14  and  C_15 
ROOT
HETATM    1  N   UNL     1       7.630  30.671  60.007  1.00  0.00    -0.267 N 
HETATM    2  C   UNL     1       8.575  31.261  59.191  1.00  0.00     0.236 C 
HETATM    3  O   UNL     1       8.894  32.443  59.271  1.00  0.00    -0.272 OA
HETATM    4  H   UNL     1       7.501  29.661  60.059  1.00  0.00     0.190 HD
ENDROOT
BRANCH   2   5
HETATM    5  C   UNL     1       9.142  30.295  58.171  1.00  0.00     0.107 C 
BRANCH   5   6
HETATM    6  C   UNL     1       8.124  29.294  57.636  1.00  0.00     0.036 C 
BRANCH   6   7
HETATM    7  C   UNL     1       8.768  27.993  57.153  1.00  0.00     0.176 C 
BRANCH   7   8
HETATM    8  O   UNL     1       8.099  26.917  57.805  1.00  0.00    -0.349 OA
BRANCH   8   9
HETATM    9  C   UNL     1       7.824  25.766  57.121  1.00  0.00     0.090 A 
HETATM   10  C   UNL     1       6.826  25.492  56.173  1.00  0.00     0.069 A 
HETATM   11 CL   UNL     1       5.665  26.636  55.596  1.00  0.00    -0.081 Cl
HETATM   12  C   UNL     1       6.754  24.222  55.578  1.00  0.00     0.050 A 
HETATM   13  C   UNL     1       7.676  23.233  55.909  1.00  0.00     0.035 A 
HETATM   14 CL   UNL     1       7.582  21.688  55.158  1.00  0.00    -0.084 Cl
HETATM   15  C   UNL     1       8.679  23.493  56.832  1.00  0.00     0.026 A 
HETATM   16  C   UNL     1       8.750  24.753  57.428  1.00  0.00     0.040 A 
ENDBRANCH   8   9
ENDBRANCH   7   8
ENDBRANCH   6   7
ENDBRANCH   5   6
ENDBRANCH   2   5
BRANCH   1  17
HETATM   17  N   UNL     1       7.107  31.412  61.068  1.00  0.00    -0.262 N 
HETATM   18  C   UNL     1       7.704  31.344  62.310  1.00  0.00     0.290 C 
HETATM   19  O   UNL     1       8.655  30.599  62.552  1.00  0.00    -0.264 OA
HETATM   20  H   UNL     1       6.384  32.109  60.883  1.00  0.00     0.190 HD
BRANCH  18  21
HETATM   21  C   UNL     1       7.099  32.237  63.305  1.00  0.00     0.147 A 
HETATM   22  N   UNL     1       7.843  33.004  64.129  1.00  0.00    -0.169 NA
HETATM   23  N   UNL     1       6.938  33.670  64.866  1.00  0.00    -0.282 N 
HETATM   24  C   UNL     1       5.642  33.366  64.556  1.00  0.00     0.026 A 
HETATM   25  H   UNL     1       7.276  34.322  65.567  1.00  0.00     0.189 HD
HETATM   26  C   UNL     1       4.486  33.985  65.239  1.00  0.00     0.070 C 
HETATM   27  C   UNL     1       5.715  32.432  63.546  1.00  0.00     0.065 A 
ENDBRANCH  18  21
ENDBRANCH   1  17
TORSDOF 7
ENDMDL
MODEL 5
REMARK VINA RESULT:      -8.1      2.666      4.272
REMARK  7 active torsions:
REMARK  status: ('A' for Active; 'I' for Inactive)
REMARK    1  A    between atoms: C_6  and  C_7 
REMARK       I    between atoms: C_7  and  N_8 
REMARK    2  A    between atoms: N_8  and  N_9 
REMARK       I    between atoms: N_9  and  C_10 
REMARK    3  A    between atoms: C_10  and  C_11 
REMARK    4  A    between atoms: C_11  and  C_12 
REMARK    5  A    between atoms: C_12  and  C_13 
REMARK    6  A    between atoms: C_13  and  O_14 
REMARK    7  A    between atoms: O_14  and  C_15 
ROOT
HETATM    1  N   UNL     1       8.642  28.708  55.776  1.00  0.00    -0.267 N 
HETATM    2  C   UNL     1       7.443  28.600  55.099  1.00  0.00     0.236 C 
HETATM    3  O   UNL     1       6.367  28.953  55.571  1.00  0.00    -0.272 OA
HETATM    4  H   UNL     1       9.545  28.585  55.319  1.00  0.00     0.190 HD
ENDROOT
BRANCH   2   5
HETATM    5  C   UNL     1       7.605  27.971  53.731  1.00  0.00     0.107 C 
BRANCH   5   6
HETATM    6  C   UNL     1       6.317  27.379  53.168  1.00  0.00     0.036 C 
BRANCH   6   7
HETATM    7  C   UNL     1       6.494  25.945  52.663  1.00  0.00     0.176 C 
BRANCH   7   8
HETATM    8  O   UNL     1       7.788  25.506  53.068  1.00  0.00    -0.349 OA
BRANCH   8   9
HETATM    9  C   UNL     1       7.933  24.319  53.730  1.00  0.00     0.090 A 
HETATM   10  C   UNL     1       8.038  24.056  55.104  1.00  0.00     0.069 A 
HETATM   11 CL   UNL     1       7.969  25.251  56.352  1.00  0.00    -0.081 Cl
HETATM   12  C   UNL     1       8.157  22.732  55.557  1.00  0.00     0.050 A 
HETATM   13  C   UNL     1       8.156  21.673  54.654  1.00  0.00     0.035 A 
HETATM   14 CL   UNL     1       8.287  20.057  55.228  1.00  0.00    -0.084 Cl
HETATM   15  C   UNL     1       8.036  21.916  53.293  1.00  0.00     0.026 A 
HETATM   16  C   UNL     1       7.923  23.231  52.840  1.00  0.00     0.040 A 
ENDBRANCH   8   9
ENDBRANCH   7   8
ENDBRANCH   6   7
ENDBRANCH   5   6
ENDBRANCH   2   5
BRANCH   1  17
HETATM   17  N   UNL     1       8.660  29.374  57.002  1.00  0.00    -0.262 N 
HETATM   18  C   UNL     1       9.720  30.199  57.317  1.00  0.00     0.290 C 
HETATM   19  O   UNL     1      10.701  30.333  56.583  1.00  0.00    -0.264 OA
HETATM   20  H   UNL     1       7.825  29.363  57.590  1.00  0.00     0.190 HD
BRANCH  18  21
HETATM   21  C   UNL     1       9.564  30.896  58.599  1.00  0.00     0.147 A 
HETATM   22  N   UNL     1      10.080  32.123  58.818  1.00  0.00    -0.169 NA
HETATM   23  N   UNL     1       9.721  32.412  60.080  1.00  0.00    -0.282 N 
HETATM   24  C   UNL     1       8.996  31.425  60.687  1.00  0.00     0.026 A 
HETATM   25  H   UNL     1      10.005  33.307  60.467  1.00  0.00     0.189 HD
HETATM   26  C   UNL     1       8.493  31.534  62.073  1.00  0.00     0.070 C 
HETATM   27  C   UNL     1       8.882  30.423  59.749  1.00  0.00     0.065 A 
ENDBRANCH  18  21
ENDBRANCH   1  17
TORSDOF 7
ENDMDL
MODEL 6
REMARK VINA RESULT:      -7.9      3.740      5.766
REMARK  7 active torsions:
REMARK  status: ('A' for Active; 'I' for Inactive)
REMARK    1  A    between atoms: C_6  and  C_7 
REMARK       I    between atoms: C_7  and  N_8 
REMARK    2  A    between atoms: N_8  and  N_9 
REMARK       I    between atoms: N_9  and  C_10 
REMARK    3  A    between atoms: C_10  and  C_11 
REMARK    4  A    between atoms: C_11  and  C_12 
REMARK    5  A    between atoms: C_12  and  C_13 
REMARK    6  A    between atoms: C_13  and  O_14 
REMARK    7  A    between atoms: O_14  and  C_15 
ROOT
HETATM    1  N   UNL     1       6.258  27.212  55.389  1.00  0.00    -0.267 N 
HETATM    2  C   UNL     1       6.346  27.238  54.011  1.00  0.00     0.236 C 
HETATM    3  O   UNL     1       6.868  28.156  53.385  1.00  0.00    -0.272 OA
HETATM    4  H   UNL     1       5.991  26.376  55.908  1.00  0.00     0.190 HD
ENDROOT
BRANCH   2   5
HETATM    5  C   UNL     1       5.700  26.030  53.366  1.00  0.00     0.107 C 
BRANCH   5   6
HETATM    6  C   UNL     1       6.480  25.471  52.181  1.00  0.00     0.036 C 
BRANCH   6   7
HETATM    7  C   UNL     1       7.939  25.161  52.525  1.00  0.00     0.176 C 
BRANCH   7   8
HETATM    8  O   UNL     1       8.101  23.747  52.463  1.00  0.00    -0.349 OA
BRANCH   8   9
HETATM    9  C   UNL     1       8.128  23.010  53.613  1.00  0.00     0.090 A 
HETATM   10  C   UNL     1       8.110  21.619  53.798  1.00  0.00     0.069 A 
HETATM   11 CL   UNL     1       8.082  20.449  52.526  1.00  0.00    -0.081 Cl
HETATM   12  C   UNL     1       8.171  21.083  55.095  1.00  0.00     0.050 A 
HETATM   13  C   UNL     1       8.265  21.921  56.202  1.00  0.00     0.035 A 
HETATM   14 CL   UNL     1       8.354  21.247  57.782  1.00  0.00    -0.084 Cl
HETATM   15  C   UNL     1       8.300  23.298  56.036  1.00  0.00     0.026 A 
HETATM   16  C   UNL     1       8.235  23.833  54.748  1.00  0.00     0.040 A 
ENDBRANCH   8   9
ENDBRANCH   7   8
ENDBRANCH   6   7
ENDBRANCH   5   6
ENDBRANCH   2   5
BRANCH   1  17
HETATM   17  N   UNL     1       6.911  28.205  56.120  1.00  0.00    -0.262 N 
HETATM   18  C   UNL     1       7.975  27.869  56.932  1.00  0.00     0.290 C 
HETATM   19  O   UNL     1       8.345  26.706  57.097  1.00  0.00    -0.264 OA
HETATM   20  H   UNL     1       6.696  29.186  55.935  1.00  0.00     0.190 HD
BRANCH  18  21
HETATM   21  C   UNL     1       8.615  29.024  57.573  1.00  0.00     0.147 A 
HETATM   22  N   UNL     1       9.911  29.334  57.364  1.00  0.00    -0.169 NA
HETATM   23  N   UNL     1      10.109  30.438  58.104  1.00  0.00    -0.282 N 
HETATM   24  C   UNL     1       8.998  30.854  58.784  1.00  0.00     0.026 A 
HETATM   25  H   UNL     1      11.033  30.860  58.098  1.00  0.00     0.189 HD
HETATM   26  C   UNL     1       8.990  32.048  59.655  1.00  0.00     0.070 C 
HETATM   27  C   UNL     1       8.011  29.950  58.462  1.00  0.00     0.065 A 
ENDBRANCH  18  21
ENDBRANCH   1  17
TORSDOF 7
ENDMDL
MODEL 7
REMARK VINA RESULT:      -7.7      4.645     10.123
REMARK  7 active torsions:
REMARK  status: ('A' for Active; 'I' for Inactive)
REMARK    1  A    between atoms: C_6  and  C_7 
REMARK       I    between atoms: C_7  and  N_8 
REMARK    2  A    between atoms: N_8  and  N_9 
REMARK       I    between atoms: N_9  and  C_10 
REMARK    3  A    between atoms: C_10  and  C_11 
REMARK    4  A    between atoms: C_11  and  C_12 
REMARK    5  A    between atoms: C_12  and  C_13 
REMARK    6  A    between atoms: C_13  and  O_14 
REMARK    7  A    between atoms: O_14  and  C_15 
ROOT
HETATM    1  N   UNL     1       5.925  26.632  55.682  1.00  0.00    -0.267 N 
HETATM    2  C   UNL     1       6.517  27.445  56.629  1.00  0.00     0.236 C 
HETATM    3  O   UNL     1       7.444  27.082  57.347  1.00  0.00    -0.272 OA
HETATM    4  H   UNL     1       5.287  26.989  54.972  1.00  0.00     0.190 HD
ENDROOT
BRANCH   2   5
HETATM    5  C   UNL     1       5.872  28.813  56.703  1.00  0.00     0.107 C 
BRANCH   5   6
HETATM    6  C   UNL     1       6.669  29.828  57.516  1.00  0.00     0.036 C 
BRANCH   6   7
HETATM    7  C   UNL     1       5.821  31.014  57.981  1.00  0.00     0.176 C 
BRANCH   7   8
HETATM    8  O   UNL     1       6.714  32.070  58.322  1.00  0.00    -0.349 OA
BRANCH   8   9
HETATM    9  C   UNL     1       7.171  32.192  59.604  1.00  0.00     0.090 A 
HETATM   10  C   UNL     1       8.473  32.075  60.115  1.00  0.00     0.069 A 
HETATM   11 CL   UNL     1       9.887  31.764  59.170  1.00  0.00    -0.081 Cl
HETATM   12  C   UNL     1       8.708  32.270  61.486  1.00  0.00     0.050 A 
HETATM   13  C   UNL     1       7.661  32.593  62.344  1.00  0.00     0.035 A 
HETATM   14 CL   UNL     1       7.969  32.843  64.018  1.00  0.00    -0.084 Cl
HETATM   15  C   UNL     1       6.370  32.728  61.851  1.00  0.00     0.026 A 
HETATM   16  C   UNL     1       6.134  32.531  60.490  1.00  0.00     0.040 A 
ENDBRANCH   8   9
ENDBRANCH   7   8
ENDBRANCH   6   7
ENDBRANCH   5   6
ENDBRANCH   2   5
BRANCH   1  17
HETATM   17  N   UNL     1       6.492  25.383  55.426  1.00  0.00    -0.262 N 
HETATM   18  C   UNL     1       7.373  25.234  54.374  1.00  0.00     0.290 C 
HETATM   19  O   UNL     1       7.643  26.150  53.597  1.00  0.00    -0.264 OA
HETATM   20  H   UNL     1       6.367  24.629  56.103  1.00  0.00     0.190 HD
BRANCH  18  21
HETATM   21  C   UNL     1       7.951  23.888  54.276  1.00  0.00     0.147 A 
HETATM   22  N   UNL     1       8.835  23.419  55.180  1.00  0.00    -0.169 NA
HETATM   23  N   UNL     1       9.113  22.175  54.754  1.00  0.00    -0.282 N 
HETATM   24  C   UNL     1       8.447  21.820  53.614  1.00  0.00     0.026 A 
HETATM   25  H   UNL     1       9.768  21.618  55.294  1.00  0.00     0.189 HD
HETATM   26  C   UNL     1       8.599  20.496  52.974  1.00  0.00     0.070 C 
HETATM   27  C   UNL     1       7.687  22.917  53.276  1.00  0.00     0.065 A 
ENDBRANCH  18  21
ENDBRANCH   1  17
TORSDOF 7
ENDMDL
MODEL 8
REMARK VINA RESULT:      -7.7      6.146      9.456
REMARK  7 active torsions:
REMARK  status: ('A' for Active; 'I' for Inactive)
REMARK    1  A    between atoms: C_6  and  C_7 
REMARK       I    between atoms: C_7  and  N_8 
REMARK    2  A    between atoms: N_8  and  N_9 
REMARK       I    between atoms: N_9  and  C_10 
REMARK    3  A    between atoms: C_10  and  C_11 
REMARK    4  A    between atoms: C_11  and  C_12 
REMARK    5  A    between atoms: C_12  and  C_13 
REMARK    6  A    between atoms: C_13  and  O_14 
REMARK    7  A    between atoms: O_14  and  C_15 
ROOT
HETATM    1  N   UNL     1       6.118  28.344  53.321  1.00  0.00    -0.267 N 
HETATM    2  C   UNL     1       5.599  28.567  54.582  1.00  0.00     0.236 C 
HETATM    3  O   UNL     1       4.404  28.477  54.847  1.00  0.00    -0.272 OA
HETATM    4  H   UNL     1       7.117  28.244  53.147  1.00  0.00     0.190 HD
ENDROOT
BRANCH   2   5
HETATM    5  C   UNL     1       6.663  28.966  55.584  1.00  0.00     0.107 C 
BRANCH   5   6
HETATM    6  C   UNL     1       7.230  27.796  56.381  1.00  0.00     0.036 C 
BRANCH   6   7
HETATM    7  C   UNL     1       6.787  26.436  55.836  1.00  0.00     0.176 C 
BRANCH   7   8
HETATM    8  O   UNL     1       7.709  26.064  54.816  1.00  0.00    -0.349 OA
BRANCH   8   9
HETATM    9  C   UNL     1       7.918  24.745  54.530  1.00  0.00     0.090 A 
HETATM   10  C   UNL     1       8.427  23.714  55.335  1.00  0.00     0.069 A 
HETATM   11 CL   UNL     1       8.900  23.887  56.989  1.00  0.00    -0.081 Cl
HETATM   12  C   UNL     1       8.529  22.410  54.823  1.00  0.00     0.050 A 
HETATM   13  C   UNL     1       8.116  22.126  53.525  1.00  0.00     0.035 A 
HETATM   14 CL   UNL     1       8.235  20.520  52.919  1.00  0.00    -0.084 Cl
HETATM   15  C   UNL     1       7.596  23.131  52.721  1.00  0.00     0.026 A 
HETATM   16  C   UNL     1       7.498  24.428  53.226  1.00  0.00     0.040 A 
ENDBRANCH   8   9
ENDBRANCH   7   8
ENDBRANCH   6   7
ENDBRANCH   5   6
ENDBRANCH   2   5
BRANCH   1  17
HETATM   17  N   UNL     1       5.269  27.859  52.326  1.00  0.00    -0.262 N 
HETATM   18  C   UNL     1       5.254  28.464  51.086  1.00  0.00     0.290 C 
HETATM   19  O   UNL     1       5.918  29.468  50.826  1.00  0.00    -0.264 OA
HETATM   20  H   UNL     1       4.779  26.975  52.473  1.00  0.00     0.190 HD
BRANCH  18  21
HETATM   21  C   UNL     1       4.376  27.797  50.116  1.00  0.00     0.147 A 
HETATM   22  N   UNL     1       3.198  28.329  49.730  1.00  0.00    -0.169 NA
HETATM   23  N   UNL     1       2.710  27.442  48.846  1.00  0.00    -0.282 N 
HETATM   24  C   UNL     1       3.521  26.360  48.645  1.00  0.00     0.026 A 
HETATM   25  H   UNL     1       1.813  27.640  48.413  1.00  0.00     0.189 HD
HETATM   26  C   UNL     1       3.182  25.265  47.711  1.00  0.00     0.070 C 
HETATM   27  C   UNL     1       4.611  26.561  49.462  1.00  0.00     0.065 A 
ENDBRANCH  18  21
ENDBRANCH   1  17
TORSDOF 7
ENDMDL
MODEL 9
REMARK VINA RESULT:      -7.7      2.367      2.955
REMARK  7 active torsions:
REMARK  status: ('A' for Active; 'I' for Inactive)
REMARK    1  A    between atoms: C_6  and  C_7 
REMARK       I    between atoms: C_7  and  N_8 
REMARK    2  A    between atoms: N_8  and  N_9 
REMARK       I    between atoms: N_9  and  C_10 
REMARK    3  A    between atoms: C_10  and  C_11 
REMARK    4  A    between atoms: C_11  and  C_12 
REMARK    5  A    between atoms: C_12  and  C_13 
REMARK    6  A    between atoms: C_13  and  O_14 
REMARK    7  A    between atoms: O_14  and  C_15 
ROOT
HETATM    1  N   UNL     1       6.583  30.224  58.376  1.00  0.00    -0.267 N 
HETATM    2  C   UNL     1       7.506  29.237  58.092  1.00  0.00     0.236 C 
HETATM    3  O   UNL     1       8.508  29.032  58.771  1.00  0.00    -0.272 OA
HETATM    4  H   UNL     1       5.672  30.273  57.922  1.00  0.00     0.190 HD
ENDROOT
BRANCH   2   5
HETATM    5  C   UNL     1       7.160  28.464  56.836  1.00  0.00     0.107 C 
BRANCH   5   6
HETATM    6  C   UNL     1       6.814  27.000  57.088  1.00  0.00     0.036 C 
BRANCH   6   7
HETATM    7  C   UNL     1       7.783  26.034  56.402  1.00  0.00     0.176 C 
BRANCH   7   8
HETATM    8  O   UNL     1       7.424  24.714  56.800  1.00  0.00    -0.349 OA
BRANCH   8   9
HETATM    9  C   UNL     1       7.652  23.661  55.960  1.00  0.00     0.090 A 
HETATM   10  C   UNL     1       8.085  22.356  56.242  1.00  0.00     0.069 A 
HETATM   11 CL   UNL     1       8.415  21.739  57.823  1.00  0.00    -0.081 Cl
HETATM   12  C   UNL     1       8.226  21.424  55.201  1.00  0.00     0.050 A 
HETATM   13  C   UNL     1       7.925  21.778  53.889  1.00  0.00     0.035 A 
HETATM   14 CL   UNL     1       8.088  20.619  52.628  1.00  0.00    -0.084 Cl
HETATM   15  C   UNL     1       7.480  23.060  53.596  1.00  0.00     0.026 A 
HETATM   16  C   UNL     1       7.344  23.989  54.628  1.00  0.00     0.040 A 
ENDBRANCH   8   9
ENDBRANCH   7   8
ENDBRANCH   6   7
ENDBRANCH   5   6
ENDBRANCH   2   5
BRANCH   1  17
HETATM   17  N   UNL     1       6.715  30.939  59.567  1.00  0.00    -0.262 N 
HETATM   18  C   UNL     1       6.369  32.275  59.604  1.00  0.00     0.290 C 
HETATM   19  O   UNL     1       6.002  32.896  58.606  1.00  0.00    -0.264 OA
HETATM   20  H   UNL     1       6.923  30.437  60.432  1.00  0.00     0.190 HD
BRANCH  18  21
HETATM   21  C   UNL     1       6.481  32.875  60.939  1.00  0.00     0.147 A 
HETATM   22  N   UNL     1       5.798  33.984  61.288  1.00  0.00    -0.169 NA
HETATM   23  N   UNL     1       6.156  34.205  62.564  1.00  0.00    -0.282 N 
HETATM   24  C   UNL     1       7.042  33.287  63.056  1.00  0.00     0.026 A 
HETATM   25  H   UNL     1       5.754  35.005  63.043  1.00  0.00     0.189 HD
HETATM   26  C   UNL     1       7.565  33.336  64.437  1.00  0.00     0.070 C 
HETATM   27  C   UNL     1       7.276  32.411  62.019  1.00  0.00     0.065 A 
ENDBRANCH  18  21
ENDBRANCH   1  17
TORSDOF 7
ENDMDL
MODEL 10
REMARK VINA RESULT:      -7.6      5.683      8.913
REMARK  7 active torsions:
REMARK  status: ('A' for Active; 'I' for Inactive)
REMARK    1  A    between atoms: C_6  and  C_7 
REMARK       I    between atoms: C_7  and  N_8 
REMARK    2  A    between atoms: N_8  and  N_9 
REMARK       I    between atoms: N_9  and  C_10 
REMARK    3  A    between atoms: C_10  and  C_11 
REMARK    4  A    between atoms: C_11  and  C_12 
REMARK    5  A    between atoms: C_12  and  C_13 
REMARK    6  A    between atoms: C_13  and  O_14 
REMARK    7  A    between atoms: O_14  and  C_15 
ROOT
HETATM    1  N   UNL     1       5.835  28.028  54.739  1.00  0.00    -0.267 N 
HETATM    2  C   UNL     1       7.132  28.261  55.153  1.00  0.00     0.236 C 
HETATM    3  O   UNL     1       8.058  28.483  54.380  1.00  0.00    -0.272 OA
HETATM    4  H   UNL     1       5.044  28.024  55.382  1.00  0.00     0.190 HD
ENDROOT
BRANCH   2   5
HETATM    5  C   UNL     1       7.283  28.177  56.658  1.00  0.00     0.107 C 
BRANCH   5   6
HETATM    6  C   UNL     1       8.114  26.988  57.129  1.00  0.00     0.036 C 
BRANCH   6   7
HETATM    7  C   UNL     1       7.427  25.645  56.875  1.00  0.00     0.176 C 
BRANCH   7   8
HETATM    8  O   UNL     1       7.214  25.533  55.471  1.00  0.00    -0.349 OA
BRANCH   8   9
HETATM    9  C   UNL     1       7.506  24.364  54.826  1.00  0.00     0.090 A 
HETATM   10  C   UNL     1       7.859  24.133  53.487  1.00  0.00     0.069 A 
HETATM   11 CL   UNL     1       8.048  25.361  52.284  1.00  0.00    -0.081 Cl
HETATM   12  C   UNL     1       8.142  22.828  53.052  1.00  0.00     0.050 A 
HETATM   13  C   UNL     1       8.090  21.760  53.942  1.00  0.00     0.035 A 
HETATM   14 CL   UNL     1       8.455  20.170  53.395  1.00  0.00    -0.084 Cl
HETATM   15  C   UNL     1       7.759  21.974  55.273  1.00  0.00     0.026 A 
HETATM   16  C   UNL     1       7.473  23.269  55.706  1.00  0.00     0.040 A 
ENDBRANCH   8   9
ENDBRANCH   7   8
ENDBRANCH   6   7
ENDBRANCH   5   6
ENDBRANCH   2   5
BRANCH   1  17
HETATM   17  N   UNL     1       5.526  28.187  53.388  1.00  0.00    -0.262 N 
HETATM   18  C   UNL     1       4.961  27.140  52.688  1.00  0.00     0.290 C 
HETATM   19  O   UNL     1       4.768  26.031  53.188  1.00  0.00    -0.264 OA
HETATM   20  H   UNL     1       5.582  29.115  52.967  1.00  0.00     0.190 HD
BRANCH  18  21
HETATM   21  C   UNL     1       4.616  27.477  51.301  1.00  0.00     0.147 A 
HETATM   22  N   UNL     1       3.938  28.599  50.982  1.00  0.00    -0.169 NA
HETATM   23  N   UNL     1       3.831  28.549  49.644  1.00  0.00    -0.282 N 
HETATM   24  C   UNL     1       4.408  27.444  49.084  1.00  0.00     0.026 A 
HETATM   25  H   UNL     1       3.349  29.309  49.173  1.00  0.00     0.189 HD
HETATM   26  C   UNL     1       4.411  27.190  47.627  1.00  0.00     0.070 C 
HETATM   27  C   UNL     1       4.923  26.724  50.139  1.00  0.00     0.065 A 
ENDBRANCH  18  21
ENDBRANCH   1  17
TORSDOF 7
ENDMDL
