MODEL 1
REMARK VINA RESULT:     -12.1      0.000      0.000
REMARK  7 active torsions:
REMARK  status: ('A' for Active; 'I' for Inactive)
REMARK    1  A    between atoms: C_2  and  C_3 
REMARK    2  A    between atoms: C_4  and  N_5 
REMARK    3  A    between atoms: N_5  and  C_6 
REMARK    4  A    between atoms: C_8  and  N_9 
REMARK    5  A    between atoms: C_11  and  C_12 
REMARK    6  A    between atoms: C_12  and  N_13 
REMARK    7  A    between atoms: C_17  and  C_18 
ROOT
HETATM    1  C   UNL     1       6.996  29.360  56.105  1.00  0.00     0.218 C 
ENDROOT
BRANCH   1   2
HETATM    2  C   UNL     1       6.391  30.289  57.135  1.00  0.00     0.166 A 
HETATM    3  N   UNL     1       5.064  30.420  57.110  1.00  0.00    -0.200 NA
HETATM    4  C   UNL     1       4.570  31.275  57.986  1.00  0.00     0.219 A 
HETATM    5  N   UNL     1       5.281  31.953  58.867  1.00  0.00    -0.031 NA
HETATM    6  C   UNL     1       6.594  31.746  58.846  1.00  0.00     0.731 A 
HETATM    7  N   UNL     1       7.194  30.891  58.021  1.00  0.00    -0.045 NA
BRANCH   4   8
HETATM    8  N   UNL     1       3.200  31.439  58.014  1.00  0.00    -0.270 NA
HETATM    9  H   UNL     1       2.913  31.768  58.926  1.00  0.00     0.127 HD
HETATM   10  H   UNL     1       2.738  30.616  57.654  1.00  0.00     0.127 HD
ENDBRANCH   4   8
BRANCH   6  11
HETATM   11  N   UNL     1       7.423  32.407  59.753  1.00  0.00    -0.188 N 
HETATM   12  H   UNL     1       7.999  33.074  59.260  1.00  0.00     0.184 HD
BRANCH  11  13
HETATM   13  C   UNL     1       7.237  32.681  61.123  1.00  0.00     0.055 A 
HETATM   14  C   UNL     1       8.243  32.347  62.059  1.00  0.00    -0.031 A 
HETATM   15  C   UNL     1       8.033  32.605  63.428  1.00  0.00     0.009 A 
HETATM   16  C   UNL     1       6.848  33.182  63.878  1.00  0.00     0.001 A 
HETATM   17  C   UNL     1       5.851  33.497  62.965  1.00  0.00     0.002 A 
HETATM   18  C   UNL     1       6.042  33.240  61.606  1.00  0.00     0.030 A 
BRANCH  14  19
HETATM   19  C   UNL     1       9.524  31.648  61.659  1.00  0.00     0.036 C 
HETATM   20  C   UNL     1       9.497  30.172  62.031  1.00  0.00     0.010 C 
ENDBRANCH  14  19
ENDBRANCH  11  13
ENDBRANCH   6  11
ENDBRANCH   1   2
BRANCH   1  21
HETATM   21  N   UNL     1       6.875  27.951  56.411  1.00  0.00    -0.260 N 
HETATM   22  C   UNL     1       7.587  27.330  57.382  1.00  0.00     0.326 C 
HETATM   23  O   UNL     1       8.486  27.799  58.060  1.00  0.00    -0.247 OA
HETATM   24  N   UNL     1       7.097  26.058  57.544  1.00  0.00    -0.321 N 
HETATM   25  C   UNL     1       6.081  25.721  56.569  1.00  0.00     0.140 C 
HETATM   26  H   UNL     1       7.572  25.405  58.153  1.00  0.00     0.165 HD
HETATM   27  C   UNL     1       5.858  27.141  55.990  1.00  0.00     0.261 C 
HETATM   28  C   UNL     1       4.795  25.238  57.237  1.00  0.00     0.054 C 
HETATM   29  O   UNL     1       4.927  27.476  55.267  1.00  0.00    -0.270 OA
BRANCH  25  30
HETATM   30  C   UNL     1       6.639  24.702  55.579  1.00  0.00    -0.020 A 
HETATM   31  C   UNL     1       7.096  23.431  55.973  1.00  0.00     0.022 A 
HETATM   32  C   UNL     1       7.559  22.490  55.035  1.00  0.00    -0.025 A 
HETATM   33  C   UNL     1       7.580  22.827  53.663  1.00  0.00    -0.026 A 
HETATM   34  C   UNL     1       8.001  21.216  55.430  1.00  0.00     0.012 A 
HETATM   35  C   UNL     1       7.154  24.100  53.268  1.00  0.00     0.013 A 
HETATM   36  C   UNL     1       8.025  21.882  52.725  1.00  0.00     0.012 A 
HETATM   37  C   UNL     1       6.695  25.023  54.211  1.00  0.00     0.011 A 
HETATM   38  C   UNL     1       8.447  20.616  53.134  1.00  0.00     0.001 A 
HETATM   39  C   UNL     1       8.438  20.285  54.487  1.00  0.00     0.001 A 
ENDBRANCH  25  30
ENDBRANCH   1  21
TORSDOF 7
ENDMDL
MODEL 2
REMARK VINA RESULT:     -11.7      0.900      1.737
REMARK  7 active torsions:
REMARK  status: ('A' for Active; 'I' for Inactive)
REMARK    1  A    between atoms: C_2  and  C_3 
REMARK    2  A    between atoms: C_4  and  N_5 
REMARK    3  A    between atoms: N_5  and  C_6 
REMARK    4  A    between atoms: C_8  and  N_9 
REMARK    5  A    between atoms: C_11  and  C_12 
REMARK    6  A    between atoms: C_12  and  N_13 
REMARK    7  A    between atoms: C_17  and  C_18 
ROOT
HETATM    1  C   UNL     1       7.055  29.256  55.730  1.00  0.00     0.218 C 
ENDROOT
BRANCH   1   2
HETATM    2  C   UNL     1       6.165  30.214  56.492  1.00  0.00     0.166 A 
HETATM    3  N   UNL     1       5.110  30.694  55.833  1.00  0.00    -0.200 NA
HETATM    4  C   UNL     1       4.380  31.565  56.505  1.00  0.00     0.219 A 
HETATM    5  N   UNL     1       4.608  31.946  57.747  1.00  0.00    -0.031 NA
HETATM    6  C   UNL     1       5.664  31.401  58.344  1.00  0.00     0.731 A 
HETATM    7  N   UNL     1       6.452  30.497  57.768  1.00  0.00    -0.045 NA
BRANCH   4   8
HETATM    8  N   UNL     1       3.266  32.084  55.876  1.00  0.00    -0.270 NA
HETATM    9  H   UNL     1       3.545  32.593  55.049  1.00  0.00     0.127 HD
HETATM   10  H   UNL     1       2.679  32.568  56.540  1.00  0.00     0.127 HD
ENDBRANCH   4   8
BRANCH   6  11
HETATM   11  N   UNL     1       5.972  31.732  59.664  1.00  0.00    -0.188 N 
HETATM   12  H   UNL     1       5.193  31.495  60.262  1.00  0.00     0.184 HD
BRANCH  11  13
HETATM   13  C   UNL     1       7.218  31.812  60.315  1.00  0.00     0.055 A 
HETATM   14  C   UNL     1       7.284  31.838  61.727  1.00  0.00    -0.031 A 
HETATM   15  C   UNL     1       8.536  31.942  62.364  1.00  0.00     0.009 A 
HETATM   16  C   UNL     1       9.714  32.023  61.625  1.00  0.00     0.001 A 
HETATM   17  C   UNL     1       9.655  32.013  60.239  1.00  0.00     0.002 A 
HETATM   18  C   UNL     1       8.420  31.918  59.594  1.00  0.00     0.030 A 
BRANCH  14  19
HETATM   19  C   UNL     1       6.046  31.834  62.597  1.00  0.00     0.036 C 
HETATM   20  C   UNL     1       6.190  32.779  63.783  1.00  0.00     0.010 C 
ENDBRANCH  14  19
ENDBRANCH  11  13
ENDBRANCH   6  11
ENDBRANCH   1   2
BRANCH   1  21
HETATM   21  N   UNL     1       6.945  27.871  56.134  1.00  0.00    -0.260 N 
HETATM   22  C   UNL     1       7.683  27.318  57.127  1.00  0.00     0.326 C 
HETATM   23  O   UNL     1       8.599  27.833  57.748  1.00  0.00    -0.247 OA
HETATM   24  N   UNL     1       7.202  26.060  57.388  1.00  0.00    -0.321 N 
HETATM   25  C   UNL     1       6.161  25.657  56.464  1.00  0.00     0.140 C 
HETATM   26  H   UNL     1       7.693  25.450  58.027  1.00  0.00     0.165 HD
HETATM   27  C   UNL     1       5.920  27.033  55.795  1.00  0.00     0.261 C 
HETATM   28  C   UNL     1       4.895  25.219  57.196  1.00  0.00     0.054 C 
HETATM   29  O   UNL     1       4.970  27.318  55.075  1.00  0.00    -0.270 OA
BRANCH  25  30
HETATM   30  C   UNL     1       6.697  24.573  55.532  1.00  0.00    -0.020 A 
HETATM   31  C   UNL     1       7.237  23.363  56.004  1.00  0.00     0.022 A 
HETATM   32  C   UNL     1       7.677  22.357  55.123  1.00  0.00    -0.025 A 
HETATM   33  C   UNL     1       7.589  22.567  53.729  1.00  0.00    -0.026 A 
HETATM   34  C   UNL     1       8.202  21.144  55.598  1.00  0.00     0.012 A 
HETATM   35  C   UNL     1       7.080  23.781  53.253  1.00  0.00     0.013 A 
HETATM   36  C   UNL     1       8.011  21.557  52.849  1.00  0.00     0.012 A 
HETATM   37  C   UNL     1       6.645  24.768  54.139  1.00  0.00     0.011 A 
HETATM   38  C   UNL     1       8.518  20.353  53.338  1.00  0.00     0.001 A 
HETATM   39  C   UNL     1       8.615  20.148  54.713  1.00  0.00     0.001 A 
ENDBRANCH  25  30
ENDBRANCH   1  21
TORSDOF 7
ENDMDL
MODEL 3
REMARK VINA RESULT:     -11.6      1.216      1.735
REMARK  7 active torsions:
REMARK  status: ('A' for Active; 'I' for Inactive)
REMARK    1  A    between atoms: C_2  and  C_3 
REMARK    2  A    between atoms: C_4  and  N_5 
REMARK    3  A    between atoms: N_5  and  C_6 
REMARK    4  A    between atoms: C_8  and  N_9 
REMARK    5  A    between atoms: C_11  and  C_12 
REMARK    6  A    between atoms: C_12  and  N_13 
REMARK    7  A    between atoms: C_17  and  C_18 
ROOT
HETATM    1  C   UNL     1       7.167  28.048  57.678  1.00  0.00     0.218 C 
ENDROOT
BRANCH   1   2
HETATM    2  C   UNL     1       6.774  29.506  57.780  1.00  0.00     0.166 A 
HETATM    3  N   UNL     1       5.812  29.920  56.954  1.00  0.00    -0.200 NA
HETATM    4  C   UNL     1       5.526  31.207  57.031  1.00  0.00     0.219 A 
HETATM    5  N   UNL     1       6.091  32.060  57.862  1.00  0.00    -0.031 NA
HETATM    6  C   UNL     1       7.022  31.563  58.671  1.00  0.00     0.731 A 
HETATM    7  N   UNL     1       7.371  30.279  58.694  1.00  0.00    -0.045 NA
BRANCH   4   8
HETATM    8  N   UNL     1       4.526  31.687  56.209  1.00  0.00    -0.270 NA
HETATM    9  H   UNL     1       4.012  30.915  55.807  1.00  0.00     0.127 HD
HETATM   10  H   UNL     1       4.895  32.378  55.571  1.00  0.00     0.127 HD
ENDBRANCH   4   8
BRANCH   6  11
HETATM   11  N   UNL     1       7.661  32.390  59.595  1.00  0.00    -0.188 N 
HETATM   12  H   UNL     1       8.100  33.162  59.112  1.00  0.00     0.184 HD
BRANCH  11  13
HETATM   13  C   UNL     1       7.377  32.626  60.955  1.00  0.00     0.055 A 
HETATM   14  C   UNL     1       8.310  32.260  61.952  1.00  0.00    -0.031 A 
HETATM   15  C   UNL     1       8.001  32.480  63.309  1.00  0.00     0.009 A 
HETATM   16  C   UNL     1       6.789  33.052  63.687  1.00  0.00     0.001 A 
HETATM   17  C   UNL     1       5.863  33.400  62.714  1.00  0.00     0.002 A 
HETATM   18  C   UNL     1       6.152  33.179  61.365  1.00  0.00     0.030 A 
BRANCH  14  19
HETATM   19  C   UNL     1       9.613  31.563  61.627  1.00  0.00     0.036 C 
HETATM   20  C   UNL     1       9.630  30.133  62.149  1.00  0.00     0.010 C 
ENDBRANCH  14  19
ENDBRANCH  11  13
ENDBRANCH   6  11
ENDBRANCH   1   2
BRANCH   1  21
HETATM   21  N   UNL     1       6.666  27.363  56.506  1.00  0.00    -0.260 N 
HETATM   22  C   UNL     1       5.425  26.826  56.424  1.00  0.00     0.326 C 
HETATM   23  O   UNL     1       4.594  26.733  57.312  1.00  0.00    -0.247 OA
HETATM   24  N   UNL     1       5.199  26.432  55.128  1.00  0.00    -0.321 N 
HETATM   25  C   UNL     1       6.368  26.583  54.286  1.00  0.00     0.140 C 
HETATM   26  H   UNL     1       4.364  25.911  54.894  1.00  0.00     0.165 HD
HETATM   27  C   UNL     1       7.233  27.416  55.263  1.00  0.00     0.261 C 
HETATM   28  C   UNL     1       6.063  27.415  53.042  1.00  0.00     0.054 C 
HETATM   29  O   UNL     1       8.261  28.016  54.970  1.00  0.00    -0.270 OA
BRANCH  25  30
HETATM   30  C   UNL     1       6.930  25.206  53.940  1.00  0.00    -0.020 A 
HETATM   31  C   UNL     1       6.994  24.154  54.871  1.00  0.00     0.022 A 
HETATM   32  C   UNL     1       7.470  22.879  54.513  1.00  0.00    -0.025 A 
HETATM   33  C   UNL     1       7.908  22.646  53.191  1.00  0.00    -0.026 A 
HETATM   34  C   UNL     1       7.518  21.827  55.442  1.00  0.00     0.012 A 
HETATM   35  C   UNL     1       7.875  23.697  52.267  1.00  0.00     0.013 A 
HETATM   36  C   UNL     1       8.367  21.370  52.828  1.00  0.00     0.012 A 
HETATM   37  C   UNL     1       7.398  24.957  52.636  1.00  0.00     0.011 A 
HETATM   38  C   UNL     1       8.395  20.332  53.761  1.00  0.00     0.001 A 
HETATM   39  C   UNL     1       7.973  20.562  55.068  1.00  0.00     0.001 A 
ENDBRANCH  25  30
ENDBRANCH   1  21
TORSDOF 7
ENDMDL
MODEL 4
REMARK VINA RESULT:     -11.4      1.551      2.423
REMARK  7 active torsions:
REMARK  status: ('A' for Active; 'I' for Inactive)
REMARK    1  A    between atoms: C_2  and  C_3 
REMARK    2  A    between atoms: C_4  and  N_5 
REMARK    3  A    between atoms: N_5  and  C_6 
REMARK    4  A    between atoms: C_8  and  N_9 
REMARK    5  A    between atoms: C_11  and  C_12 
REMARK    6  A    between atoms: C_12  and  N_13 
REMARK    7  A    between atoms: C_17  and  C_18 
ROOT
HETATM    1  C   UNL     1       4.979  28.191  57.108  1.00  0.00     0.218 C 
ENDROOT
BRANCH   1   2
HETATM    2  C   UNL     1       4.932  29.682  57.364  1.00  0.00     0.166 A 
HETATM    3  N   UNL     1       3.813  30.310  57.002  1.00  0.00    -0.200 NA
HETATM    4  C   UNL     1       3.820  31.617  57.191  1.00  0.00     0.219 A 
HETATM    5  N   UNL     1       4.815  32.300  57.721  1.00  0.00    -0.031 NA
HETATM    6  C   UNL     1       5.885  31.596  58.081  1.00  0.00     0.731 A 
HETATM    7  N   UNL     1       5.974  30.275  57.958  1.00  0.00    -0.045 NA
BRANCH   4   8
HETATM    8  N   UNL     1       2.681  32.317  56.847  1.00  0.00    -0.270 NA
HETATM    9  H   UNL     1       2.152  31.796  56.161  1.00  0.00     0.127 HD
HETATM   10  H   UNL     1       2.909  33.276  56.624  1.00  0.00     0.127 HD
ENDBRANCH   4   8
BRANCH   6  11
HETATM   11  N   UNL     1       6.979  32.234  58.667  1.00  0.00    -0.188 N 
HETATM   12  H   UNL     1       7.125  33.130  58.224  1.00  0.00     0.184 HD
BRANCH  11  13
HETATM   13  C   UNL     1       7.508  32.122  59.968  1.00  0.00     0.055 A 
HETATM   14  C   UNL     1       8.892  31.905  60.158  1.00  0.00    -0.031 A 
HETATM   15  C   UNL     1       9.403  31.771  61.464  1.00  0.00     0.009 A 
HETATM   16  C   UNL     1       8.567  31.846  62.574  1.00  0.00     0.001 A 
HETATM   17  C   UNL     1       7.205  32.044  62.394  1.00  0.00     0.002 A 
HETATM   18  C   UNL     1       6.684  32.170  61.104  1.00  0.00     0.030 A 
BRANCH  14  19
HETATM   19  C   UNL     1       9.853  31.733  59.001  1.00  0.00     0.036 C 
HETATM   20  C   UNL     1       9.809  30.318  58.440  1.00  0.00     0.010 C 
ENDBRANCH  14  19
ENDBRANCH  11  13
ENDBRANCH   6  11
ENDBRANCH   1   2
BRANCH   1  21
HETATM   21  N   UNL     1       5.657  27.803  55.889  1.00  0.00    -0.260 N 
HETATM   22  C   UNL     1       5.108  27.922  54.656  1.00  0.00     0.326 C 
HETATM   23  O   UNL     1       3.967  28.253  54.378  1.00  0.00    -0.247 OA
HETATM   24  N   UNL     1       6.072  27.656  53.716  1.00  0.00    -0.321 N 
HETATM   25  C   UNL     1       7.320  27.214  54.305  1.00  0.00     0.140 C 
HETATM   26  H   UNL     1       5.824  27.591  52.738  1.00  0.00     0.165 HD
HETATM   27  C   UNL     1       6.996  27.555  55.781  1.00  0.00     0.261 C 
HETATM   28  C   UNL     1       8.498  28.065  53.834  1.00  0.00     0.054 C 
HETATM   29  O   UNL     1       7.808  27.586  56.698  1.00  0.00    -0.270 OA
BRANCH  25  30
HETATM   30  C   UNL     1       7.525  25.729  54.015  1.00  0.00    -0.020 A 
HETATM   31  C   UNL     1       7.538  24.752  55.026  1.00  0.00     0.022 A 
HETATM   32  C   UNL     1       7.678  23.383  54.728  1.00  0.00    -0.025 A 
HETATM   33  C   UNL     1       7.822  22.975  53.384  1.00  0.00    -0.026 A 
HETATM   34  C   UNL     1       7.676  22.409  55.740  1.00  0.00     0.012 A 
HETATM   35  C   UNL     1       7.839  23.946  52.375  1.00  0.00     0.013 A 
HETATM   36  C   UNL     1       7.943  21.609  53.084  1.00  0.00     0.012 A 
HETATM   37  C   UNL     1       7.697  25.300  52.686  1.00  0.00     0.011 A 
HETATM   38  C   UNL     1       7.926  20.653  54.101  1.00  0.00     0.001 A 
HETATM   39  C   UNL     1       7.794  21.053  55.428  1.00  0.00     0.001 A 
ENDBRANCH  25  30
ENDBRANCH   1  21
TORSDOF 7
ENDMDL
MODEL 5
REMARK VINA RESULT:     -11.2      1.391      2.441
REMARK  7 active torsions:
REMARK  status: ('A' for Active; 'I' for Inactive)
REMARK    1  A    between atoms: C_2  and  C_3 
REMARK    2  A    between atoms: C_4  and  N_5 
REMARK    3  A    between atoms: N_5  and  C_6 
REMARK    4  A    between atoms: C_8  and  N_9 
REMARK    5  A    between atoms: C_11  and  C_12 
REMARK    6  A    between atoms: C_12  and  N_13 
REMARK    7  A    between atoms: C_17  and  C_18 
ROOT
HETATM    1  C   UNL     1       7.326  28.280  56.945  1.00  0.00     0.218 C 
ENDROOT
BRANCH   1   2
HETATM    2  C   UNL     1       6.597  29.605  57.006  1.00  0.00     0.166 A 
HETATM    3  N   UNL     1       5.960  29.982  55.896  1.00  0.00    -0.200 NA
HETATM    4  C   UNL     1       5.375  31.164  55.963  1.00  0.00     0.219 A 
HETATM    5  N   UNL     1       5.360  31.943  57.026  1.00  0.00    -0.031 NA
HETATM    6  C   UNL     1       5.994  31.483  58.101  1.00  0.00     0.731 A 
HETATM    7  N   UNL     1       6.596  30.297  58.151  1.00  0.00    -0.045 NA
BRANCH   4   8
HETATM    8  N   UNL     1       4.688  31.599  54.847  1.00  0.00    -0.270 NA
HETATM    9  H   UNL     1       5.265  31.486  54.024  1.00  0.00     0.127 HD
HETATM   10  H   UNL     1       4.291  32.513  55.010  1.00  0.00     0.127 HD
ENDBRANCH   4   8
BRANCH   6  11
HETATM   11  N   UNL     1       6.015  32.232  59.277  1.00  0.00    -0.188 N 
HETATM   12  H   UNL     1       5.074  32.513  59.516  1.00  0.00     0.184 HD
BRANCH  11  13
HETATM   13  C   UNL     1       6.918  32.205  60.359  1.00  0.00     0.055 A 
HETATM   14  C   UNL     1       6.467  32.473  61.671  1.00  0.00    -0.031 A 
HETATM   15  C   UNL     1       7.386  32.465  62.739  1.00  0.00     0.009 A 
HETATM   16  C   UNL     1       8.736  32.199  62.523  1.00  0.00     0.001 A 
HETATM   17  C   UNL     1       9.188  31.950  61.235  1.00  0.00     0.002 A 
HETATM   18  C   UNL     1       8.289  31.963  60.166  1.00  0.00     0.030 A 
BRANCH  14  19
HETATM   19  C   UNL     1       5.033  32.847  61.975  1.00  0.00     0.036 C 
HETATM   20  C   UNL     1       4.827  33.120  63.459  1.00  0.00     0.010 C 
ENDBRANCH  14  19
ENDBRANCH  11  13
ENDBRANCH   6  11
ENDBRANCH   1   2
BRANCH   1  21
HETATM   21  N   UNL     1       6.746  27.306  56.046  1.00  0.00    -0.260 N 
HETATM   22  C   UNL     1       5.588  26.649  56.298  1.00  0.00     0.326 C 
HETATM   23  O   UNL     1       4.923  26.679  57.320  1.00  0.00    -0.247 OA
HETATM   24  N   UNL     1       5.220  25.956  55.172  1.00  0.00    -0.321 N 
HETATM   25  C   UNL     1       6.215  26.025  54.122  1.00  0.00     0.140 C 
HETATM   26  H   UNL     1       4.435  25.319  55.202  1.00  0.00     0.165 HD
HETATM   27  C   UNL     1       7.103  27.134  54.738  1.00  0.00     0.261 C 
HETATM   28  C   UNL     1       5.617  26.525  52.809  1.00  0.00     0.054 C 
HETATM   29  O   UNL     1       7.986  27.748  54.150  1.00  0.00    -0.270 OA
BRANCH  25  30
HETATM   30  C   UNL     1       6.894  24.665  53.970  1.00  0.00    -0.020 A 
HETATM   31  C   UNL     1       7.027  23.758  55.037  1.00  0.00     0.022 A 
HETATM   32  C   UNL     1       7.611  22.490  54.859  1.00  0.00    -0.025 A 
HETATM   33  C   UNL     1       8.089  22.117  53.583  1.00  0.00    -0.026 A 
HETATM   34  C   UNL     1       7.729  21.581  55.923  1.00  0.00     0.012 A 
HETATM   35  C   UNL     1       7.986  23.027  52.524  1.00  0.00     0.013 A 
HETATM   36  C   UNL     1       8.656  20.846  53.400  1.00  0.00     0.012 A 
HETATM   37  C   UNL     1       7.402  24.281  52.715  1.00  0.00     0.011 A 
HETATM   38  C   UNL     1       8.753  19.950  54.466  1.00  0.00     0.001 A 
HETATM   39  C   UNL     1       8.292  20.319  55.727  1.00  0.00     0.001 A 
ENDBRANCH  25  30
ENDBRANCH   1  21
TORSDOF 7
ENDMDL
MODEL 6
REMARK VINA RESULT:     -11.2      1.239      2.200
REMARK  7 active torsions:
REMARK  status: ('A' for Active; 'I' for Inactive)
REMARK    1  A    between atoms: C_2  and  C_3 
REMARK    2  A    between atoms: C_4  and  N_5 
REMARK    3  A    between atoms: N_5  and  C_6 
REMARK    4  A    between atoms: C_8  and  N_9 
REMARK    5  A    between atoms: C_11  and  C_12 
REMARK    6  A    between atoms: C_12  and  N_13 
REMARK    7  A    between atoms: C_17  and  C_18 
ROOT
HETATM    1  C   UNL     1       7.590  29.177  55.854  1.00  0.00     0.218 C 
ENDROOT
BRANCH   1   2
HETATM    2  C   UNL     1       7.830  30.084  57.041  1.00  0.00     0.166 A 
HETATM    3  N   UNL     1       9.067  30.564  57.181  1.00  0.00    -0.200 NA
HETATM    4  C   UNL     1       9.259  31.311  58.252  1.00  0.00     0.219 A 
HETATM    5  N   UNL     1       8.331  31.620  59.137  1.00  0.00    -0.031 NA
HETATM    6  C   UNL     1       7.117  31.124  58.912  1.00  0.00     0.731 A 
HETATM    7  N   UNL     1       6.808  30.381  57.852  1.00  0.00    -0.045 NA
BRANCH   4   8
HETATM    8  N   UNL     1      10.517  31.847  58.439  1.00  0.00    -0.270 NA
HETATM    9  H   UNL     1      11.221  31.164  58.191  1.00  0.00     0.127 HD
HETATM   10  H   UNL     1      10.588  32.273  59.352  1.00  0.00     0.127 HD
ENDBRANCH   4   8
BRANCH   6  11
HETATM   11  N   UNL     1       6.069  31.414  59.786  1.00  0.00    -0.188 N 
HETATM   12  H   UNL     1       5.807  30.577  60.288  1.00  0.00     0.184 HD
BRANCH  11  13
HETATM   13  C   UNL     1       5.722  32.622  60.423  1.00  0.00     0.055 A 
HETATM   14  C   UNL     1       6.208  32.910  61.718  1.00  0.00    -0.031 A 
HETATM   15  C   UNL     1       5.833  34.111  62.352  1.00  0.00     0.009 A 
HETATM   16  C   UNL     1       4.987  35.021  61.724  1.00  0.00     0.001 A 
HETATM   17  C   UNL     1       4.493  34.737  60.458  1.00  0.00     0.002 A 
HETATM   18  C   UNL     1       4.851  33.546  59.822  1.00  0.00     0.030 A 
BRANCH  14  19
HETATM   19  C   UNL     1       7.068  31.938  62.496  1.00  0.00     0.036 C 
HETATM   20  C   UNL     1       7.949  32.655  63.510  1.00  0.00     0.010 C 
ENDBRANCH  14  19
ENDBRANCH  11  13
ENDBRANCH   6  11
ENDBRANCH   1   2
BRANCH   1  21
HETATM   21  N   UNL     1       7.303  27.799  56.189  1.00  0.00    -0.260 N 
HETATM   22  C   UNL     1       7.900  27.135  57.208  1.00  0.00     0.326 C 
HETATM   23  O   UNL     1       8.814  27.525  57.915  1.00  0.00    -0.247 OA
HETATM   24  N   UNL     1       7.269  25.928  57.379  1.00  0.00    -0.321 N 
HETATM   25  C   UNL     1       6.266  25.673  56.365  1.00  0.00     0.140 C 
HETATM   26  H   UNL     1       7.642  25.247  58.026  1.00  0.00     0.165 HD
HETATM   27  C   UNL     1       6.224  27.090  55.741  1.00  0.00     0.261 C 
HETATM   28  C   UNL     1       4.907  25.351  56.984  1.00  0.00     0.054 C 
HETATM   29  O   UNL     1       5.368  27.501  54.966  1.00  0.00    -0.270 OA
BRANCH  25  30
HETATM   30  C   UNL     1       6.754  24.570  55.429  1.00  0.00    -0.020 A 
HETATM   31  C   UNL     1       7.326  23.374  55.897  1.00  0.00     0.022 A 
HETATM   32  C   UNL     1       7.722  22.351  55.014  1.00  0.00    -0.025 A 
HETATM   33  C   UNL     1       7.554  22.528  53.624  1.00  0.00    -0.026 A 
HETATM   34  C   UNL     1       8.279  21.151  55.486  1.00  0.00     0.012 A 
HETATM   35  C   UNL     1       7.011  23.728  53.150  1.00  0.00     0.013 A 
HETATM   36  C   UNL     1       7.931  21.500  52.744  1.00  0.00     0.012 A 
HETATM   37  C   UNL     1       6.622  24.734  54.038  1.00  0.00     0.011 A 
HETATM   38  C   UNL     1       8.471  20.309  53.231  1.00  0.00     0.001 A 
HETATM   39  C   UNL     1       8.648  20.136  54.602  1.00  0.00     0.001 A 
ENDBRANCH  25  30
ENDBRANCH   1  21
TORSDOF 7
ENDMDL
MODEL 7
REMARK VINA RESULT:     -11.2      1.957      3.482
REMARK  7 active torsions:
REMARK  status: ('A' for Active; 'I' for Inactive)
REMARK    1  A    between atoms: C_2  and  C_3 
REMARK    2  A    between atoms: C_4  and  N_5 
REMARK    3  A    between atoms: N_5  and  C_6 
REMARK    4  A    between atoms: C_8  and  N_9 
REMARK    5  A    between atoms: C_11  and  C_12 
REMARK    6  A    between atoms: C_12  and  N_13 
REMARK    7  A    between atoms: C_17  and  C_18 
ROOT
HETATM    1  C   UNL     1       6.988  29.044  54.584  1.00  0.00     0.218 C 
ENDROOT
BRANCH   1   2
HETATM    2  C   UNL     1       7.860  29.295  55.795  1.00  0.00     0.166 A 
HETATM    3  N   UNL     1       9.178  29.275  55.592  1.00  0.00    -0.200 NA
HETATM    4  C   UNL     1       9.913  29.447  56.676  1.00  0.00     0.219 A 
HETATM    5  N   UNL     1       9.438  29.658  57.888  1.00  0.00    -0.031 NA
HETATM    6  C   UNL     1       8.113  29.691  58.002  1.00  0.00     0.731 A 
HETATM    7  N   UNL     1       7.280  29.553  56.973  1.00  0.00    -0.045 NA
BRANCH   4   8
HETATM    8  N   UNL     1      11.284  29.450  56.522  1.00  0.00    -0.270 NA
HETATM    9  H   UNL     1      11.598  30.377  56.266  1.00  0.00     0.127 HD
HETATM   10  H   UNL     1      11.576  28.685  55.930  1.00  0.00     0.127 HD
ENDBRANCH   4   8
BRANCH   6  11
HETATM   11  N   UNL     1       7.522  29.926  59.243  1.00  0.00    -0.188 N 
HETATM   12  H   UNL     1       7.063  29.085  59.564  1.00  0.00     0.184 HD
BRANCH  11  13
HETATM   13  C   UNL     1       7.873  30.836  60.261  1.00  0.00     0.055 A 
HETATM   14  C   UNL     1       7.065  31.968  60.514  1.00  0.00    -0.031 A 
HETATM   15  C   UNL     1       7.442  32.881  61.518  1.00  0.00     0.009 A 
HETATM   16  C   UNL     1       8.600  32.689  62.268  1.00  0.00     0.001 A 
HETATM   17  C   UNL     1       9.405  31.587  62.014  1.00  0.00     0.002 A 
HETATM   18  C   UNL     1       9.048  30.678  61.015  1.00  0.00     0.030 A 
BRANCH  14  19
HETATM   19  C   UNL     1       5.836  32.287  59.692  1.00  0.00     0.036 C 
HETATM   20  C   UNL     1       4.679  32.747  60.569  1.00  0.00     0.010 C 
ENDBRANCH  14  19
ENDBRANCH  11  13
ENDBRANCH   6  11
ENDBRANCH   1   2
BRANCH   1  21
HETATM   21  N   UNL     1       6.405  27.721  54.517  1.00  0.00    -0.260 N 
HETATM   22  C   UNL     1       5.270  27.369  55.168  1.00  0.00     0.326 C 
HETATM   23  O   UNL     1       4.635  28.034  55.969  1.00  0.00    -0.247 OA
HETATM   24  N   UNL     1       4.885  26.122  54.742  1.00  0.00    -0.321 N 
HETATM   25  C   UNL     1       5.848  25.516  53.845  1.00  0.00     0.140 C 
HETATM   26  H   UNL     1       4.116  25.646  55.194  1.00  0.00     0.165 HD
HETATM   27  C   UNL     1       6.728  26.765  53.595  1.00  0.00     0.261 C 
HETATM   28  C   UNL     1       5.200  25.080  52.533  1.00  0.00     0.054 C 
HETATM   29  O   UNL     1       7.579  26.873  52.720  1.00  0.00    -0.270 OA
BRANCH  25  30
HETATM   30  C   UNL     1       6.553  24.362  54.555  1.00  0.00    -0.020 A 
HETATM   31  C   UNL     1       6.969  23.197  53.886  1.00  0.00     0.022 A 
HETATM   32  C   UNL     1       7.662  22.170  54.554  1.00  0.00    -0.025 A 
HETATM   33  C   UNL     1       7.939  22.300  55.932  1.00  0.00    -0.026 A 
HETATM   34  C   UNL     1       8.089  21.015  53.878  1.00  0.00     0.012 A 
HETATM   35  C   UNL     1       7.501  23.443  56.611  1.00  0.00     0.013 A 
HETATM   36  C   UNL     1       8.646  21.284  56.595  1.00  0.00     0.012 A 
HETATM   37  C   UNL     1       6.817  24.456  55.935  1.00  0.00     0.011 A 
HETATM   38  C   UNL     1       9.074  20.148  55.906  1.00  0.00     0.001 A 
HETATM   39  C   UNL     1       8.793  20.013  54.548  1.00  0.00     0.001 A 
ENDBRANCH  25  30
ENDBRANCH   1  21
TORSDOF 7
ENDMDL
MODEL 8
REMARK VINA RESULT:     -11.0      2.306      4.171
REMARK  7 active torsions:
REMARK  status: ('A' for Active; 'I' for Inactive)
REMARK    1  A    between atoms: C_2  and  C_3 
REMARK    2  A    between atoms: C_4  and  N_5 
REMARK    3  A    between atoms: N_5  and  C_6 
REMARK    4  A    between atoms: C_8  and  N_9 
REMARK    5  A    between atoms: C_11  and  C_12 
REMARK    6  A    between atoms: C_12  and  N_13 
REMARK    7  A    between atoms: C_17  and  C_18 
ROOT
HETATM    1  C   UNL     1       9.115  28.667  56.790  1.00  0.00     0.218 C 
ENDROOT
BRANCH   1   2
HETATM    2  C   UNL     1       8.543  29.827  57.576  1.00  0.00     0.166 A 
HETATM    3  N   UNL     1       9.423  30.613  58.198  1.00  0.00    -0.200 NA
HETATM    4  C   UNL     1       8.892  31.586  58.916  1.00  0.00     0.219 A 
HETATM    5  N   UNL     1       7.601  31.831  59.023  1.00  0.00    -0.031 NA
HETATM    6  C   UNL     1       6.791  31.018  58.351  1.00  0.00     0.731 A 
HETATM    7  N   UNL     1       7.219  30.022  57.579  1.00  0.00    -0.045 NA
BRANCH   4   8
HETATM    8  N   UNL     1       9.758  32.440  59.569  1.00  0.00    -0.270 NA
HETATM    9  H   UNL     1       9.430  33.393  59.482  1.00  0.00     0.127 HD
HETATM   10  H   UNL     1      10.712  32.253  59.297  1.00  0.00     0.127 HD
ENDBRANCH   4   8
BRANCH   6  11
HETATM   11  N   UNL     1       5.410  31.213  58.392  1.00  0.00    -0.188 N 
HETATM   12  H   UNL     1       5.147  31.571  59.300  1.00  0.00     0.184 HD
BRANCH  11  13
HETATM   13  C   UNL     1       4.499  31.496  57.355  1.00  0.00     0.055 A 
HETATM   14  C   UNL     1       4.058  32.820  57.136  1.00  0.00    -0.031 A 
HETATM   15  C   UNL     1       3.128  33.084  56.110  1.00  0.00     0.009 A 
HETATM   16  C   UNL     1       2.633  32.059  55.308  1.00  0.00     0.001 A 
HETATM   17  C   UNL     1       3.051  30.754  55.528  1.00  0.00     0.002 A 
HETATM   18  C   UNL     1       3.966  30.477  56.547  1.00  0.00     0.030 A 
BRANCH  14  19
HETATM   19  C   UNL     1       4.489  33.975  58.014  1.00  0.00     0.036 C 
HETATM   20  C   UNL     1       4.584  35.274  57.225  1.00  0.00     0.010 C 
ENDBRANCH  14  19
ENDBRANCH  11  13
ENDBRANCH   6  11
ENDBRANCH   1   2
BRANCH   1  21
HETATM   21  N   UNL     1       8.153  27.653  56.413  1.00  0.00    -0.260 N 
HETATM   22  C   UNL     1       7.471  26.898  57.308  1.00  0.00     0.326 C 
HETATM   23  O   UNL     1       7.620  26.862  58.518  1.00  0.00    -0.247 OA
HETATM   24  N   UNL     1       6.508  26.183  56.639  1.00  0.00    -0.321 N 
HETATM   25  C   UNL     1       6.589  26.345  55.202  1.00  0.00     0.140 C 
HETATM   26  H   UNL     1       5.967  25.482  57.126  1.00  0.00     0.165 HD
HETATM   27  C   UNL     1       7.595  27.522  55.172  1.00  0.00     0.261 C 
HETATM   28  C   UNL     1       5.257  26.802  54.610  1.00  0.00     0.054 C 
HETATM   29  O   UNL     1       7.853  28.214  54.194  1.00  0.00    -0.270 OA
BRANCH  25  30
HETATM   30  C   UNL     1       7.092  25.051  54.569  1.00  0.00    -0.020 A 
HETATM   31  C   UNL     1       7.240  23.856  55.296  1.00  0.00     0.022 A 
HETATM   32  C   UNL     1       7.658  22.662  54.677  1.00  0.00    -0.025 A 
HETATM   33  C   UNL     1       7.948  22.660  53.295  1.00  0.00    -0.026 A 
HETATM   34  C   UNL     1       7.791  21.467  55.404  1.00  0.00     0.012 A 
HETATM   35  C   UNL     1       7.830  23.852  52.572  1.00  0.00     0.013 A 
HETATM   36  C   UNL     1       8.347  21.465  52.674  1.00  0.00     0.012 A 
HETATM   37  C   UNL     1       7.413  25.029  53.199  1.00  0.00     0.011 A 
HETATM   38  C   UNL     1       8.461  20.284  53.408  1.00  0.00     0.001 A 
HETATM   39  C   UNL     1       8.185  20.287  54.774  1.00  0.00     0.001 A 
ENDBRANCH  25  30
ENDBRANCH   1  21
TORSDOF 7
ENDMDL
MODEL 9
REMARK VINA RESULT:     -10.7      4.513      8.059
REMARK  7 active torsions:
REMARK  status: ('A' for Active; 'I' for Inactive)
REMARK    1  A    between atoms: C_2  and  C_3 
REMARK    2  A    between atoms: C_4  and  N_5 
REMARK    3  A    between atoms: N_5  and  C_6 
REMARK    4  A    between atoms: C_8  and  N_9 
REMARK    5  A    between atoms: C_11  and  C_12 
REMARK    6  A    between atoms: C_12  and  N_13 
REMARK    7  A    between atoms: C_17  and  C_18 
ROOT
HETATM    1  C   UNL     1       4.243  28.176  55.930  1.00  0.00     0.218 C 
ENDROOT
BRANCH   1   2
HETATM    2  C   UNL     1       3.944  28.804  54.586  1.00  0.00     0.166 A 
HETATM    3  N   UNL     1       3.734  30.121  54.580  1.00  0.00    -0.200 NA
HETATM    4  C   UNL     1       3.426  30.632  53.402  1.00  0.00     0.219 A 
HETATM    5  N   UNL     1       3.349  29.949  52.276  1.00  0.00    -0.031 NA
HETATM    6  C   UNL     1       3.599  28.646  52.362  1.00  0.00     0.731 A 
HETATM    7  N   UNL     1       3.941  28.033  53.492  1.00  0.00    -0.045 NA
BRANCH   4   8
HETATM    8  N   UNL     1       3.213  31.995  53.335  1.00  0.00    -0.270 NA
HETATM    9  H   UNL     1       3.685  32.376  52.526  1.00  0.00     0.127 HD
HETATM   10  H   UNL     1       3.405  32.427  54.227  1.00  0.00     0.127 HD
ENDBRANCH   4   8
BRANCH   6  11
HETATM   11  N   UNL     1       3.557  27.848  51.219  1.00  0.00    -0.188 N 
HETATM   12  H   UNL     1       2.784  27.200  51.287  1.00  0.00     0.184 HD
BRANCH  11  13
HETATM   13  C   UNL     1       3.995  28.114  49.906  1.00  0.00     0.055 A 
HETATM   14  C   UNL     1       3.058  28.249  48.856  1.00  0.00    -0.031 A 
HETATM   15  C   UNL     1       3.513  28.491  47.545  1.00  0.00     0.009 A 
HETATM   16  C   UNL     1       4.872  28.597  47.263  1.00  0.00     0.001 A 
HETATM   17  C   UNL     1       5.798  28.450  48.287  1.00  0.00     0.002 A 
HETATM   18  C   UNL     1       5.361  28.201  49.590  1.00  0.00     0.030 A 
BRANCH  14  19
HETATM   19  C   UNL     1       1.571  28.070  49.068  1.00  0.00     0.036 C 
HETATM   20  C   UNL     1       0.937  27.265  47.940  1.00  0.00     0.010 C 
ENDBRANCH  14  19
ENDBRANCH  11  13
ENDBRANCH   6  11
ENDBRANCH   1   2
BRANCH   1  21
HETATM   21  N   UNL     1       5.499  27.461  56.002  1.00  0.00    -0.260 N 
HETATM   22  C   UNL     1       6.691  28.003  55.655  1.00  0.00     0.326 C 
HETATM   23  O   UNL     1       6.893  29.092  55.144  1.00  0.00    -0.247 OA
HETATM   24  N   UNL     1       7.693  27.139  56.024  1.00  0.00    -0.321 N 
HETATM   25  C   UNL     1       7.187  25.884  56.541  1.00  0.00     0.140 C 
HETATM   26  H   UNL     1       8.649  27.324  55.751  1.00  0.00     0.165 HD
HETATM   27  C   UNL     1       5.699  26.292  56.681  1.00  0.00     0.261 C 
HETATM   28  C   UNL     1       7.759  25.572  57.922  1.00  0.00     0.054 C 
HETATM   29  O   UNL     1       4.843  25.663  57.292  1.00  0.00    -0.270 OA
BRANCH  25  30
HETATM   30  C   UNL     1       7.459  24.769  55.535  1.00  0.00    -0.020 A 
HETATM   31  C   UNL     1       7.804  23.462  55.922  1.00  0.00     0.022 A 
HETATM   32  C   UNL     1       8.000  22.439  54.976  1.00  0.00    -0.025 A 
HETATM   33  C   UNL     1       7.860  22.727  53.601  1.00  0.00    -0.026 A 
HETATM   34  C   UNL     1       8.331  21.131  55.368  1.00  0.00     0.012 A 
HETATM   35  C   UNL     1       7.545  24.033  53.207  1.00  0.00     0.013 A 
HETATM   36  C   UNL     1       8.038  21.703  52.657  1.00  0.00     0.012 A 
HETATM   37  C   UNL     1       7.352  25.038  54.157  1.00  0.00     0.011 A 
HETATM   38  C   UNL     1       8.353  20.406  53.065  1.00  0.00     0.001 A 
HETATM   39  C   UNL     1       8.502  20.121  54.420  1.00  0.00     0.001 A 
ENDBRANCH  25  30
ENDBRANCH   1  21
TORSDOF 7
ENDMDL
MODEL 10
REMARK VINA RESULT:     -10.4      2.280      3.739
REMARK  7 active torsions:
REMARK  status: ('A' for Active; 'I' for Inactive)
REMARK    1  A    between atoms: C_2  and  C_3 
REMARK    2  A    between atoms: C_4  and  N_5 
REMARK    3  A    between atoms: N_5  and  C_6 
REMARK    4  A    between atoms: C_8  and  N_9 
REMARK    5  A    between atoms: C_11  and  C_12 
REMARK    6  A    between atoms: C_12  and  N_13 
REMARK    7  A    between atoms: C_17  and  C_18 
ROOT
HETATM    1  C   UNL     1       3.867  28.292  53.852  1.00  0.00     0.218 C 
ENDROOT
BRANCH   1   2
HETATM    2  C   UNL     1       3.645  29.660  54.461  1.00  0.00     0.166 A 
HETATM    3  N   UNL     1       3.363  30.648  53.612  1.00  0.00    -0.200 NA
HETATM    4  C   UNL     1       3.224  31.838  54.167  1.00  0.00     0.219 A 
HETATM    5  N   UNL     1       3.315  32.087  55.459  1.00  0.00    -0.031 NA
HETATM    6  C   UNL     1       3.572  31.043  56.241  1.00  0.00     0.731 A 
HETATM    7  N   UNL     1       3.707  29.799  55.791  1.00  0.00    -0.045 NA
BRANCH   4   8
HETATM    8  N   UNL     1       2.915  32.897  53.336  1.00  0.00    -0.270 NA
HETATM    9  H   UNL     1       3.566  32.927  52.563  1.00  0.00     0.127 HD
HETATM   10  H   UNL     1       2.796  33.744  53.873  1.00  0.00     0.127 HD
ENDBRANCH   4   8
BRANCH   6  11
HETATM   11  N   UNL     1       3.668  31.210  57.623  1.00  0.00    -0.188 N 
HETATM   12  H   UNL     1       2.956  30.658  58.080  1.00  0.00     0.184 HD
BRANCH  11  13
HETATM   13  C   UNL     1       4.782  31.526  58.427  1.00  0.00     0.055 A 
HETATM   14  C   UNL     1       4.612  32.257  59.624  1.00  0.00    -0.031 A 
HETATM   15  C   UNL     1       5.738  32.586  60.405  1.00  0.00     0.009 A 
HETATM   16  C   UNL     1       7.019  32.204  60.016  1.00  0.00     0.001 A 
HETATM   17  C   UNL     1       7.194  31.499  58.833  1.00  0.00     0.002 A 
HETATM   18  C   UNL     1       6.088  31.174  58.045  1.00  0.00     0.030 A 
BRANCH  14  19
HETATM   19  C   UNL     1       3.263  32.775  60.074  1.00  0.00     0.036 C 
HETATM   20  C   UNL     1       3.048  34.223  59.652  1.00  0.00     0.010 C 
ENDBRANCH  14  19
ENDBRANCH  11  13
ENDBRANCH   6  11
ENDBRANCH   1   2
BRANCH   1  21
HETATM   21  N   UNL     1       5.217  27.783  53.974  1.00  0.00    -0.260 N 
HETATM   22  C   UNL     1       6.242  28.176  53.180  1.00  0.00     0.326 C 
HETATM   23  O   UNL     1       6.188  28.905  52.203  1.00  0.00    -0.247 OA
HETATM   24  N   UNL     1       7.411  27.660  53.680  1.00  0.00    -0.321 N 
HETATM   25  C   UNL     1       7.195  26.768  54.801  1.00  0.00     0.140 C 
HETATM   26  H   UNL     1       8.273  27.758  53.160  1.00  0.00     0.165 HD
HETATM   27  C   UNL     1       5.700  27.090  55.049  1.00  0.00     0.261 C 
HETATM   28  C   UNL     1       8.013  27.185  56.020  1.00  0.00     0.054 C 
HETATM   29  O   UNL     1       5.058  26.769  56.042  1.00  0.00    -0.270 OA
BRANCH  25  30
HETATM   30  C   UNL     1       7.482  25.331  54.373  1.00  0.00    -0.020 A 
HETATM   31  C   UNL     1       7.508  24.258  55.282  1.00  0.00     0.022 A 
HETATM   32  C   UNL     1       7.725  22.934  54.856  1.00  0.00    -0.025 A 
HETATM   33  C   UNL     1       7.935  22.671  53.484  1.00  0.00    -0.026 A 
HETATM   34  C   UNL     1       7.735  21.863  55.765  1.00  0.00     0.012 A 
HETATM   35  C   UNL     1       7.940  23.738  52.578  1.00  0.00     0.013 A 
HETATM   36  C   UNL     1       8.134  21.349  53.055  1.00  0.00     0.012 A 
HETATM   37  C   UNL     1       7.721  25.046  53.016  1.00  0.00     0.011 A 
HETATM   38  C   UNL     1       8.128  20.295  53.971  1.00  0.00     0.001 A 
HETATM   39  C   UNL     1       7.931  20.553  55.325  1.00  0.00     0.001 A 
ENDBRANCH  25  30
ENDBRANCH   1  21
TORSDOF 7
ENDMDL
