MODEL 1
REMARK VINA RESULT:      -9.1      0.000      0.000
REMARK  9 active torsions:
REMARK  status: ('A' for Active; 'I' for Inactive)
REMARK    1  A    between atoms: C_4  and  C_5 
REMARK    2  A    between atoms: C_8  and  C_9 
REMARK       I    between atoms: C_9  and  N_10 
REMARK    3  A    between atoms: N_10  and  C_11 
REMARK    4  A    between atoms: N_10  and  C_26 
REMARK    5  A    between atoms: C_11  and  C_12 
REMARK    6  A    between atoms: C_11  and  C_21 
REMARK       I    between atoms: C_12  and  N_13 
REMARK    7  A    between atoms: N_13  and  C_14 
REMARK    8  A    between atoms: C_14  and  C_15 
REMARK    9  A    between atoms: C_26  and  C_27 
ROOT
HETATM    1  C   UNL     1       5.452  26.974  54.352  1.00  0.00     0.271 C 
HETATM    2  N   UNL     1       6.099  28.190  54.587  1.00  0.00    -0.324 N 
HETATM    3  O   UNL     1       4.452  26.906  53.638  1.00  0.00    -0.266 OA
ENDROOT
BRANCH   2   4
HETATM    4  C   UNL     1       5.466  29.474  54.205  1.00  0.00     0.220 C 
BRANCH   4   5
HETATM    5  C   UNL     1       4.748  29.518  52.830  1.00  0.00     0.245 C 
HETATM    6  N   UNL     1       5.518  29.274  51.718  1.00  0.00    -0.357 N 
HETATM    7  H   UNL     1       6.531  29.233  51.844  1.00  0.00     0.162 HD
HETATM    8  O   UNL     1       3.544  29.770  52.746  1.00  0.00    -0.271 OA
BRANCH   6   9
HETATM    9  C   UNL     1       4.993  29.307  50.370  1.00  0.00     0.154 C 
BRANCH   9  10
HETATM   10  C   UNL     1       5.471  28.150  49.475  1.00  0.00     0.139 C 
HETATM   11  O   UNL     1       5.223  28.512  48.098  1.00  0.00    -0.384 OA
HETATM   12  C   UNL     1       4.189  27.670  47.573  1.00  0.00     0.168 C 
HETATM   13  C   UNL     1       3.561  26.955  48.748  1.00  0.00     0.029 C 
HETATM   14  C   UNL     1       4.724  26.841  49.700  1.00  0.00     0.035 C 
ENDBRANCH   9  10
ENDBRANCH   6   9
ENDBRANCH   4   5
BRANCH   4  15
HETATM   15  C   UNL     1       4.623  30.102  55.305  1.00  0.00     0.014 A 
HETATM   16  S   UNL     1       4.598  31.827  55.438  1.00  0.00    -0.104 SA
HETATM   17  C   UNL     1       3.529  31.793  56.765  1.00  0.00     0.050 A 
HETATM   18  C   UNL     1       3.172  30.511  57.104  1.00  0.00     0.008 A 
HETATM   19  C   UNL     1       3.791  29.542  56.260  1.00  0.00     0.017 A 
ENDBRANCH   4  15
ENDBRANCH   2   4
BRANCH   2  20
HETATM   20  C   UNL     1       7.565  28.225  54.681  1.00  0.00     0.173 C 
BRANCH  20  21
HETATM   21  C   UNL     1       8.023  28.764  56.008  1.00  0.00     0.000 A 
HETATM   22  S   UNL     1       9.575  29.500  56.106  1.00  0.00    -0.105 SA
HETATM   23  C   UNL     1       9.403  29.808  57.777  1.00  0.00     0.050 A 
HETATM   24  C   UNL     1       8.186  29.383  58.256  1.00  0.00     0.008 A 
HETATM   25  C   UNL     1       7.389  28.786  57.236  1.00  0.00     0.017 A 
ENDBRANCH  20  21
ENDBRANCH   2  20
BRANCH   1  26
HETATM   26  C   UNL     1       6.000  25.771  54.946  1.00  0.00     0.101 A 
HETATM   27  N   UNL     1       6.539  24.703  54.265  1.00  0.00    -0.351 N 
HETATM   28  C   UNL     1       6.989  23.731  55.132  1.00  0.00     0.043 A 
HETATM   29  H   UNL     1       6.583  24.631  53.258  1.00  0.00     0.166 HD
HETATM   30  C   UNL     1       6.772  24.223  56.408  1.00  0.00     0.033 A 
HETATM   31  C   UNL     1       6.184  25.504  56.292  1.00  0.00     0.037 A 
BRANCH  28  32
HETATM   32  C   UNL     1       7.569  22.460  54.686  1.00  0.00    -0.009 A 
HETATM   33  C   UNL     1       7.814  22.204  53.328  1.00  0.00     0.013 A 
HETATM   34  C   UNL     1       8.376  20.991  52.919  1.00  0.00     0.001 A 
HETATM   35  C   UNL     1       8.701  20.018  53.861  1.00  0.00     0.000 A 
HETATM   36  C   UNL     1       8.465  20.257  55.213  1.00  0.00     0.001 A 
HETATM   37  C   UNL     1       7.903  21.470  55.621  1.00  0.00     0.013 A 
ENDBRANCH  28  32
ENDBRANCH   1  26
TORSDOF 9
ENDMDL
MODEL 2
REMARK VINA RESULT:      -8.7      1.959      7.032
REMARK  9 active torsions:
REMARK  status: ('A' for Active; 'I' for Inactive)
REMARK    1  A    between atoms: C_4  and  C_5 
REMARK    2  A    between atoms: C_8  and  C_9 
REMARK       I    between atoms: C_9  and  N_10 
REMARK    3  A    between atoms: N_10  and  C_11 
REMARK    4  A    between atoms: N_10  and  C_26 
REMARK    5  A    between atoms: C_11  and  C_12 
REMARK    6  A    between atoms: C_11  and  C_21 
REMARK       I    between atoms: C_12  and  N_13 
REMARK    7  A    between atoms: N_13  and  C_14 
REMARK    8  A    between atoms: C_14  and  C_15 
REMARK    9  A    between atoms: C_26  and  C_27 
ROOT
HETATM    1  C   UNL     1       5.928  27.167  53.239  1.00  0.00     0.271 C 
HETATM    2  N   UNL     1       5.486  27.726  54.441  1.00  0.00    -0.324 N 
HETATM    3  O   UNL     1       6.714  26.222  53.221  1.00  0.00    -0.266 OA
ENDROOT
BRANCH   2   4
HETATM    4  C   UNL     1       6.139  27.380  55.725  1.00  0.00     0.220 C 
BRANCH   4   5
HETATM    5  C   UNL     1       6.338  25.870  56.023  1.00  0.00     0.245 C 
HETATM    6  N   UNL     1       7.580  25.343  55.762  1.00  0.00    -0.357 N 
HETATM    7  H   UNL     1       8.243  25.926  55.250  1.00  0.00     0.162 HD
HETATM    8  O   UNL     1       5.417  25.180  56.465  1.00  0.00    -0.271 OA
BRANCH   6   9
HETATM    9  C   UNL     1       7.905  23.947  55.965  1.00  0.00     0.154 C 
BRANCH   9  10
HETATM   10  C   UNL     1       7.310  22.997  54.912  1.00  0.00     0.139 C 
HETATM   11  O   UNL     1       7.385  21.649  55.426  1.00  0.00    -0.384 OA
HETATM   12  C   UNL     1       8.338  20.907  54.653  1.00  0.00     0.168 C 
HETATM   13  C   UNL     1       9.103  21.907  53.816  1.00  0.00     0.029 C 
HETATM   14  C   UNL     1       8.068  22.980  53.590  1.00  0.00     0.035 C 
ENDBRANCH   9  10
ENDBRANCH   6   9
ENDBRANCH   4   5
BRANCH   4  15
HETATM   15  C   UNL     1       7.395  28.187  56.021  1.00  0.00     0.014 A 
HETATM   16  S   UNL     1       7.822  28.467  57.675  1.00  0.00    -0.104 SA
HETATM   17  C   UNL     1       9.218  29.348  57.252  1.00  0.00     0.050 A 
HETATM   18  C   UNL     1       9.386  29.423  55.891  1.00  0.00     0.008 A 
HETATM   19  C   UNL     1       8.346  28.749  55.186  1.00  0.00     0.017 A 
ENDBRANCH   4  15
ENDBRANCH   2   4
BRANCH   2  20
HETATM   20  C   UNL     1       4.098  28.192  54.557  1.00  0.00     0.173 C 
BRANCH  20  21
HETATM   21  C   UNL     1       4.030  29.644  54.943  1.00  0.00     0.000 A 
HETATM   22  S   UNL     1       3.742  30.045  56.592  1.00  0.00    -0.105 SA
HETATM   23  C   UNL     1       3.775  31.721  56.264  1.00  0.00     0.050 A 
HETATM   24  C   UNL     1       4.020  31.982  54.937  1.00  0.00     0.008 A 
HETATM   25  C   UNL     1       4.172  30.786  54.177  1.00  0.00     0.017 A 
ENDBRANCH  20  21
ENDBRANCH   2  20
BRANCH   1  26
HETATM   26  C   UNL     1       5.416  27.708  51.995  1.00  0.00     0.101 A 
HETATM   27  N   UNL     1       4.508  27.098  51.160  1.00  0.00    -0.351 N 
HETATM   28  C   UNL     1       4.218  27.891  50.070  1.00  0.00     0.043 A 
HETATM   29  H   UNL     1       4.116  26.179  51.314  1.00  0.00     0.166 HD
HETATM   30  C   UNL     1       4.931  29.065  50.249  1.00  0.00     0.033 A 
HETATM   31  C   UNL     1       5.653  28.961  51.460  1.00  0.00     0.037 A 
BRANCH  28  32
HETATM   32  C   UNL     1       3.315  27.477  48.991  1.00  0.00    -0.009 A 
HETATM   33  C   UNL     1       3.661  26.452  48.098  1.00  0.00     0.013 A 
HETATM   34  C   UNL     1       2.786  26.063  47.081  1.00  0.00     0.001 A 
HETATM   35  C   UNL     1       1.552  26.694  46.941  1.00  0.00     0.000 A 
HETATM   36  C   UNL     1       1.192  27.713  47.819  1.00  0.00     0.001 A 
HETATM   37  C   UNL     1       2.068  28.101  48.837  1.00  0.00     0.013 A 
ENDBRANCH  28  32
ENDBRANCH   1  26
TORSDOF 9
ENDMDL
MODEL 3
REMARK VINA RESULT:      -8.7      1.299      1.874
REMARK  9 active torsions:
REMARK  status: ('A' for Active; 'I' for Inactive)
REMARK    1  A    between atoms: C_4  and  C_5 
REMARK    2  A    between atoms: C_8  and  C_9 
REMARK       I    between atoms: C_9  and  N_10 
REMARK    3  A    between atoms: N_10  and  C_11 
REMARK    4  A    between atoms: N_10  and  C_26 
REMARK    5  A    between atoms: C_11  and  C_12 
REMARK    6  A    between atoms: C_11  and  C_21 
REMARK       I    between atoms: C_12  and  N_13 
REMARK    7  A    between atoms: N_13  and  C_14 
REMARK    8  A    between atoms: C_14  and  C_15 
REMARK    9  A    between atoms: C_26  and  C_27 
ROOT
HETATM    1  C   UNL     1       5.522  27.104  54.992  1.00  0.00     0.271 C 
HETATM    2  N   UNL     1       6.272  28.283  55.025  1.00  0.00    -0.324 N 
HETATM    3  O   UNL     1       4.384  27.080  54.529  1.00  0.00    -0.266 OA
ENDROOT
BRANCH   2   4
HETATM    4  C   UNL     1       5.638  29.594  54.747  1.00  0.00     0.220 C 
BRANCH   4   5
HETATM    5  C   UNL     1       4.765  29.691  53.467  1.00  0.00     0.245 C 
HETATM    6  N   UNL     1       5.362  29.345  52.279  1.00  0.00    -0.357 N 
HETATM    7  H   UNL     1       6.372  29.197  52.283  1.00  0.00     0.162 HD
HETATM    8  O   UNL     1       3.593  30.070  53.522  1.00  0.00    -0.271 OA
BRANCH   6   9
HETATM    9  C   UNL     1       4.680  29.410  51.004  1.00  0.00     0.154 C 
BRANCH   9  10
HETATM   10  C   UNL     1       5.606  29.671  49.803  1.00  0.00     0.139 C 
HETATM   11  O   UNL     1       6.434  30.815  50.112  1.00  0.00    -0.384 OA
HETATM   12  C   UNL     1       6.054  31.909  49.266  1.00  0.00     0.168 C 
HETATM   13  C   UNL     1       4.746  31.528  48.611  1.00  0.00     0.029 C 
HETATM   14  C   UNL     1       4.871  30.028  48.517  1.00  0.00     0.035 C 
ENDBRANCH   9  10
ENDBRANCH   6   9
ENDBRANCH   4   5
BRANCH   4  15
HETATM   15  C   UNL     1       4.951  30.220  55.952  1.00  0.00     0.014 A 
HETATM   16  S   UNL     1       4.982  31.943  56.112  1.00  0.00    -0.104 SA
HETATM   17  C   UNL     1       4.084  31.908  57.560  1.00  0.00     0.050 A 
HETATM   18  C   UNL     1       3.742  30.628  57.921  1.00  0.00     0.008 A 
HETATM   19  C   UNL     1       4.230  29.661  56.994  1.00  0.00     0.017 A 
ENDBRANCH   4  15
ENDBRANCH   2   4
BRANCH   2  20
HETATM   20  C   UNL     1       7.720  28.230  54.781  1.00  0.00     0.173 C 
BRANCH  20  21
HETATM   21  C   UNL     1       8.493  28.891  55.888  1.00  0.00     0.000 A 
HETATM   22  S   UNL     1       7.878  28.798  57.493  1.00  0.00    -0.105 SA
HETATM   23  C   UNL     1       9.172  29.719  58.119  1.00  0.00     0.050 A 
HETATM   24  C   UNL     1      10.070  30.077  57.142  1.00  0.00     0.008 A 
HETATM   25  C   UNL     1       9.682  29.596  55.858  1.00  0.00     0.017 A 
ENDBRANCH  20  21
ENDBRANCH   2  20
BRANCH   1  26
HETATM   26  C   UNL     1       6.127  25.886  55.494  1.00  0.00     0.101 A 
HETATM   27  N   UNL     1       6.559  24.823  54.733  1.00  0.00    -0.351 N 
HETATM   28  C   UNL     1       7.104  23.832  55.521  1.00  0.00     0.043 A 
HETATM   29  H   UNL     1       6.472  24.767  53.728  1.00  0.00     0.166 HD
HETATM   30  C   UNL     1       7.059  24.306  56.821  1.00  0.00     0.033 A 
HETATM   31  C   UNL     1       6.478  25.595  56.800  1.00  0.00     0.037 A 
BRANCH  28  32
HETATM   32  C   UNL     1       7.605  22.562  54.985  1.00  0.00    -0.009 A 
HETATM   33  C   UNL     1       7.922  21.486  55.826  1.00  0.00     0.013 A 
HETATM   34  C   UNL     1       8.391  20.279  55.299  1.00  0.00     0.001 A 
HETATM   35  C   UNL     1       8.548  20.132  53.923  1.00  0.00     0.000 A 
HETATM   36  C   UNL     1       8.237  21.191  53.073  1.00  0.00     0.001 A 
HETATM   37  C   UNL     1       7.768  22.397  53.602  1.00  0.00     0.013 A 
ENDBRANCH  28  32
ENDBRANCH   1  26
TORSDOF 9
ENDMDL
MODEL 4
REMARK VINA RESULT:      -8.5      3.273      7.068
REMARK  9 active torsions:
REMARK  status: ('A' for Active; 'I' for Inactive)
REMARK    1  A    between atoms: C_4  and  C_5 
REMARK    2  A    between atoms: C_8  and  C_9 
REMARK       I    between atoms: C_9  and  N_10 
REMARK    3  A    between atoms: N_10  and  C_11 
REMARK    4  A    between atoms: N_10  and  C_26 
REMARK    5  A    between atoms: C_11  and  C_12 
REMARK    6  A    between atoms: C_11  and  C_21 
REMARK       I    between atoms: C_12  and  N_13 
REMARK    7  A    between atoms: N_13  and  C_14 
REMARK    8  A    between atoms: C_14  and  C_15 
REMARK    9  A    between atoms: C_26  and  C_27 
ROOT
HETATM    1  C   UNL     1       7.022  28.036  57.375  1.00  0.00     0.271 C 
HETATM    2  N   UNL     1       6.757  29.175  56.609  1.00  0.00    -0.324 N 
HETATM    3  O   UNL     1       7.607  28.110  58.454  1.00  0.00    -0.266 OA
ENDROOT
BRANCH   2   4
HETATM    4  C   UNL     1       7.393  30.474  56.934  1.00  0.00     0.220 C 
BRANCH   4   5
HETATM    5  C   UNL     1       6.673  31.360  57.986  1.00  0.00     0.245 C 
HETATM    6  N   UNL     1       6.891  31.056  59.308  1.00  0.00    -0.357 N 
HETATM    7  H   UNL     1       7.380  30.185  59.519  1.00  0.00     0.162 HD
HETATM    8  O   UNL     1       5.935  32.285  57.642  1.00  0.00    -0.271 OA
BRANCH   6   9
HETATM    9  C   UNL     1       6.268  31.778  60.398  1.00  0.00     0.154 C 
BRANCH   9  10
HETATM   10  C   UNL     1       7.231  32.668  61.201  1.00  0.00     0.139 C 
HETATM   11  O   UNL     1       8.565  32.477  60.679  1.00  0.00    -0.384 OA
HETATM   12  C   UNL     1       9.359  31.798  61.661  1.00  0.00     0.168 C 
HETATM   13  C   UNL     1       8.409  31.283  62.718  1.00  0.00     0.029 C 
HETATM   14  C   UNL     1       7.313  32.317  62.682  1.00  0.00     0.035 C 
ENDBRANCH   9  10
ENDBRANCH   6   9
ENDBRANCH   4   5
BRANCH   4  15
HETATM   15  C   UNL     1       8.889  30.385  57.195  1.00  0.00     0.014 A 
HETATM   16  S   UNL     1       9.863  29.473  56.092  1.00  0.00    -0.104 SA
HETATM   17  C   UNL     1      11.297  29.810  56.950  1.00  0.00     0.050 A 
HETATM   18  C   UNL     1      11.066  30.611  58.041  1.00  0.00     0.008 A 
HETATM   19  C   UNL     1       9.688  30.949  58.176  1.00  0.00     0.017 A 
ENDBRANCH   4  15
ENDBRANCH   2   4
BRANCH   2  20
HETATM   20  C   UNL     1       5.494  29.271  55.866  1.00  0.00     0.173 C 
BRANCH  20  21
HETATM   21  C   UNL     1       5.583  28.587  54.530  1.00  0.00     0.000 A 
HETATM   22  S   UNL     1       4.136  27.996  53.809  1.00  0.00    -0.105 SA
HETATM   23  C   UNL     1       4.976  27.385  52.453  1.00  0.00     0.050 A 
HETATM   24  C   UNL     1       6.325  27.639  52.526  1.00  0.00     0.008 A 
HETATM   25  C   UNL     1       6.674  28.336  53.719  1.00  0.00     0.017 A 
ENDBRANCH  20  21
ENDBRANCH   2  20
BRANCH   1  26
HETATM   26  C   UNL     1       6.565  26.751  56.885  1.00  0.00     0.101 A 
HETATM   27  N   UNL     1       7.295  25.869  56.121  1.00  0.00    -0.351 N 
HETATM   28  C   UNL     1       6.571  24.730  55.841  1.00  0.00     0.043 A 
HETATM   29  H   UNL     1       8.234  26.040  55.790  1.00  0.00     0.166 HD
HETATM   30  C   UNL     1       5.358  24.876  56.494  1.00  0.00     0.033 A 
HETATM   31  C   UNL     1       5.366  26.120  57.165  1.00  0.00     0.037 A 
BRANCH  28  32
HETATM   32  C   UNL     1       7.081  23.636  55.008  1.00  0.00    -0.009 A 
HETATM   33  C   UNL     1       7.176  23.761  53.614  1.00  0.00     0.013 A 
HETATM   34  C   UNL     1       7.673  22.713  52.834  1.00  0.00     0.001 A 
HETATM   35  C   UNL     1       8.081  21.525  53.437  1.00  0.00     0.000 A 
HETATM   36  C   UNL     1       7.993  21.385  54.820  1.00  0.00     0.001 A 
HETATM   37  C   UNL     1       7.496  22.434  55.598  1.00  0.00     0.013 A 
ENDBRANCH  28  32
ENDBRANCH   1  26
TORSDOF 9
ENDMDL
MODEL 5
REMARK VINA RESULT:      -8.5      1.557      2.055
REMARK  9 active torsions:
REMARK  status: ('A' for Active; 'I' for Inactive)
REMARK    1  A    between atoms: C_4  and  C_5 
REMARK    2  A    between atoms: C_8  and  C_9 
REMARK       I    between atoms: C_9  and  N_10 
REMARK    3  A    between atoms: N_10  and  C_11 
REMARK    4  A    between atoms: N_10  and  C_26 
REMARK    5  A    between atoms: C_11  and  C_12 
REMARK    6  A    between atoms: C_11  and  C_21 
REMARK       I    between atoms: C_12  and  N_13 
REMARK    7  A    between atoms: N_13  and  C_14 
REMARK    8  A    between atoms: C_14  and  C_15 
REMARK    9  A    between atoms: C_26  and  C_27 
ROOT
HETATM    1  C   UNL     1       5.805  26.605  52.577  1.00  0.00     0.271 C 
HETATM    2  N   UNL     1       6.047  27.750  53.340  1.00  0.00    -0.324 N 
HETATM    3  O   UNL     1       4.918  26.576  51.726  1.00  0.00    -0.266 OA
ENDROOT
BRANCH   2   4
HETATM    4  C   UNL     1       5.088  28.880  53.341  1.00  0.00     0.220 C 
BRANCH   4   5
HETATM    5  C   UNL     1       3.879  28.771  52.373  1.00  0.00     0.245 C 
HETATM    6  N   UNL     1       4.085  29.171  51.075  1.00  0.00    -0.357 N 
HETATM    7  H   UNL     1       4.959  29.655  50.861  1.00  0.00     0.162 HD
HETATM    8  O   UNL     1       2.787  28.354  52.762  1.00  0.00    -0.271 OA
BRANCH   6   9
HETATM    9  C   UNL     1       3.045  29.151  50.067  1.00  0.00     0.154 C 
BRANCH   9  10
HETATM   10  C   UNL     1       3.459  28.491  48.742  1.00  0.00     0.139 C 
HETATM   11  O   UNL     1       2.843  29.224  47.660  1.00  0.00    -0.384 OA
HETATM   12  C   UNL     1       1.847  28.399  47.043  1.00  0.00     0.168 C 
HETATM   13  C   UNL     1       1.624  27.216  47.958  1.00  0.00     0.029 C 
HETATM   14  C   UNL     1       2.984  27.051  48.589  1.00  0.00     0.035 C 
ENDBRANCH   9  10
ENDBRANCH   6   9
ENDBRANCH   4   5
BRANCH   4  15
HETATM   15  C   UNL     1       4.664  29.333  54.730  1.00  0.00     0.014 A 
HETATM   16  S   UNL     1       4.559  31.032  55.044  1.00  0.00    -0.104 SA
HETATM   17  C   UNL     1       4.059  30.788  56.655  1.00  0.00     0.050 A 
HETATM   18  C   UNL     1       3.949  29.455  56.962  1.00  0.00     0.008 A 
HETATM   19  C   UNL     1       4.285  28.621  55.856  1.00  0.00     0.017 A 
ENDBRANCH   4  15
ENDBRANCH   2   4
BRANCH   2  20
HETATM   20  C   UNL     1       7.428  28.109  53.692  1.00  0.00     0.173 C 
BRANCH  20  21
HETATM   21  C   UNL     1       7.685  27.948  55.165  1.00  0.00     0.000 A 
HETATM   22  S   UNL     1       8.286  29.297  56.048  1.00  0.00    -0.105 SA
HETATM   23  C   UNL     1       8.341  28.410  57.506  1.00  0.00     0.050 A 
HETATM   24  C   UNL     1       7.893  27.120  57.341  1.00  0.00     0.008 A 
HETATM   25  C   UNL     1       7.511  26.855  55.994  1.00  0.00     0.017 A 
ENDBRANCH  20  21
ENDBRANCH   2  20
BRANCH   1  26
HETATM   26  C   UNL     1       6.646  25.443  52.787  1.00  0.00     0.101 A 
HETATM   27  N   UNL     1       6.651  24.637  53.903  1.00  0.00    -0.351 N 
HETATM   28  C   UNL     1       7.557  23.606  53.772  1.00  0.00     0.043 A 
HETATM   29  H   UNL     1       6.079  24.790  54.721  1.00  0.00     0.166 HD
HETATM   30  C   UNL     1       8.107  23.736  52.508  1.00  0.00     0.033 A 
HETATM   31  C   UNL     1       7.520  24.862  51.886  1.00  0.00     0.037 A 
BRANCH  28  32
HETATM   32  C   UNL     1       7.808  22.618  54.826  1.00  0.00    -0.009 A 
HETATM   33  C   UNL     1       7.815  21.242  54.553  1.00  0.00     0.013 A 
HETATM   34  C   UNL     1       8.065  20.312  55.567  1.00  0.00     0.001 A 
HETATM   35  C   UNL     1       8.312  20.746  56.867  1.00  0.00     0.000 A 
HETATM   36  C   UNL     1       8.310  22.108  57.155  1.00  0.00     0.001 A 
HETATM   37  C   UNL     1       8.060  23.037  56.140  1.00  0.00     0.013 A 
ENDBRANCH  28  32
ENDBRANCH   1  26
TORSDOF 9
ENDMDL
MODEL 6
REMARK VINA RESULT:      -8.4      2.169      6.501
REMARK  9 active torsions:
REMARK  status: ('A' for Active; 'I' for Inactive)
REMARK    1  A    between atoms: C_4  and  C_5 
REMARK    2  A    between atoms: C_8  and  C_9 
REMARK       I    between atoms: C_9  and  N_10 
REMARK    3  A    between atoms: N_10  and  C_11 
REMARK    4  A    between atoms: N_10  and  C_26 
REMARK    5  A    between atoms: C_11  and  C_12 
REMARK    6  A    between atoms: C_11  and  C_21 
REMARK       I    between atoms: C_12  and  N_13 
REMARK    7  A    between atoms: N_13  and  C_14 
REMARK    8  A    between atoms: C_14  and  C_15 
REMARK    9  A    between atoms: C_26  and  C_27 
ROOT
HETATM    1  C   UNL     1       5.424  27.529  55.426  1.00  0.00     0.271 C 
HETATM    2  N   UNL     1       6.473  28.327  55.892  1.00  0.00    -0.324 N 
HETATM    3  O   UNL     1       5.011  26.569  56.074  1.00  0.00    -0.266 OA
ENDROOT
BRANCH   2   4
HETATM    4  C   UNL     1       7.297  27.900  57.048  1.00  0.00     0.220 C 
BRANCH   4   5
HETATM    5  C   UNL     1       7.762  26.419  57.066  1.00  0.00     0.245 C 
HETATM    6  N   UNL     1       7.854  25.782  55.853  1.00  0.00    -0.357 N 
HETATM    7  H   UNL     1       7.469  26.260  55.036  1.00  0.00     0.162 HD
HETATM    8  O   UNL     1       8.025  25.846  58.125  1.00  0.00    -0.271 OA
BRANCH   6   9
HETATM    9  C   UNL     1       8.249  24.396  55.715  1.00  0.00     0.154 C 
BRANCH   9  10
HETATM   10  C   UNL     1       7.192  23.499  55.048  1.00  0.00     0.139 C 
HETATM   11  O   UNL     1       7.367  22.152  55.542  1.00  0.00    -0.384 OA
HETATM   12  C   UNL     1       7.845  21.322  54.476  1.00  0.00     0.168 C 
HETATM   13  C   UNL     1       8.268  22.243  53.353  1.00  0.00     0.029 C 
HETATM   14  C   UNL     1       7.323  23.405  53.533  1.00  0.00     0.035 C 
ENDBRANCH   9  10
ENDBRANCH   6   9
ENDBRANCH   4   5
BRANCH   4  15
HETATM   15  C   UNL     1       8.431  28.855  57.389  1.00  0.00     0.014 A 
HETATM   16  S   UNL     1       8.241  29.902  58.755  1.00  0.00    -0.104 SA
HETATM   17  C   UNL     1       9.779  30.603  58.536  1.00  0.00     0.050 A 
HETATM   18  C   UNL     1      10.445  30.056  57.467  1.00  0.00     0.008 A 
HETATM   19  C   UNL     1       9.677  29.047  56.816  1.00  0.00     0.017 A 
ENDBRANCH   4  15
ENDBRANCH   2   4
BRANCH   2  20
HETATM   20  C   UNL     1       6.444  29.776  55.653  1.00  0.00     0.173 C 
BRANCH  20  21
HETATM   21  C   UNL     1       5.298  30.434  56.371  1.00  0.00     0.000 A 
HETATM   22  S   UNL     1       4.559  31.812  55.654  1.00  0.00    -0.105 SA
HETATM   23  C   UNL     1       3.463  31.989  56.951  1.00  0.00     0.050 A 
HETATM   24  C   UNL     1       3.632  31.014  57.905  1.00  0.00     0.008 A 
HETATM   25  C   UNL     1       4.686  30.115  57.569  1.00  0.00     0.017 A 
ENDBRANCH  20  21
ENDBRANCH   2  20
BRANCH   1  26
HETATM   26  C   UNL     1       4.802  27.872  54.163  1.00  0.00     0.101 A 
HETATM   27  N   UNL     1       5.270  27.538  52.912  1.00  0.00    -0.351 N 
HETATM   28  C   UNL     1       4.430  28.003  51.922  1.00  0.00     0.043 A 
HETATM   29  H   UNL     1       6.128  27.033  52.739  1.00  0.00     0.166 HD
HETATM   30  C   UNL     1       3.369  28.609  52.573  1.00  0.00     0.033 A 
HETATM   31  C   UNL     1       3.587  28.503  53.965  1.00  0.00     0.037 A 
BRANCH  28  32
HETATM   32  C   UNL     1       4.701  27.831  50.491  1.00  0.00    -0.009 A 
HETATM   33  C   UNL     1       5.260  28.864  49.723  1.00  0.00     0.013 A 
HETATM   34  C   UNL     1       5.521  28.682  48.362  1.00  0.00     0.001 A 
HETATM   35  C   UNL     1       5.227  27.465  47.750  1.00  0.00     0.000 A 
HETATM   36  C   UNL     1       4.672  26.430  48.499  1.00  0.00     0.001 A 
HETATM   37  C   UNL     1       4.412  26.613  49.860  1.00  0.00     0.013 A 
ENDBRANCH  28  32
ENDBRANCH   1  26
TORSDOF 9
ENDMDL
MODEL 7
REMARK VINA RESULT:      -8.4      1.537      1.974
REMARK  9 active torsions:
REMARK  status: ('A' for Active; 'I' for Inactive)
REMARK    1  A    between atoms: C_4  and  C_5 
REMARK    2  A    between atoms: C_8  and  C_9 
REMARK       I    between atoms: C_9  and  N_10 
REMARK    3  A    between atoms: N_10  and  C_11 
REMARK    4  A    between atoms: N_10  and  C_26 
REMARK    5  A    between atoms: C_11  and  C_12 
REMARK    6  A    between atoms: C_11  and  C_21 
REMARK       I    between atoms: C_12  and  N_13 
REMARK    7  A    between atoms: N_13  and  C_14 
REMARK    8  A    between atoms: C_14  and  C_15 
REMARK    9  A    between atoms: C_26  and  C_27 
ROOT
HETATM    1  C   UNL     1       5.449  26.827  54.128  1.00  0.00     0.271 C 
HETATM    2  N   UNL     1       6.088  28.051  54.343  1.00  0.00    -0.324 N 
HETATM    3  O   UNL     1       4.469  26.735  53.391  1.00  0.00    -0.266 OA
ENDROOT
BRANCH   2   4
HETATM    4  C   UNL     1       5.463  29.322  53.906  1.00  0.00     0.220 C 
BRANCH   4   5
HETATM    5  C   UNL     1       4.836  29.340  52.486  1.00  0.00     0.245 C 
HETATM    6  N   UNL     1       3.464  29.337  52.413  1.00  0.00    -0.357 N 
HETATM    7  H   UNL     1       2.944  29.168  53.275  1.00  0.00     0.162 HD
HETATM    8  O   UNL     1       5.543  29.346  51.477  1.00  0.00    -0.271 OA
BRANCH   6   9
HETATM    9  C   UNL     1       2.739  29.326  51.159  1.00  0.00     0.154 C 
BRANCH   9  10
HETATM   10  C   UNL     1       2.078  30.667  50.798  1.00  0.00     0.139 C 
HETATM   11  O   UNL     1       2.029  30.773  49.357  1.00  0.00    -0.384 OA
HETATM   12  C   UNL     1       2.925  31.809  48.934  1.00  0.00     0.168 C 
HETATM   13  C   UNL     1       3.785  32.164  50.126  1.00  0.00     0.029 C 
HETATM   14  C   UNL     1       2.850  31.890  51.277  1.00  0.00     0.035 C 
ENDBRANCH   9  10
ENDBRANCH   6   9
ENDBRANCH   4   5
BRANCH   4  15
HETATM   15  C   UNL     1       4.541  29.949  54.942  1.00  0.00     0.014 A 
HETATM   16  S   UNL     1       4.247  31.652  54.856  1.00  0.00    -0.104 SA
HETATM   17  C   UNL     1       3.208  31.625  56.207  1.00  0.00     0.050 A 
HETATM   18  C   UNL     1       3.059  30.358  56.714  1.00  0.00     0.008 A 
HETATM   19  C   UNL     1       3.815  29.396  55.983  1.00  0.00     0.017 A 
ENDBRANCH   4  15
ENDBRANCH   2   4
BRANCH   2  20
HETATM   20  C   UNL     1       7.551  28.093  54.474  1.00  0.00     0.173 C 
BRANCH  20  21
HETATM   21  C   UNL     1       7.972  28.627  55.815  1.00  0.00     0.000 A 
HETATM   22  S   UNL     1       9.500  29.407  55.948  1.00  0.00    -0.105 SA
HETATM   23  C   UNL     1       9.293  29.687  57.620  1.00  0.00     0.050 A 
HETATM   24  C   UNL     1       8.082  29.220  58.074  1.00  0.00     0.008 A 
HETATM   25  C   UNL     1       7.319  28.614  57.034  1.00  0.00     0.017 A 
ENDBRANCH  20  21
ENDBRANCH   2  20
BRANCH   1  26
HETATM   26  C   UNL     1       5.984  25.644  54.773  1.00  0.00     0.101 A 
HETATM   27  N   UNL     1       6.562  24.567  54.140  1.00  0.00    -0.351 N 
HETATM   28  C   UNL     1       6.984  23.620  55.048  1.00  0.00     0.043 A 
HETATM   29  H   UNL     1       6.650  24.473  53.138  1.00  0.00     0.166 HD
HETATM   30  C   UNL     1       6.708  24.139  56.302  1.00  0.00     0.033 A 
HETATM   31  C   UNL     1       6.113  25.410  56.131  1.00  0.00     0.037 A 
BRANCH  28  32
HETATM   32  C   UNL     1       7.596  22.346  54.656  1.00  0.00    -0.009 A 
HETATM   33  C   UNL     1       7.848  22.038  53.311  1.00  0.00     0.013 A 
HETATM   34  C   UNL     1       8.441  20.823  52.954  1.00  0.00     0.001 A 
HETATM   35  C   UNL     1       8.788  19.899  53.937  1.00  0.00     0.000 A 
HETATM   36  C   UNL     1       8.545  20.190  55.277  1.00  0.00     0.001 A 
HETATM   37  C   UNL     1       7.953  21.405  55.633  1.00  0.00     0.013 A 
ENDBRANCH  28  32
ENDBRANCH   1  26
TORSDOF 9
ENDMDL
MODEL 8
REMARK VINA RESULT:      -8.4      3.101      6.587
REMARK  9 active torsions:
REMARK  status: ('A' for Active; 'I' for Inactive)
REMARK    1  A    between atoms: C_4  and  C_5 
REMARK    2  A    between atoms: C_8  and  C_9 
REMARK       I    between atoms: C_9  and  N_10 
REMARK    3  A    between atoms: N_10  and  C_11 
REMARK    4  A    between atoms: N_10  and  C_26 
REMARK    5  A    between atoms: C_11  and  C_12 
REMARK    6  A    between atoms: C_11  and  C_21 
REMARK       I    between atoms: C_12  and  N_13 
REMARK    7  A    between atoms: N_13  and  C_14 
REMARK    8  A    between atoms: C_14  and  C_15 
REMARK    9  A    between atoms: C_26  and  C_27 
ROOT
HETATM    1  C   UNL     1       5.666  26.590  56.318  1.00  0.00     0.271 C 
HETATM    2  N   UNL     1       6.397  27.781  56.278  1.00  0.00    -0.324 N 
HETATM    3  O   UNL     1       4.771  26.414  57.143  1.00  0.00    -0.266 OA
ENDROOT
BRANCH   2   4
HETATM    4  C   UNL     1       6.303  28.767  57.380  1.00  0.00     0.220 C 
BRANCH   4   5
HETATM    5  C   UNL     1       7.618  29.097  58.136  1.00  0.00     0.245 C 
HETATM    6  N   UNL     1       7.537  30.019  59.151  1.00  0.00    -0.357 N 
HETATM    7  H   UNL     1       6.665  30.542  59.247  1.00  0.00     0.162 HD
HETATM    8  O   UNL     1       8.684  28.559  57.827  1.00  0.00    -0.271 OA
BRANCH   6   9
HETATM    9  C   UNL     1       8.684  30.445  59.926  1.00  0.00     0.154 C 
BRANCH   9  10
HETATM   10  C   UNL     1       8.589  31.884  60.460  1.00  0.00     0.139 C 
HETATM   11  O   UNL     1       9.256  31.935  61.741  1.00  0.00    -0.384 OA
HETATM   12  C   UNL     1       8.280  32.150  62.768  1.00  0.00     0.168 C 
HETATM   13  C   UNL     1       6.922  31.929  62.141  1.00  0.00     0.029 C 
HETATM   14  C   UNL     1       7.164  32.360  60.716  1.00  0.00     0.035 C 
ENDBRANCH   9  10
ENDBRANCH   6   9
ENDBRANCH   4   5
BRANCH   4  15
HETATM   15  C   UNL     1       5.523  30.024  57.024  1.00  0.00     0.014 A 
HETATM   16  S   UNL     1       3.855  30.112  57.477  1.00  0.00    -0.104 SA
HETATM   17  C   UNL     1       3.671  31.672  56.816  1.00  0.00     0.050 A 
HETATM   18  C   UNL     1       4.843  32.142  56.275  1.00  0.00     0.008 A 
HETATM   19  C   UNL     1       5.907  31.201  56.403  1.00  0.00     0.017 A 
ENDBRANCH   4  15
ENDBRANCH   2   4
BRANCH   2  20
HETATM   20  C   UNL     1       6.807  28.337  54.981  1.00  0.00     0.173 C 
BRANCH  20  21
HETATM   21  C   UNL     1       5.637  28.498  54.052  1.00  0.00     0.000 A 
HETATM   22  S   UNL     1       5.915  28.422  52.355  1.00  0.00    -0.105 SA
HETATM   23  C   UNL     1       4.267  28.694  52.000  1.00  0.00     0.050 A 
HETATM   24  C   UNL     1       3.508  28.820  53.139  1.00  0.00     0.008 A 
HETATM   25  C   UNL     1       4.296  28.703  54.321  1.00  0.00     0.017 A 
ENDBRANCH  20  21
ENDBRANCH   2  20
BRANCH   1  26
HETATM   26  C   UNL     1       5.964  25.562  55.341  1.00  0.00     0.101 A 
HETATM   27  N   UNL     1       6.707  24.424  55.562  1.00  0.00    -0.351 N 
HETATM   28  C   UNL     1       6.782  23.647  54.427  1.00  0.00     0.043 A 
HETATM   29  H   UNL     1       7.156  24.196  56.438  1.00  0.00     0.166 HD
HETATM   30  C   UNL     1       6.018  24.291  53.468  1.00  0.00     0.033 A 
HETATM   31  C   UNL     1       5.487  25.467  54.046  1.00  0.00     0.037 A 
BRANCH  28  32
HETATM   32  C   UNL     1       7.547  22.397  54.357  1.00  0.00    -0.009 A 
HETATM   33  C   UNL     1       8.045  21.777  55.512  1.00  0.00     0.013 A 
HETATM   34  C   UNL     1       8.764  20.582  55.430  1.00  0.00     0.001 A 
HETATM   35  C   UNL     1       8.997  19.990  54.191  1.00  0.00     0.000 A 
HETATM   36  C   UNL     1       8.509  20.592  53.033  1.00  0.00     0.001 A 
HETATM   37  C   UNL     1       7.789  21.787  53.117  1.00  0.00     0.013 A 
ENDBRANCH  28  32
ENDBRANCH   1  26
TORSDOF 9
ENDMDL
MODEL 9
REMARK VINA RESULT:      -8.3      2.839      5.792
REMARK  9 active torsions:
REMARK  status: ('A' for Active; 'I' for Inactive)
REMARK    1  A    between atoms: C_4  and  C_5 
REMARK    2  A    between atoms: C_8  and  C_9 
REMARK       I    between atoms: C_9  and  N_10 
REMARK    3  A    between atoms: N_10  and  C_11 
REMARK    4  A    between atoms: N_10  and  C_26 
REMARK    5  A    between atoms: C_11  and  C_12 
REMARK    6  A    between atoms: C_11  and  C_21 
REMARK       I    between atoms: C_12  and  N_13 
REMARK    7  A    between atoms: N_13  and  C_14 
REMARK    8  A    between atoms: C_14  and  C_15 
REMARK    9  A    between atoms: C_26  and  C_27 
ROOT
HETATM    1  C   UNL     1       7.975  26.748  56.998  1.00  0.00     0.271 C 
HETATM    2  N   UNL     1       7.195  27.418  56.052  1.00  0.00    -0.324 N 
HETATM    3  O   UNL     1       8.524  27.350  57.920  1.00  0.00    -0.266 OA
ENDROOT
BRANCH   2   4
HETATM    4  C   UNL     1       7.210  28.897  55.964  1.00  0.00     0.220 C 
BRANCH   4   5
HETATM    5  C   UNL     1       5.948  29.640  56.478  1.00  0.00     0.245 C 
HETATM    6  N   UNL     1       5.544  30.744  55.767  1.00  0.00    -0.357 N 
HETATM    7  H   UNL     1       6.175  31.100  55.046  1.00  0.00     0.162 HD
HETATM    8  O   UNL     1       5.347  29.256  57.483  1.00  0.00    -0.271 OA
BRANCH   6   9
HETATM    9  C   UNL     1       4.402  31.552  56.141  1.00  0.00     0.154 C 
BRANCH   9  10
HETATM   10  C   UNL     1       4.762  32.926  56.730  1.00  0.00     0.139 C 
HETATM   11  O   UNL     1       5.815  32.738  57.703  1.00  0.00    -0.384 OA
HETATM   12  C   UNL     1       5.295  33.004  59.012  1.00  0.00     0.168 C 
HETATM   13  C   UNL     1       3.790  33.072  58.884  1.00  0.00     0.029 C 
HETATM   14  C   UNL     1       3.620  33.599  57.482  1.00  0.00     0.035 C 
ENDBRANCH   9  10
ENDBRANCH   6   9
ENDBRANCH   4   5
BRANCH   4  15
HETATM   15  C   UNL     1       8.492  29.537  56.476  1.00  0.00     0.014 A 
HETATM   16  S   UNL     1       8.447  30.370  57.993  1.00  0.00    -0.104 SA
HETATM   17  C   UNL     1      10.101  30.771  57.917  1.00  0.00     0.050 A 
HETATM   18  C   UNL     1      10.698  30.276  56.784  1.00  0.00     0.008 A 
HETATM   19  C   UNL     1       9.778  29.560  55.963  1.00  0.00     0.017 A 
ENDBRANCH   4  15
ENDBRANCH   2   4
BRANCH   2  20
HETATM   20  C   UNL     1       5.981  26.778  55.528  1.00  0.00     0.173 C 
BRANCH  20  21
HETATM   21  C   UNL     1       5.950  26.794  54.025  1.00  0.00     0.000 A 
HETATM   22  S   UNL     1       4.804  27.806  53.235  1.00  0.00    -0.105 SA
HETATM   23  C   UNL     1       5.318  27.303  51.687  1.00  0.00     0.050 A 
HETATM   24  C   UNL     1       6.354  26.401  51.756  1.00  0.00     0.008 A 
HETATM   25  C   UNL     1       6.721  26.111  53.102  1.00  0.00     0.017 A 
ENDBRANCH  20  21
ENDBRANCH   2  20
BRANCH   1  26
HETATM   26  C   UNL     1       8.105  25.308  56.894  1.00  0.00     0.101 A 
HETATM   27  N   UNL     1       8.148  24.581  55.727  1.00  0.00    -0.351 N 
HETATM   28  C   UNL     1       8.297  23.234  55.981  1.00  0.00     0.043 A 
HETATM   29  H   UNL     1       8.062  24.979  54.802  1.00  0.00     0.166 HD
HETATM   30  C   UNL     1       8.402  23.112  57.356  1.00  0.00     0.033 A 
HETATM   31  C   UNL     1       8.311  24.404  57.921  1.00  0.00     0.037 A 
BRANCH  28  32
HETATM   32  C   UNL     1       8.329  22.215  54.926  1.00  0.00    -0.009 A 
HETATM   33  C   UNL     1       8.769  20.908  55.183  1.00  0.00     0.013 A 
HETATM   34  C   UNL     1       8.785  19.946  54.169  1.00  0.00     0.001 A 
HETATM   35  C   UNL     1       8.361  20.277  52.885  1.00  0.00     0.000 A 
HETATM   36  C   UNL     1       7.920  21.570  52.613  1.00  0.00     0.001 A 
HETATM   37  C   UNL     1       7.904  22.531  53.627  1.00  0.00     0.013 A 
ENDBRANCH  28  32
ENDBRANCH   1  26
TORSDOF 9
ENDMDL
MODEL 10
REMARK VINA RESULT:      -8.1      9.006     13.259
REMARK  9 active torsions:
REMARK  status: ('A' for Active; 'I' for Inactive)
REMARK    1  A    between atoms: C_4  and  C_5 
REMARK    2  A    between atoms: C_8  and  C_9 
REMARK       I    between atoms: C_9  and  N_10 
REMARK    3  A    between atoms: N_10  and  C_11 
REMARK    4  A    between atoms: N_10  and  C_26 
REMARK    5  A    between atoms: C_11  and  C_12 
REMARK    6  A    between atoms: C_11  and  C_21 
REMARK       I    between atoms: C_12  and  N_13 
REMARK    7  A    between atoms: N_13  and  C_14 
REMARK    8  A    between atoms: C_14  and  C_15 
REMARK    9  A    between atoms: C_26  and  C_27 
ROOT
HETATM    1  C   UNL     1       4.982  33.660  64.353  1.00  0.00     0.271 C 
HETATM    2  N   UNL     1       5.064  34.650  63.370  1.00  0.00    -0.324 N 
HETATM    3  O   UNL     1       4.923  32.467  64.060  1.00  0.00    -0.266 OA
ENDROOT
BRANCH   2   4
HETATM    4  C   UNL     1       4.823  34.327  61.944  1.00  0.00     0.220 C 
BRANCH   4   5
HETATM    5  C   UNL     1       5.411  32.989  61.421  1.00  0.00     0.245 C 
HETATM    6  N   UNL     1       6.773  32.829  61.516  1.00  0.00    -0.357 N 
HETATM    7  H   UNL     1       7.328  33.646  61.776  1.00  0.00     0.162 HD
HETATM    8  O   UNL     1       4.685  32.119  60.936  1.00  0.00    -0.271 OA
BRANCH   6   9
HETATM    9  C   UNL     1       7.465  31.648  61.046  1.00  0.00     0.154 C 
BRANCH   9  10
HETATM   10  C   UNL     1       8.136  31.810  59.672  1.00  0.00     0.139 C 
HETATM   11  O   UNL     1       7.099  31.855  58.666  1.00  0.00    -0.384 OA
HETATM   12  C   UNL     1       7.170  30.666  57.868  1.00  0.00     0.168 C 
HETATM   13  C   UNL     1       8.092  29.707  58.586  1.00  0.00     0.029 C 
HETATM   14  C   UNL     1       9.042  30.649  59.281  1.00  0.00     0.035 C 
ENDBRANCH   9  10
ENDBRANCH   6   9
ENDBRANCH   4   5
BRANCH   4  15
HETATM   15  C   UNL     1       3.382  34.526  61.498  1.00  0.00     0.014 A 
HETATM   16  S   UNL     1       3.092  35.119  59.898  1.00  0.00    -0.104 SA
HETATM   17  C   UNL     1       1.400  35.075  60.099  1.00  0.00     0.050 A 
HETATM   18  C   UNL     1       1.042  34.605  61.338  1.00  0.00     0.008 A 
HETATM   19  C   UNL     1       2.178  34.280  62.136  1.00  0.00     0.017 A 
ENDBRANCH   4  15
ENDBRANCH   2   4
BRANCH   2  20
HETATM   20  C   UNL     1       5.897  35.837  63.605  1.00  0.00     0.173 C 
BRANCH  20  21
HETATM   21  C   UNL     1       5.332  37.054  62.927  1.00  0.00     0.000 A 
HETATM   22  S   UNL     1       6.371  38.002  61.935  1.00  0.00    -0.105 SA
HETATM   23  C   UNL     1       5.128  39.115  61.572  1.00  0.00     0.050 A 
HETATM   24  C   UNL     1       3.938  38.772  62.169  1.00  0.00     0.008 A 
HETATM   25  C   UNL     1       4.054  37.582  62.946  1.00  0.00     0.017 A 
ENDBRANCH  20  21
ENDBRANCH   2  20
BRANCH   1  26
HETATM   26  C   UNL     1       4.996  34.064  65.745  1.00  0.00     0.101 A 
HETATM   27  N   UNL     1       6.008  33.825  66.648  1.00  0.00    -0.351 N 
HETATM   28  C   UNL     1       5.713  34.360  67.884  1.00  0.00     0.043 A 
HETATM   29  H   UNL     1       6.850  33.308  66.439  1.00  0.00     0.166 HD
HETATM   30  C   UNL     1       4.495  35.003  67.743  1.00  0.00     0.033 A 
HETATM   31  C   UNL     1       4.063  34.843  66.407  1.00  0.00     0.037 A 
BRANCH  28  32
HETATM   32  C   UNL     1       6.590  34.221  69.051  1.00  0.00    -0.009 A 
HETATM   33  C   UNL     1       6.272  33.355  70.107  1.00  0.00     0.013 A 
HETATM   34  C   UNL     1       7.122  33.226  71.209  1.00  0.00     0.001 A 
HETATM   35  C   UNL     1       8.304  33.961  71.269  1.00  0.00     0.000 A 
HETATM   36  C   UNL     1       8.636  34.825  70.228  1.00  0.00     0.001 A 
HETATM   37  C   UNL     1       7.784  34.952  69.127  1.00  0.00     0.013 A 
ENDBRANCH  28  32
ENDBRANCH   1  26
TORSDOF 9
ENDMDL
