MODEL 1
REMARK VINA RESULT:      -9.6      0.000      0.000
REMARK  5 active torsions:
REMARK  status: ('A' for Active; 'I' for Inactive)
REMARK    1  A    between atoms: C_9  and  C_10 
REMARK       I    between atoms: C_10  and  N_11 
REMARK    2  A    between atoms: N_11  and  C_12 
REMARK    3  A    between atoms: C_15  and  N_16 
REMARK       I    between atoms: N_16  and  C_17 
REMARK       I    between atoms: C_17  and  N_18 
REMARK    4  A    between atoms: N_18  and  C_19 
REMARK    5  A    between atoms: C_19  and  C_20 
ROOT
HETATM    1  C   UNL     1       7.733  27.230  56.977  1.00  0.00     0.035 A 
HETATM    2  C   UNL     1       8.787  28.118  57.181  1.00  0.00     0.032 A 
HETATM    3  C   UNL     1       8.542  29.448  57.558  1.00  0.00     0.032 A 
HETATM    4  C   UNL     1       7.238  29.919  57.710  1.00  0.00     0.036 A 
HETATM    5  C   UNL     1       6.183  29.021  57.513  1.00  0.00     0.032 A 
HETATM    6  C   UNL     1       6.427  27.691  57.152  1.00  0.00     0.032 A 
ENDROOT
BRANCH   1   7
HETATM    7  N   UNL     1       7.899  25.879  56.636  1.00  0.00    -0.322 N 
HETATM    8  C   UNL     1       8.363  24.840  57.422  1.00  0.00     0.277 C 
HETATM    9  O   UNL     1       8.782  24.929  58.570  1.00  0.00    -0.266 OA
HETATM   10  H   UNL     1       7.644  25.584  55.696  1.00  0.00     0.169 HD
BRANCH   8  11
HETATM   11  C   UNL     1       8.304  23.551  56.702  1.00  0.00     0.157 A 
HETATM   12  C   UNL     1       8.145  23.343  55.301  1.00  0.00     0.029 A 
HETATM   13  C   UNL     1       7.973  24.159  54.164  1.00  0.00     0.023 A 
HETATM   14  C   UNL     1       8.185  21.965  55.134  1.00  0.00     0.063 A 
HETATM   15  C   UNL     1       7.850  23.565  52.897  1.00  0.00    -0.061 A 
HETATM   16  C   UNL     1       7.652  24.414  51.675  1.00  0.00     0.048 C 
HETATM   17  C   UNL     1       7.902  22.170  52.773  1.00  0.00     0.009 A 
HETATM   18  C   UNL     1       8.072  21.342  53.888  1.00  0.00     0.032 A 
HETATM   19  N   UNL     1       8.350  21.452  56.390  1.00  0.00    -0.277 N 
HETATM   20  H   UNL     1       8.424  20.475  56.647  1.00  0.00     0.189 HD
HETATM   21  N   UNL     1       8.412  22.376  57.366  1.00  0.00    -0.168 NA
ENDBRANCH   8  11
ENDBRANCH   1   7
BRANCH   4  22
HETATM   22  N   UNL     1       6.887  31.224  58.101  1.00  0.00    -0.309 N 
HETATM   23  C   UNL     1       6.732  31.841  59.304  1.00  0.00     0.320 C 
HETATM   24  N   UNL     1       7.197  31.213  60.414  1.00  0.00    -0.339 N 
HETATM   25  O   UNL     1       6.210  32.954  59.334  1.00  0.00    -0.247 OA
HETATM   26  H   UNL     1       8.044  30.686  60.259  1.00  0.00     0.164 HD
HETATM   27  H   UNL     1       6.629  31.857  57.355  1.00  0.00     0.170 HD
BRANCH  24  28
HETATM   28  C   UNL     1       7.110  31.872  61.695  1.00  0.00     0.150 C 
BRANCH  28  29
HETATM   29  C   UNL     1       8.476  32.111  62.263  1.00  0.00    -0.018 C 
HETATM   30  C   UNL     1       9.651  31.819  61.687  1.00  0.00     0.008 C 
ENDBRANCH  28  29
ENDBRANCH  24  28
ENDBRANCH   4  22
TORSDOF 5
ENDMDL
MODEL 2
REMARK VINA RESULT:      -9.6      1.906      2.507
REMARK  5 active torsions:
REMARK  status: ('A' for Active; 'I' for Inactive)
REMARK    1  A    between atoms: C_9  and  C_10 
REMARK       I    between atoms: C_10  and  N_11 
REMARK    2  A    between atoms: N_11  and  C_12 
REMARK    3  A    between atoms: C_15  and  N_16 
REMARK       I    between atoms: N_16  and  C_17 
REMARK       I    between atoms: C_17  and  N_18 
REMARK    4  A    between atoms: N_18  and  C_19 
REMARK    5  A    between atoms: C_19  and  C_20 
ROOT
HETATM    1  C   UNL     1       7.650  28.525  56.538  1.00  0.00     0.035 A 
HETATM    2  C   UNL     1       8.650  28.941  57.414  1.00  0.00     0.032 A 
HETATM    3  C   UNL     1       8.453  30.049  58.253  1.00  0.00     0.032 A 
HETATM    4  C   UNL     1       7.265  30.777  58.209  1.00  0.00     0.036 A 
HETATM    5  C   UNL     1       6.260  30.350  57.334  1.00  0.00     0.032 A 
HETATM    6  C   UNL     1       6.449  29.235  56.508  1.00  0.00     0.032 A 
ENDROOT
BRANCH   1   7
HETATM    7  N   UNL     1       7.758  27.407  55.698  1.00  0.00    -0.322 N 
HETATM    8  C   UNL     1       7.316  26.115  55.917  1.00  0.00     0.277 C 
HETATM    9  O   UNL     1       6.793  25.690  56.941  1.00  0.00    -0.266 OA
HETATM   10  H   UNL     1       8.205  27.526  54.792  1.00  0.00     0.169 HD
BRANCH   8  11
HETATM   11  C   UNL     1       7.555  25.255  54.739  1.00  0.00     0.157 A 
HETATM   12  C   UNL     1       7.683  23.835  54.710  1.00  0.00     0.029 A 
HETATM   13  C   UNL     1       7.664  22.792  55.658  1.00  0.00     0.023 A 
HETATM   14  C   UNL     1       7.865  23.517  53.370  1.00  0.00     0.063 A 
HETATM   15  C   UNL     1       7.826  21.464  55.230  1.00  0.00    -0.061 A 
HETATM   16  C   UNL     1       7.824  20.339  56.225  1.00  0.00     0.048 C 
HETATM   17  C   UNL     1       8.001  21.187  53.868  1.00  0.00     0.009 A 
HETATM   18  C   UNL     1       8.022  22.207  52.910  1.00  0.00     0.032 A 
HETATM   19  N   UNL     1       7.845  24.713  52.708  1.00  0.00    -0.277 N 
HETATM   20  H   UNL     1       7.946  24.861  51.711  1.00  0.00     0.189 HD
HETATM   21  N   UNL     1       7.675  25.787  53.500  1.00  0.00    -0.168 NA
ENDBRANCH   8  11
ENDBRANCH   1   7
BRANCH   4  22
HETATM   22  N   UNL     1       6.962  31.888  59.018  1.00  0.00    -0.309 N 
HETATM   23  C   UNL     1       6.774  32.062  60.354  1.00  0.00     0.320 C 
HETATM   24  N   UNL     1       7.142  31.059  61.191  1.00  0.00    -0.339 N 
HETATM   25  O   UNL     1       6.311  33.130  60.751  1.00  0.00    -0.247 OA
HETATM   26  H   UNL     1       7.967  30.561  60.891  1.00  0.00     0.164 HD
HETATM   27  H   UNL     1       6.780  32.756  58.530  1.00  0.00     0.170 HD
BRANCH  24  28
HETATM   28  C   UNL     1       7.020  31.240  62.618  1.00  0.00     0.150 C 
BRANCH  28  29
HETATM   29  C   UNL     1       8.000  32.261  63.110  1.00  0.00    -0.018 C 
HETATM   30  C   UNL     1       7.824  33.129  64.116  1.00  0.00     0.008 C 
ENDBRANCH  28  29
ENDBRANCH  24  28
ENDBRANCH   4  22
TORSDOF 5
ENDMDL
MODEL 3
REMARK VINA RESULT:      -9.4      5.053      8.011
REMARK  5 active torsions:
REMARK  status: ('A' for Active; 'I' for Inactive)
REMARK    1  A    between atoms: C_9  and  C_10 
REMARK       I    between atoms: C_10  and  N_11 
REMARK    2  A    between atoms: N_11  and  C_12 
REMARK    3  A    between atoms: C_15  and  N_16 
REMARK       I    between atoms: N_16  and  C_17 
REMARK       I    between atoms: C_17  and  N_18 
REMARK    4  A    between atoms: N_18  and  C_19 
REMARK    5  A    between atoms: C_19  and  C_20 
ROOT
HETATM    1  C   UNL     1       5.602  26.323  53.019  1.00  0.00     0.035 A 
HETATM    2  C   UNL     1       5.851  26.276  51.649  1.00  0.00     0.032 A 
HETATM    3  C   UNL     1       5.192  27.151  50.770  1.00  0.00     0.032 A 
HETATM    4  C   UNL     1       4.253  28.066  51.243  1.00  0.00     0.036 A 
HETATM    5  C   UNL     1       4.013  28.115  52.621  1.00  0.00     0.032 A 
HETATM    6  C   UNL     1       4.681  27.255  53.500  1.00  0.00     0.032 A 
ENDROOT
BRANCH   1   7
HETATM    7  N   UNL     1       6.248  25.510  53.963  1.00  0.00    -0.322 N 
HETATM    8  C   UNL     1       7.234  25.853  54.870  1.00  0.00     0.277 C 
HETATM    9  O   UNL     1       7.779  26.947  54.971  1.00  0.00    -0.266 OA
HETATM   10  H   UNL     1       5.972  24.533  54.025  1.00  0.00     0.169 HD
BRANCH   8  11
HETATM   11  C   UNL     1       7.585  24.714  55.743  1.00  0.00     0.157 A 
HETATM   12  C   UNL     1       7.855  23.370  55.354  1.00  0.00     0.029 A 
HETATM   13  C   UNL     1       7.876  22.646  54.144  1.00  0.00     0.023 A 
HETATM   14  C   UNL     1       8.161  22.707  56.535  1.00  0.00     0.063 A 
HETATM   15  C   UNL     1       8.206  21.281  54.160  1.00  0.00    -0.061 A 
HETATM   16  C   UNL     1       8.220  20.486  52.885  1.00  0.00     0.048 C 
HETATM   17  C   UNL     1       8.513  20.652  55.373  1.00  0.00     0.009 A 
HETATM   18  C   UNL     1       8.499  21.352  56.585  1.00  0.00     0.032 A 
HETATM   19  N   UNL     1       8.052  23.650  57.518  1.00  0.00    -0.277 N 
HETATM   20  H   UNL     1       8.208  23.518  58.511  1.00  0.00     0.189 HD
HETATM   21  N   UNL     1       7.692  24.871  57.084  1.00  0.00    -0.168 NA
ENDBRANCH   8  11
ENDBRANCH   1   7
BRANCH   4  22
HETATM   22  N   UNL     1       3.553  28.994  50.450  1.00  0.00    -0.309 N 
HETATM   23  C   UNL     1       2.682  28.883  49.412  1.00  0.00     0.320 C 
HETATM   24  N   UNL     1       2.145  27.664  49.149  1.00  0.00    -0.339 N 
HETATM   25  O   UNL     1       2.389  29.895  48.776  1.00  0.00    -0.247 OA
HETATM   26  H   UNL     1       1.970  27.111  49.974  1.00  0.00     0.164 HD
HETATM   27  H   UNL     1       3.763  29.970  50.620  1.00  0.00     0.170 HD
BRANCH  24  28
HETATM   28  C   UNL     1       1.165  27.528  48.099  1.00  0.00     0.150 C 
BRANCH  28  29
HETATM   29  C   UNL     1       1.681  26.644  47.003  1.00  0.00    -0.018 C 
HETATM   30  C   UNL     1       2.767  25.860  47.044  1.00  0.00     0.008 C 
ENDBRANCH  28  29
ENDBRANCH  24  28
ENDBRANCH   4  22
TORSDOF 5
ENDMDL
MODEL 4
REMARK VINA RESULT:      -9.1      6.100      9.749
REMARK  5 active torsions:
REMARK  status: ('A' for Active; 'I' for Inactive)
REMARK    1  A    between atoms: C_9  and  C_10 
REMARK       I    between atoms: C_10  and  N_11 
REMARK    2  A    between atoms: N_11  and  C_12 
REMARK    3  A    between atoms: C_15  and  N_16 
REMARK       I    between atoms: N_16  and  C_17 
REMARK       I    between atoms: C_17  and  N_18 
REMARK    4  A    between atoms: N_18  and  C_19 
REMARK    5  A    between atoms: C_19  and  C_20 
ROOT
HETATM    1  C   UNL     1       5.472  25.500  51.750  1.00  0.00     0.035 A 
HETATM    2  C   UNL     1       6.860  25.423  51.658  1.00  0.00     0.032 A 
HETATM    3  C   UNL     1       7.641  25.160  52.794  1.00  0.00     0.032 A 
HETATM    4  C   UNL     1       7.049  24.998  54.046  1.00  0.00     0.036 A 
HETATM    5  C   UNL     1       5.654  25.068  54.132  1.00  0.00     0.032 A 
HETATM    6  C   UNL     1       4.873  25.315  52.997  1.00  0.00     0.032 A 
ENDROOT
BRANCH   1   7
HETATM    7  N   UNL     1       4.624  25.722  50.654  1.00  0.00    -0.322 N 
HETATM    8  C   UNL     1       4.616  26.782  49.767  1.00  0.00     0.277 C 
HETATM    9  O   UNL     1       5.329  27.778  49.819  1.00  0.00    -0.266 OA
HETATM   10  H   UNL     1       3.914  25.024  50.446  1.00  0.00     0.169 HD
BRANCH   8  11
HETATM   11  C   UNL     1       3.611  26.588  48.702  1.00  0.00     0.157 A 
HETATM   12  C   UNL     1       2.599  27.502  48.283  1.00  0.00     0.029 A 
HETATM   13  C   UNL     1       2.168  28.788  48.667  1.00  0.00     0.023 A 
HETATM   14  C   UNL     1       1.945  26.862  47.239  1.00  0.00     0.063 A 
HETATM   15  C   UNL     1       1.096  29.390  47.988  1.00  0.00    -0.061 A 
HETATM   16  C   UNL     1       0.609  30.753  48.390  1.00  0.00     0.048 C 
HETATM   17  C   UNL     1       0.467  28.711  46.937  1.00  0.00     0.009 A 
HETATM   18  C   UNL     1       0.879  27.434  46.539  1.00  0.00     0.032 A 
HETATM   19  N   UNL     1       2.570  25.654  47.106  1.00  0.00    -0.277 N 
HETATM   20  H   UNL     1       2.355  24.924  46.436  1.00  0.00     0.189 HD
HETATM   21  N   UNL     1       3.571  25.444  47.980  1.00  0.00    -0.168 NA
ENDBRANCH   8  11
ENDBRANCH   1   7
BRANCH   4  22
HETATM   22  N   UNL     1       7.738  24.715  55.240  1.00  0.00    -0.309 N 
HETATM   23  C   UNL     1       8.228  23.577  55.800  1.00  0.00     0.320 C 
HETATM   24  N   UNL     1       8.310  22.462  55.030  1.00  0.00    -0.339 N 
HETATM   25  O   UNL     1       8.609  23.611  56.970  1.00  0.00    -0.247 OA
HETATM   26  H   UNL     1       8.540  22.651  54.066  1.00  0.00     0.164 HD
HETATM   27  H   UNL     1       7.865  25.493  55.875  1.00  0.00     0.170 HD
BRANCH  24  28
HETATM   28  C   UNL     1       8.889  21.259  55.575  1.00  0.00     0.150 C 
BRANCH  28  29
HETATM   29  C   UNL     1       8.771  20.125  54.602  1.00  0.00    -0.018 C 
HETATM   30  C   UNL     1       8.679  20.213  53.268  1.00  0.00     0.008 C 
ENDBRANCH  28  29
ENDBRANCH  24  28
ENDBRANCH   4  22
TORSDOF 5
ENDMDL
MODEL 5
REMARK VINA RESULT:      -9.0      2.496      9.637
REMARK  5 active torsions:
REMARK  status: ('A' for Active; 'I' for Inactive)
REMARK    1  A    between atoms: C_9  and  C_10 
REMARK       I    between atoms: C_10  and  N_11 
REMARK    2  A    between atoms: N_11  and  C_12 
REMARK    3  A    between atoms: C_15  and  N_16 
REMARK       I    between atoms: N_16  and  C_17 
REMARK       I    between atoms: C_17  and  N_18 
REMARK    4  A    between atoms: N_18  and  C_19 
REMARK    5  A    between atoms: C_19  and  C_20 
ROOT
HETATM    1  C   UNL     1       7.553  28.900  57.301  1.00  0.00     0.035 A 
HETATM    2  C   UNL     1       8.365  29.024  56.176  1.00  0.00     0.032 A 
HETATM    3  C   UNL     1       7.979  28.467  54.947  1.00  0.00     0.032 A 
HETATM    4  C   UNL     1       6.788  27.752  54.830  1.00  0.00     0.036 A 
HETATM    5  C   UNL     1       5.970  27.638  55.960  1.00  0.00     0.032 A 
HETATM    6  C   UNL     1       6.347  28.207  57.182  1.00  0.00     0.032 A 
ENDROOT
BRANCH   1   7
HETATM    7  N   UNL     1       7.853  29.462  58.552  1.00  0.00    -0.322 N 
HETATM    8  C   UNL     1       7.694  30.769  58.973  1.00  0.00     0.277 C 
HETATM    9  O   UNL     1       7.311  31.711  58.289  1.00  0.00    -0.266 OA
HETATM   10  H   UNL     1       8.228  28.853  59.275  1.00  0.00     0.169 HD
BRANCH   8  11
HETATM   11  C   UNL     1       8.055  30.925  60.397  1.00  0.00     0.157 A 
HETATM   12  C   UNL     1       7.584  31.912  61.312  1.00  0.00     0.029 A 
HETATM   13  C   UNL     1       6.714  33.020  61.253  1.00  0.00     0.023 A 
HETATM   14  C   UNL     1       8.196  31.606  62.520  1.00  0.00     0.063 A 
HETATM   15  C   UNL     1       6.485  33.783  62.410  1.00  0.00    -0.061 A 
HETATM   16  C   UNL     1       5.575  34.977  62.367  1.00  0.00     0.048 C 
HETATM   17  C   UNL     1       7.119  33.436  63.610  1.00  0.00     0.009 A 
HETATM   18  C   UNL     1       7.986  32.340  63.691  1.00  0.00     0.032 A 
HETATM   19  N   UNL     1       8.970  30.509  62.266  1.00  0.00    -0.277 N 
HETATM   20  H   UNL     1       9.558  30.010  62.925  1.00  0.00     0.189 HD
HETATM   21  N   UNL     1       8.924  30.076  60.994  1.00  0.00    -0.168 NA
ENDBRANCH   8  11
ENDBRANCH   1   7
BRANCH   4  22
HETATM   22  N   UNL     1       6.302  27.172  53.643  1.00  0.00    -0.309 N 
HETATM   23  C   UNL     1       6.694  26.118  52.878  1.00  0.00     0.320 C 
HETATM   24  N   UNL     1       7.602  25.251  53.392  1.00  0.00    -0.339 N 
HETATM   25  O   UNL     1       6.186  25.975  51.766  1.00  0.00    -0.247 OA
HETATM   26  H   UNL     1       7.505  25.102  54.386  1.00  0.00     0.164 HD
HETATM   27  H   UNL     1       5.528  27.649  53.200  1.00  0.00     0.170 HD
BRANCH  24  28
HETATM   28  C   UNL     1       7.986  24.085  52.632  1.00  0.00     0.150 C 
BRANCH  28  29
HETATM   29  C   UNL     1       7.681  22.831  53.394  1.00  0.00    -0.018 C 
HETATM   30  C   UNL     1       7.612  22.693  54.726  1.00  0.00     0.008 C 
ENDBRANCH  28  29
ENDBRANCH  24  28
ENDBRANCH   4  22
TORSDOF 5
ENDMDL
MODEL 6
REMARK VINA RESULT:      -8.8      2.370      3.451
REMARK  5 active torsions:
REMARK  status: ('A' for Active; 'I' for Inactive)
REMARK    1  A    between atoms: C_9  and  C_10 
REMARK       I    between atoms: C_10  and  N_11 
REMARK    2  A    between atoms: N_11  and  C_12 
REMARK    3  A    between atoms: C_15  and  N_16 
REMARK       I    between atoms: N_16  and  C_17 
REMARK       I    between atoms: C_17  and  N_18 
REMARK    4  A    between atoms: N_18  and  C_19 
REMARK    5  A    between atoms: C_19  and  C_20 
ROOT
HETATM    1  C   UNL     1       7.432  29.153  57.039  1.00  0.00     0.035 A 
HETATM    2  C   UNL     1       6.478  30.168  57.047  1.00  0.00     0.032 A 
HETATM    3  C   UNL     1       6.492  31.158  58.042  1.00  0.00     0.032 A 
HETATM    4  C   UNL     1       7.442  31.133  59.061  1.00  0.00     0.036 A 
HETATM    5  C   UNL     1       8.405  30.118  59.044  1.00  0.00     0.032 A 
HETATM    6  C   UNL     1       8.401  29.139  58.044  1.00  0.00     0.032 A 
ENDROOT
BRANCH   1   7
HETATM    7  N   UNL     1       7.506  28.152  56.059  1.00  0.00    -0.322 N 
HETATM    8  C   UNL     1       6.656  27.081  55.851  1.00  0.00     0.277 C 
HETATM    9  O   UNL     1       5.696  26.770  56.546  1.00  0.00    -0.266 OA
HETATM   10  H   UNL     1       8.266  28.193  55.384  1.00  0.00     0.169 HD
BRANCH   8  11
HETATM   11  C   UNL     1       7.045  26.308  54.653  1.00  0.00     0.157 A 
HETATM   12  C   UNL     1       7.326  24.912  54.571  1.00  0.00     0.029 A 
HETATM   13  C   UNL     1       7.372  23.830  55.473  1.00  0.00     0.023 A 
HETATM   14  C   UNL     1       7.607  24.679  53.232  1.00  0.00     0.063 A 
HETATM   15  C   UNL     1       7.697  22.548  55.000  1.00  0.00    -0.061 A 
HETATM   16  C   UNL     1       7.767  21.382  55.944  1.00  0.00     0.048 C 
HETATM   17  C   UNL     1       7.968  22.355  53.639  1.00  0.00     0.009 A 
HETATM   18  C   UNL     1       7.927  23.416  52.727  1.00  0.00     0.032 A 
HETATM   19  N   UNL     1       7.491  25.896  52.620  1.00  0.00    -0.277 N 
HETATM   20  H   UNL     1       7.626  26.101  51.636  1.00  0.00     0.189 HD
HETATM   21  N   UNL     1       7.168  26.907  53.446  1.00  0.00    -0.168 NA
ENDBRANCH   8  11
ENDBRANCH   1   7
BRANCH   4  22
HETATM   22  N   UNL     1       7.553  32.086  60.091  1.00  0.00    -0.309 N 
HETATM   23  C   UNL     1       6.750  32.459  61.123  1.00  0.00     0.320 C 
HETATM   24  N   UNL     1       5.696  31.664  61.440  1.00  0.00    -0.339 N 
HETATM   25  O   UNL     1       7.029  33.482  61.749  1.00  0.00    -0.247 OA
HETATM   26  H   UNL     1       5.878  30.680  61.315  1.00  0.00     0.164 HD
HETATM   27  H   UNL     1       8.369  32.684  60.057  1.00  0.00     0.170 HD
BRANCH  24  28
HETATM   28  C   UNL     1       4.866  31.997  62.573  1.00  0.00     0.150 C 
BRANCH  28  29
HETATM   29  C   UNL     1       3.661  32.775  62.138  1.00  0.00    -0.018 C 
HETATM   30  C   UNL     1       3.235  33.945  62.634  1.00  0.00     0.008 C 
ENDBRANCH  28  29
ENDBRANCH  24  28
ENDBRANCH   4  22
TORSDOF 5
ENDMDL
MODEL 7
REMARK VINA RESULT:      -8.6      5.169      7.184
REMARK  5 active torsions:
REMARK  status: ('A' for Active; 'I' for Inactive)
REMARK    1  A    between atoms: C_9  and  C_10 
REMARK       I    between atoms: C_10  and  N_11 
REMARK    2  A    between atoms: N_11  and  C_12 
REMARK    3  A    between atoms: C_15  and  N_16 
REMARK       I    between atoms: N_16  and  C_17 
REMARK       I    between atoms: C_17  and  N_18 
REMARK    4  A    between atoms: N_18  and  C_19 
REMARK    5  A    between atoms: C_19  and  C_20 
ROOT
HETATM    1  C   UNL     1       5.606  26.132  52.874  1.00  0.00     0.035 A 
HETATM    2  C   UNL     1       4.843  27.258  53.176  1.00  0.00     0.032 A 
HETATM    3  C   UNL     1       4.195  27.979  52.160  1.00  0.00     0.032 A 
HETATM    4  C   UNL     1       4.323  27.603  50.825  1.00  0.00     0.036 A 
HETATM    5  C   UNL     1       5.083  26.467  50.527  1.00  0.00     0.032 A 
HETATM    6  C   UNL     1       5.716  25.737  51.540  1.00  0.00     0.032 A 
ENDROOT
BRANCH   1   7
HETATM    7  N   UNL     1       6.251  25.340  53.836  1.00  0.00    -0.322 N 
HETATM    8  C   UNL     1       7.180  25.719  54.787  1.00  0.00     0.277 C 
HETATM    9  O   UNL     1       7.667  26.836  54.921  1.00  0.00    -0.266 OA
HETATM   10  H   UNL     1       6.020  24.350  53.878  1.00  0.00     0.169 HD
BRANCH   8  11
HETATM   11  C   UNL     1       7.549  24.588  55.663  1.00  0.00     0.157 A 
HETATM   12  C   UNL     1       7.829  23.244  55.279  1.00  0.00     0.029 A 
HETATM   13  C   UNL     1       7.848  22.515  54.073  1.00  0.00     0.023 A 
HETATM   14  C   UNL     1       8.151  22.590  56.461  1.00  0.00     0.063 A 
HETATM   15  C   UNL     1       8.191  21.152  54.093  1.00  0.00    -0.061 A 
HETATM   16  C   UNL     1       8.202  20.351  52.823  1.00  0.00     0.048 C 
HETATM   17  C   UNL     1       8.514  20.533  55.307  1.00  0.00     0.009 A 
HETATM   18  C   UNL     1       8.502  21.239  56.516  1.00  0.00     0.032 A 
HETATM   19  N   UNL     1       8.040  23.537  57.440  1.00  0.00    -0.277 N 
HETATM   20  H   UNL     1       8.205  23.413  58.432  1.00  0.00     0.189 HD
HETATM   21  N   UNL     1       7.665  24.753  57.002  1.00  0.00    -0.168 NA
ENDBRANCH   8  11
ENDBRANCH   1   7
BRANCH   4  22
HETATM   22  N   UNL     1       3.702  28.246  49.737  1.00  0.00    -0.309 N 
HETATM   23  C   UNL     1       3.886  29.441  49.115  1.00  0.00     0.320 C 
HETATM   24  N   UNL     1       5.017  30.140  49.386  1.00  0.00    -0.339 N 
HETATM   25  O   UNL     1       3.040  29.823  48.308  1.00  0.00    -0.247 OA
HETATM   26  H   UNL     1       5.827  29.559  49.542  1.00  0.00     0.164 HD
HETATM   27  H   UNL     1       2.900  27.772  49.341  1.00  0.00     0.170 HD
BRANCH  24  28
HETATM   28  C   UNL     1       5.274  31.378  48.690  1.00  0.00     0.150 C 
BRANCH  28  29
HETATM   29  C   UNL     1       5.911  32.379  49.606  1.00  0.00    -0.018 C 
HETATM   30  C   UNL     1       6.144  33.674  49.349  1.00  0.00     0.008 C 
ENDBRANCH  28  29
ENDBRANCH  24  28
ENDBRANCH   4  22
TORSDOF 5
ENDMDL
MODEL 8
REMARK VINA RESULT:      -8.1      4.463      9.505
REMARK  5 active torsions:
REMARK  status: ('A' for Active; 'I' for Inactive)
REMARK    1  A    between atoms: C_9  and  C_10 
REMARK       I    between atoms: C_10  and  N_11 
REMARK    2  A    between atoms: N_11  and  C_12 
REMARK    3  A    between atoms: C_15  and  N_16 
REMARK       I    between atoms: N_16  and  C_17 
REMARK       I    between atoms: C_17  and  N_18 
REMARK    4  A    between atoms: N_18  and  C_19 
REMARK    5  A    between atoms: C_19  and  C_20 
ROOT
HETATM    1  C   UNL     1       6.851  28.159  54.033  1.00  0.00     0.035 A 
HETATM    2  C   UNL     1       5.613  28.616  53.586  1.00  0.00     0.032 A 
HETATM    3  C   UNL     1       4.919  27.932  52.575  1.00  0.00     0.032 A 
HETATM    4  C   UNL     1       5.464  26.798  51.976  1.00  0.00     0.036 A 
HETATM    5  C   UNL     1       6.703  26.338  52.434  1.00  0.00     0.032 A 
HETATM    6  C   UNL     1       7.389  27.009  53.453  1.00  0.00     0.032 A 
ENDROOT
BRANCH   1   7
HETATM    7  N   UNL     1       7.586  28.765  55.064  1.00  0.00    -0.322 N 
HETATM    8  C   UNL     1       7.520  28.533  56.425  1.00  0.00     0.277 C 
HETATM    9  O   UNL     1       6.739  27.779  56.996  1.00  0.00    -0.266 OA
HETATM   10  H   UNL     1       8.278  29.467  54.813  1.00  0.00     0.169 HD
BRANCH   8  11
HETATM   11  C   UNL     1       8.527  29.326  57.159  1.00  0.00     0.157 A 
HETATM   12  C   UNL     1       8.295  30.336  58.138  1.00  0.00     0.029 A 
HETATM   13  C   UNL     1       7.167  30.942  58.726  1.00  0.00     0.023 A 
HETATM   14  C   UNL     1       9.560  30.746  58.539  1.00  0.00     0.063 A 
HETATM   15  C   UNL     1       7.345  31.940  59.699  1.00  0.00    -0.061 A 
HETATM   16  C   UNL     1       6.157  32.611  60.328  1.00  0.00     0.048 C 
HETATM   17  C   UNL     1       8.639  32.320  60.079  1.00  0.00     0.009 A 
HETATM   18  C   UNL     1       9.773  31.730  59.509  1.00  0.00     0.032 A 
HETATM   19  N   UNL     1      10.434  29.997  57.803  1.00  0.00    -0.277 N 
HETATM   20  H   UNL     1      11.447  30.030  57.837  1.00  0.00     0.189 HD
HETATM   21  N   UNL     1       9.851  29.139  56.947  1.00  0.00    -0.168 NA
ENDBRANCH   8  11
ENDBRANCH   1   7
BRANCH   4  22
HETATM   22  N   UNL     1       4.843  26.034  50.970  1.00  0.00    -0.309 N 
HETATM   23  C   UNL     1       4.557  26.251  49.659  1.00  0.00     0.320 C 
HETATM   24  N   UNL     1       5.140  27.309  49.039  1.00  0.00    -0.339 N 
HETATM   25  O   UNL     1       3.811  25.463  49.078  1.00  0.00    -0.247 OA
HETATM   26  H   UNL     1       6.080  27.498  49.355  1.00  0.00     0.164 HD
HETATM   27  H   UNL     1       4.460  25.144  51.262  1.00  0.00     0.170 HD
BRANCH  24  28
HETATM   28  C   UNL     1       4.912  27.525  47.630  1.00  0.00     0.150 C 
BRANCH  28  29
HETATM   29  C   UNL     1       4.751  28.986  47.338  1.00  0.00    -0.018 C 
HETATM   30  C   UNL     1       4.696  29.986  48.229  1.00  0.00     0.008 C 
ENDBRANCH  28  29
ENDBRANCH  24  28
ENDBRANCH   4  22
TORSDOF 5
ENDMDL
MODEL 9
REMARK VINA RESULT:      -7.9      2.265      9.749
REMARK  5 active torsions:
REMARK  status: ('A' for Active; 'I' for Inactive)
REMARK    1  A    between atoms: C_9  and  C_10 
REMARK       I    between atoms: C_10  and  N_11 
REMARK    2  A    between atoms: N_11  and  C_12 
REMARK    3  A    between atoms: C_15  and  N_16 
REMARK       I    between atoms: N_16  and  C_17 
REMARK       I    between atoms: C_17  and  N_18 
REMARK    4  A    between atoms: N_18  and  C_19 
REMARK    5  A    between atoms: C_19  and  C_20 
ROOT
HETATM    1  C   UNL     1       6.205  28.548  56.492  1.00  0.00     0.035 A 
HETATM    2  C   UNL     1       5.894  27.244  56.871  1.00  0.00     0.032 A 
HETATM    3  C   UNL     1       6.231  26.158  56.048  1.00  0.00     0.032 A 
HETATM    4  C   UNL     1       6.857  26.361  54.819  1.00  0.00     0.036 A 
HETATM    5  C   UNL     1       7.175  27.671  54.446  1.00  0.00     0.032 A 
HETATM    6  C   UNL     1       6.855  28.754  55.274  1.00  0.00     0.032 A 
ENDROOT
BRANCH   1   7
HETATM    7  N   UNL     1       5.936  29.680  57.277  1.00  0.00    -0.322 N 
HETATM    8  C   UNL     1       6.822  30.475  57.980  1.00  0.00     0.277 C 
HETATM    9  O   UNL     1       8.028  30.290  58.097  1.00  0.00    -0.266 OA
HETATM   10  H   UNL     1       4.971  29.994  57.354  1.00  0.00     0.169 HD
BRANCH   8  11
HETATM   11  C   UNL     1       6.135  31.621  58.612  1.00  0.00     0.157 A 
HETATM   12  C   UNL     1       6.377  32.177  59.902  1.00  0.00     0.029 A 
HETATM   13  C   UNL     1       7.235  31.898  60.985  1.00  0.00     0.023 A 
HETATM   14  C   UNL     1       5.498  33.247  60.004  1.00  0.00     0.063 A 
HETATM   15  C   UNL     1       7.184  32.704  62.135  1.00  0.00    -0.061 A 
HETATM   16  C   UNL     1       8.078  32.416  63.307  1.00  0.00     0.048 C 
HETATM   17  C   UNL     1       6.286  33.778  62.194  1.00  0.00     0.009 A 
HETATM   18  C   UNL     1       5.426  34.073  61.130  1.00  0.00     0.032 A 
HETATM   19  N   UNL     1       4.807  33.262  58.825  1.00  0.00    -0.277 N 
HETATM   20  H   UNL     1       4.082  33.914  58.550  1.00  0.00     0.189 HD
HETATM   21  N   UNL     1       5.152  32.288  57.964  1.00  0.00    -0.168 NA
ENDBRANCH   8  11
ENDBRANCH   1   7
BRANCH   4  22
HETATM   22  N   UNL     1       7.251  25.342  53.931  1.00  0.00    -0.309 N 
HETATM   23  C   UNL     1       8.002  24.216  54.058  1.00  0.00     0.320 C 
HETATM   24  N   UNL     1       8.302  23.780  55.308  1.00  0.00    -0.339 N 
HETATM   25  O   UNL     1       8.349  23.619  53.040  1.00  0.00    -0.247 OA
HETATM   26  H   UNL     1       7.566  23.935  55.981  1.00  0.00     0.164 HD
HETATM   27  H   UNL     1       6.986  25.471  52.963  1.00  0.00     0.170 HD
BRANCH  24  28
HETATM   28  C   UNL     1       9.038  22.550  55.477  1.00  0.00     0.150 C 
BRANCH  28  29
HETATM   29  C   UNL     1       8.296  21.606  56.375  1.00  0.00    -0.018 C 
HETATM   30  C   UNL     1       7.932  20.346  56.096  1.00  0.00     0.008 C 
ENDBRANCH  28  29
ENDBRANCH  24  28
ENDBRANCH   4  22
TORSDOF 5
ENDMDL
MODEL 10
REMARK VINA RESULT:      -7.9      5.706      7.786
REMARK  5 active torsions:
REMARK  status: ('A' for Active; 'I' for Inactive)
REMARK    1  A    between atoms: C_9  and  C_10 
REMARK       I    between atoms: C_10  and  N_11 
REMARK    2  A    between atoms: N_11  and  C_12 
REMARK    3  A    between atoms: C_15  and  N_16 
REMARK       I    between atoms: N_16  and  C_17 
REMARK       I    between atoms: C_17  and  N_18 
REMARK    4  A    between atoms: N_18  and  C_19 
REMARK    5  A    between atoms: C_19  and  C_20 
ROOT
HETATM    1  C   UNL     1       5.118  27.753  53.164  1.00  0.00     0.035 A 
HETATM    2  C   UNL     1       5.875  28.463  52.234  1.00  0.00     0.032 A 
HETATM    3  C   UNL     1       5.281  29.447  51.428  1.00  0.00     0.032 A 
HETATM    4  C   UNL     1       3.917  29.717  51.519  1.00  0.00     0.036 A 
HETATM    5  C   UNL     1       3.162  29.008  52.460  1.00  0.00     0.032 A 
HETATM    6  C   UNL     1       3.757  28.038  53.276  1.00  0.00     0.032 A 
ENDROOT
BRANCH   1   7
HETATM    7  N   UNL     1       5.647  26.783  54.030  1.00  0.00    -0.322 N 
HETATM    8  C   UNL     1       5.495  25.410  53.986  1.00  0.00     0.277 C 
HETATM    9  O   UNL     1       4.798  24.781  53.197  1.00  0.00    -0.266 OA
HETATM   10  H   UNL     1       6.237  27.094  54.798  1.00  0.00     0.169 HD
BRANCH   8  11
HETATM   11  C   UNL     1       6.289  24.744  55.039  1.00  0.00     0.157 A 
HETATM   12  C   UNL     1       7.089  23.571  54.915  1.00  0.00     0.029 A 
HETATM   13  C   UNL     1       7.403  22.657  53.888  1.00  0.00     0.023 A 
HETATM   14  C   UNL     1       7.647  23.380  56.173  1.00  0.00     0.063 A 
HETATM   15  C   UNL     1       8.267  21.583  54.157  1.00  0.00    -0.061 A 
HETATM   16  C   UNL     1       8.603  20.589  53.083  1.00  0.00     0.048 C 
HETATM   17  C   UNL     1       8.812  21.431  55.439  1.00  0.00     0.009 A 
HETATM   18  C   UNL     1       8.515  22.326  56.472  1.00  0.00     0.032 A 
HETATM   19  N   UNL     1       7.162  24.400  56.942  1.00  0.00    -0.277 N 
HETATM   20  H   UNL     1       7.362  24.577  57.920  1.00  0.00     0.189 HD
HETATM   21  N   UNL     1       6.327  25.237  56.300  1.00  0.00    -0.168 NA
ENDBRANCH   8  11
ENDBRANCH   1   7
BRANCH   4  22
HETATM   22  N   UNL     1       3.230  30.693  50.771  1.00  0.00    -0.309 N 
HETATM   23  C   UNL     1       3.091  30.939  49.441  1.00  0.00     0.320 C 
HETATM   24  N   UNL     1       3.478  29.978  48.564  1.00  0.00    -0.339 N 
HETATM   25  O   UNL     1       2.589  32.005  49.087  1.00  0.00    -0.247 OA
HETATM   26  H   UNL     1       3.311  29.038  48.891  1.00  0.00     0.164 HD
HETATM   27  H   UNL     1       2.777  31.423  51.305  1.00  0.00     0.170 HD
BRANCH  24  28
HETATM   28  C   UNL     1       3.279  30.181  47.149  1.00  0.00     0.150 C 
BRANCH  28  29
HETATM   29  C   UNL     1       4.551  30.625  46.493  1.00  0.00    -0.018 C 
HETATM   30  C   UNL     1       4.929  31.885  46.236  1.00  0.00     0.008 C 
ENDBRANCH  28  29
ENDBRANCH  24  28
ENDBRANCH   4  22
TORSDOF 5
ENDMDL
