MODEL 1
REMARK VINA RESULT:      -8.9      0.000      0.000
REMARK  5 active torsions:
REMARK  status: ('A' for Active; 'I' for Inactive)
REMARK    1  A    between atoms: O_2  and  C_3 
REMARK    2  A    between atoms: C_4  and  N_5 
REMARK       I    between atoms: N_5  and  C_6 
REMARK    3  A    between atoms: C_6  and  C_7 
REMARK    4  A    between atoms: C_8  and  S_9 
REMARK    5  A    between atoms: S_9  and  C_10 
ROOT
HETATM    1  C   UNL     1       6.625  26.890  54.163  1.00  0.00     0.068 A 
HETATM    2  C   UNL     1       6.652  25.538  54.487  1.00  0.00     0.113 A 
HETATM    3  N   UNL     1       5.688  24.680  54.053  1.00  0.00    -0.253 NA
HETATM    4  C   UNL     1       4.702  25.183  53.277  1.00  0.00     0.118 A 
HETATM    5  C   UNL     1       4.614  26.514  52.904  1.00  0.00     0.020 A 
HETATM    6  C   UNL     1       5.597  27.386  53.356  1.00  0.00     0.021 A 
ENDROOT
BRANCH   1   7
HETATM    7  C   UNL     1       7.643  27.834  54.642  1.00  0.00     0.259 C 
HETATM    8  N   UNL     1       7.555  28.095  55.991  1.00  0.00    -0.320 N 
HETATM    9  H   UNL     1       6.830  27.626  56.529  1.00  0.00     0.169 HD
HETATM   10  O   UNL     1       8.402  28.336  53.825  1.00  0.00    -0.267 OA
BRANCH   8  11
HETATM   11  C   UNL     1       8.368  28.957  56.756  1.00  0.00     0.071 A 
HETATM   12  C   UNL     1       7.720  29.780  57.696  1.00  0.00     0.095 A 
HETATM   13  C   UNL     1       8.443  30.634  58.532  1.00  0.00     0.042 A 
HETATM   14  C   UNL     1       9.829  30.698  58.406  1.00  0.00     0.045 A 
HETATM   15  C   UNL     1      10.467  29.905  57.458  1.00  0.00     0.118 A 
HETATM   16  C   UNL     1       9.755  29.035  56.634  1.00  0.00     0.074 A 
HETATM   17  F   UNL     1      11.801  29.974  57.345  1.00  0.00    -0.206 F 
BRANCH  12  18
HETATM   18  O   UNL     1       6.352  29.691  57.807  1.00  0.00    -0.354 OA
HETATM   19  C   UNL     1       5.757  30.990  57.745  1.00  0.00     0.210 C 
ENDBRANCH  12  18
ENDBRANCH   8  11
ENDBRANCH   1   7
BRANCH   2  20
HETATM   20  S   UNL     1       7.938  24.800  55.478  1.00  0.00    -0.070 SA
BRANCH  20  21
HETATM   21  C   UNL     1       7.948  23.142  54.823  1.00  0.00     0.007 A 
HETATM   22  C   UNL     1       8.200  22.902  53.469  1.00  0.00     0.019 A 
HETATM   23  C   UNL     1       8.222  21.597  52.975  1.00  0.00     0.001 A 
HETATM   24  C   UNL     1       7.997  20.523  53.834  1.00  0.00     0.000 A 
HETATM   25  C   UNL     1       7.751  20.753  55.187  1.00  0.00     0.001 A 
HETATM   26  C   UNL     1       7.733  22.060  55.681  1.00  0.00     0.019 A 
ENDBRANCH  20  21
ENDBRANCH   2  20
TORSDOF 5
ENDMDL
MODEL 2
REMARK VINA RESULT:      -8.9      2.959      6.823
REMARK  5 active torsions:
REMARK  status: ('A' for Active; 'I' for Inactive)
REMARK    1  A    between atoms: O_2  and  C_3 
REMARK    2  A    between atoms: C_4  and  N_5 
REMARK       I    between atoms: N_5  and  C_6 
REMARK    3  A    between atoms: C_6  and  C_7 
REMARK    4  A    between atoms: C_8  and  S_9 
REMARK    5  A    between atoms: S_9  and  C_10 
ROOT
HETATM    1  C   UNL     1       5.818  26.593  53.987  1.00  0.00     0.068 A 
HETATM    2  C   UNL     1       5.312  27.149  55.158  1.00  0.00     0.113 A 
HETATM    3  N   UNL     1       4.337  28.099  55.133  1.00  0.00    -0.253 NA
HETATM    4  C   UNL     1       3.859  28.479  53.927  1.00  0.00     0.118 A 
HETATM    5  C   UNL     1       4.305  27.964  52.722  1.00  0.00     0.020 A 
HETATM    6  C   UNL     1       5.305  27.001  52.752  1.00  0.00     0.021 A 
ENDROOT
BRANCH   1   7
HETATM    7  C   UNL     1       6.887  25.585  53.993  1.00  0.00     0.259 C 
HETATM    8  N   UNL     1       6.426  24.301  54.177  1.00  0.00    -0.320 N 
HETATM    9  H   UNL     1       5.424  24.156  54.280  1.00  0.00     0.169 HD
HETATM   10  O   UNL     1       8.045  25.966  53.906  1.00  0.00    -0.267 OA
BRANCH   8  11
HETATM   11  C   UNL     1       7.186  23.115  54.243  1.00  0.00     0.071 A 
HETATM   12  C   UNL     1       7.710  22.761  55.501  1.00  0.00     0.095 A 
HETATM   13  C   UNL     1       8.436  21.581  55.677  1.00  0.00     0.042 A 
HETATM   14  C   UNL     1       8.679  20.760  54.577  1.00  0.00     0.045 A 
HETATM   15  C   UNL     1       8.186  21.125  53.328  1.00  0.00     0.118 A 
HETATM   16  C   UNL     1       7.441  22.290  53.149  1.00  0.00     0.074 A 
HETATM   17  F   UNL     1       8.425  20.328  52.277  1.00  0.00    -0.206 F 
BRANCH  12  18
HETATM   18  O   UNL     1       7.448  23.583  56.571  1.00  0.00    -0.354 OA
HETATM   19  C   UNL     1       8.667  24.047  57.159  1.00  0.00     0.210 C 
ENDBRANCH  12  18
ENDBRANCH   8  11
ENDBRANCH   1   7
BRANCH   2  20
HETATM   20  S   UNL     1       5.872  26.673  56.782  1.00  0.00    -0.070 SA
BRANCH  20  21
HETATM   21  C   UNL     1       7.042  27.974  57.121  1.00  0.00     0.007 A 
HETATM   22  C   UNL     1       6.627  29.198  57.654  1.00  0.00     0.019 A 
HETATM   23  C   UNL     1       7.558  30.201  57.930  1.00  0.00     0.001 A 
HETATM   24  C   UNL     1       8.912  29.983  57.679  1.00  0.00     0.000 A 
HETATM   25  C   UNL     1       9.335  28.762  57.155  1.00  0.00     0.001 A 
HETATM   26  C   UNL     1       8.403  27.758  56.881  1.00  0.00     0.019 A 
ENDBRANCH  20  21
ENDBRANCH   2  20
TORSDOF 5
ENDMDL
MODEL 3
REMARK VINA RESULT:      -8.8      3.167      6.619
REMARK  5 active torsions:
REMARK  status: ('A' for Active; 'I' for Inactive)
REMARK    1  A    between atoms: O_2  and  C_3 
REMARK    2  A    between atoms: C_4  and  N_5 
REMARK       I    between atoms: N_5  and  C_6 
REMARK    3  A    between atoms: C_6  and  C_7 
REMARK    4  A    between atoms: C_8  and  S_9 
REMARK    5  A    between atoms: S_9  and  C_10 
ROOT
HETATM    1  C   UNL     1       5.391  26.646  52.642  1.00  0.00     0.068 A 
HETATM    2  C   UNL     1       5.176  27.654  53.577  1.00  0.00     0.113 A 
HETATM    3  N   UNL     1       5.096  28.962  53.210  1.00  0.00    -0.253 NA
HETATM    4  C   UNL     1       5.217  29.256  51.896  1.00  0.00     0.118 A 
HETATM    5  C   UNL     1       5.421  28.308  50.908  1.00  0.00     0.020 A 
HETATM    6  C   UNL     1       5.510  26.975  51.289  1.00  0.00     0.021 A 
ENDROOT
BRANCH   1   7
HETATM    7  C   UNL     1       5.504  25.232  53.023  1.00  0.00     0.259 C 
HETATM    8  N   UNL     1       6.784  24.859  53.367  1.00  0.00    -0.320 N 
HETATM    9  H   UNL     1       7.517  25.564  53.342  1.00  0.00     0.169 HD
HETATM   10  O   UNL     1       4.510  24.525  52.938  1.00  0.00    -0.267 OA
BRANCH   8  11
HETATM   11  C   UNL     1       7.231  23.582  53.766  1.00  0.00     0.071 A 
HETATM   12  C   UNL     1       7.273  23.324  55.150  1.00  0.00     0.095 A 
HETATM   13  C   UNL     1       7.656  22.074  55.642  1.00  0.00     0.042 A 
HETATM   14  C   UNL     1       8.042  21.078  54.747  1.00  0.00     0.045 A 
HETATM   15  C   UNL     1       8.027  21.343  53.380  1.00  0.00     0.118 A 
HETATM   16  C   UNL     1       7.625  22.581  52.881  1.00  0.00     0.074 A 
HETATM   17  F   UNL     1       8.400  20.378  52.528  1.00  0.00    -0.206 F 
BRANCH  12  18
HETATM   18  O   UNL     1       6.879  24.320  56.012  1.00  0.00    -0.354 OA
HETATM   19  C   UNL     1       7.939  24.656  56.910  1.00  0.00     0.210 C 
ENDBRANCH  12  18
ENDBRANCH   8  11
ENDBRANCH   1   7
BRANCH   2  20
HETATM   20  S   UNL     1       4.976  27.337  55.321  1.00  0.00    -0.070 SA
BRANCH  20  21
HETATM   21  C   UNL     1       6.505  28.000  55.952  1.00  0.00     0.007 A 
HETATM   22  C   UNL     1       7.533  28.394  55.090  1.00  0.00     0.019 A 
HETATM   23  C   UNL     1       8.718  28.927  55.599  1.00  0.00     0.001 A 
HETATM   24  C   UNL     1       8.879  29.076  56.975  1.00  0.00     0.000 A 
HETATM   25  C   UNL     1       7.857  28.693  57.843  1.00  0.00     0.001 A 
HETATM   26  C   UNL     1       6.670  28.161  57.331  1.00  0.00     0.019 A 
ENDBRANCH  20  21
ENDBRANCH   2  20
TORSDOF 5
ENDMDL
MODEL 4
REMARK VINA RESULT:      -8.7      3.509      6.054
REMARK  5 active torsions:
REMARK  status: ('A' for Active; 'I' for Inactive)
REMARK    1  A    between atoms: O_2  and  C_3 
REMARK    2  A    between atoms: C_4  and  N_5 
REMARK       I    between atoms: N_5  and  C_6 
REMARK    3  A    between atoms: C_6  and  C_7 
REMARK    4  A    between atoms: C_8  and  S_9 
REMARK    5  A    between atoms: S_9  and  C_10 
ROOT
HETATM    1  C   UNL     1       6.571  27.692  54.892  1.00  0.00     0.068 A 
HETATM    2  C   UNL     1       6.728  26.652  55.802  1.00  0.00     0.113 A 
HETATM    3  N   UNL     1       7.658  26.707  56.794  1.00  0.00    -0.253 NA
HETATM    4  C   UNL     1       8.422  27.819  56.880  1.00  0.00     0.118 A 
HETATM    5  C   UNL     1       8.317  28.897  56.018  1.00  0.00     0.020 A 
HETATM    6  C   UNL     1       7.371  28.833  55.003  1.00  0.00     0.021 A 
ENDROOT
BRANCH   1   7
HETATM    7  C   UNL     1       5.589  27.640  53.800  1.00  0.00     0.259 C 
HETATM    8  N   UNL     1       6.162  27.492  52.557  1.00  0.00    -0.320 N 
HETATM    9  H   UNL     1       7.175  27.423  52.495  1.00  0.00     0.169 HD
HETATM   10  O   UNL     1       4.408  27.795  54.073  1.00  0.00    -0.267 OA
BRANCH   8  11
HETATM   11  C   UNL     1       5.506  27.420  51.310  1.00  0.00     0.071 A 
HETATM   12  C   UNL     1       5.427  28.608  50.559  1.00  0.00     0.095 A 
HETATM   13  C   UNL     1       4.838  28.626  49.293  1.00  0.00     0.042 A 
HETATM   14  C   UNL     1       4.285  27.454  48.781  1.00  0.00     0.045 A 
HETATM   15  C   UNL     1       4.338  26.286  49.536  1.00  0.00     0.118 A 
HETATM   16  C   UNL     1       4.943  26.255  50.791  1.00  0.00     0.074 A 
HETATM   17  F   UNL     1       3.803  25.164  49.034  1.00  0.00    -0.206 F 
BRANCH  12  18
HETATM   18  O   UNL     1       5.988  29.749  51.082  1.00  0.00    -0.354 OA
HETATM   19  C   UNL     1       5.569  30.899  50.345  1.00  0.00     0.210 C 
ENDBRANCH  12  18
ENDBRANCH   8  11
ENDBRANCH   1   7
BRANCH   2  20
HETATM   20  S   UNL     1       5.734  25.171  55.769  1.00  0.00    -0.070 SA
BRANCH  20  21
HETATM   21  C   UNL     1       6.815  24.071  54.875  1.00  0.00     0.007 A 
HETATM   22  C   UNL     1       6.867  24.086  53.478  1.00  0.00     0.019 A 
HETATM   23  C   UNL     1       7.732  23.231  52.794  1.00  0.00     0.001 A 
HETATM   24  C   UNL     1       8.555  22.359  53.503  1.00  0.00     0.000 A 
HETATM   25  C   UNL     1       8.516  22.343  54.897  1.00  0.00     0.001 A 
HETATM   26  C   UNL     1       7.652  23.201  55.581  1.00  0.00     0.019 A 
ENDBRANCH  20  21
ENDBRANCH   2  20
TORSDOF 5
ENDMDL
MODEL 5
REMARK VINA RESULT:      -8.6      3.583      6.923
REMARK  5 active torsions:
REMARK  status: ('A' for Active; 'I' for Inactive)
REMARK    1  A    between atoms: O_2  and  C_3 
REMARK    2  A    between atoms: C_4  and  N_5 
REMARK       I    between atoms: N_5  and  C_6 
REMARK    3  A    between atoms: C_6  and  C_7 
REMARK    4  A    between atoms: C_8  and  S_9 
REMARK    5  A    between atoms: S_9  and  C_10 
ROOT
HETATM    1  C   UNL     1       6.537  24.352  53.479  1.00  0.00     0.068 A 
HETATM    2  C   UNL     1       6.758  24.707  54.805  1.00  0.00     0.113 A 
HETATM    3  N   UNL     1       7.755  24.141  55.539  1.00  0.00    -0.253 NA
HETATM    4  C   UNL     1       8.542  23.225  54.931  1.00  0.00     0.118 A 
HETATM    5  C   UNL     1       8.390  22.829  53.613  1.00  0.00     0.020 A 
HETATM    6  C   UNL     1       7.367  23.405  52.871  1.00  0.00     0.021 A 
ENDROOT
BRANCH   1   7
HETATM    7  C   UNL     1       5.452  24.935  52.678  1.00  0.00     0.259 C 
HETATM    8  N   UNL     1       5.873  25.935  51.831  1.00  0.00    -0.320 N 
HETATM    9  H   UNL     1       6.862  26.174  51.818  1.00  0.00     0.169 HD
HETATM   10  O   UNL     1       4.310  24.545  52.877  1.00  0.00    -0.267 OA
BRANCH   8  11
HETATM   11  C   UNL     1       5.087  26.699  50.944  1.00  0.00     0.071 A 
HETATM   12  C   UNL     1       4.620  27.942  51.412  1.00  0.00     0.095 A 
HETATM   13  C   UNL     1       3.874  28.791  50.592  1.00  0.00     0.042 A 
HETATM   14  C   UNL     1       3.554  28.382  49.299  1.00  0.00     0.045 A 
HETATM   15  C   UNL     1       3.992  27.141  48.846  1.00  0.00     0.118 A 
HETATM   16  C   UNL     1       4.756  26.297  49.651  1.00  0.00     0.074 A 
HETATM   17  F   UNL     1       3.680  26.757  47.600  1.00  0.00    -0.206 F 
BRANCH  12  18
HETATM   18  O   UNL     1       4.957  28.326  52.689  1.00  0.00    -0.354 OA
HETATM   19  C   UNL     1       3.798  28.362  53.525  1.00  0.00     0.210 C 
ENDBRANCH  12  18
ENDBRANCH   8  11
ENDBRANCH   1   7
BRANCH   2  20
HETATM   20  S   UNL     1       5.781  25.929  55.661  1.00  0.00    -0.070 SA
BRANCH  20  21
HETATM   21  C   UNL     1       7.019  27.168  55.991  1.00  0.00     0.007 A 
HETATM   22  C   UNL     1       7.584  27.918  54.955  1.00  0.00     0.019 A 
HETATM   23  C   UNL     1       8.540  28.897  55.232  1.00  0.00     0.001 A 
HETATM   24  C   UNL     1       8.932  29.135  56.548  1.00  0.00     0.000 A 
HETATM   25  C   UNL     1       8.368  28.397  57.588  1.00  0.00     0.001 A 
HETATM   26  C   UNL     1       7.410  27.419  57.310  1.00  0.00     0.019 A 
ENDBRANCH  20  21
ENDBRANCH   2  20
TORSDOF 5
ENDMDL
MODEL 6
REMARK VINA RESULT:      -8.5      4.052      7.114
REMARK  5 active torsions:
REMARK  status: ('A' for Active; 'I' for Inactive)
REMARK    1  A    between atoms: O_2  and  C_3 
REMARK    2  A    between atoms: C_4  and  N_5 
REMARK       I    between atoms: N_5  and  C_6 
REMARK    3  A    between atoms: C_6  and  C_7 
REMARK    4  A    between atoms: C_8  and  S_9 
REMARK    5  A    between atoms: S_9  and  C_10 
ROOT
HETATM    1  C   UNL     1       5.879  26.508  53.708  1.00  0.00     0.068 A 
HETATM    2  C   UNL     1       4.915  26.658  52.716  1.00  0.00     0.113 A 
HETATM    3  N   UNL     1       3.941  27.604  52.806  1.00  0.00    -0.253 NA
HETATM    4  C   UNL     1       3.946  28.413  53.889  1.00  0.00     0.118 A 
HETATM    5  C   UNL     1       4.877  28.330  54.911  1.00  0.00     0.020 A 
HETATM    6  C   UNL     1       5.865  27.358  54.818  1.00  0.00     0.021 A 
ENDROOT
BRANCH   1   7
HETATM    7  C   UNL     1       6.923  25.476  53.641  1.00  0.00     0.259 C 
HETATM    8  N   UNL     1       6.531  24.266  54.167  1.00  0.00    -0.320 N 
HETATM    9  H   UNL     1       5.587  24.181  54.536  1.00  0.00     0.169 HD
HETATM   10  O   UNL     1       8.022  25.789  53.205  1.00  0.00    -0.267 OA
BRANCH   8  11
HETATM   11  C   UNL     1       7.293  23.083  54.265  1.00  0.00     0.071 A 
HETATM   12  C   UNL     1       7.823  22.767  55.530  1.00  0.00     0.095 A 
HETATM   13  C   UNL     1       8.550  21.593  55.738  1.00  0.00     0.042 A 
HETATM   14  C   UNL     1       8.788  20.739  54.663  1.00  0.00     0.045 A 
HETATM   15  C   UNL     1       8.288  21.066  53.406  1.00  0.00     0.118 A 
HETATM   16  C   UNL     1       7.542  22.225  53.195  1.00  0.00     0.074 A 
HETATM   17  F   UNL     1       8.522  20.238  52.379  1.00  0.00    -0.206 F 
BRANCH  12  18
HETATM   18  O   UNL     1       7.566  23.621  56.577  1.00  0.00    -0.354 OA
HETATM   19  C   UNL     1       8.779  24.205  57.058  1.00  0.00     0.210 C 
ENDBRANCH  12  18
ENDBRANCH   8  11
ENDBRANCH   1   7
BRANCH   2  20
HETATM   20  S   UNL     1       4.866  25.650  51.246  1.00  0.00    -0.070 SA
BRANCH  20  21
HETATM   21  C   UNL     1       4.901  26.908  49.984  1.00  0.00     0.007 A 
HETATM   22  C   UNL     1       4.216  26.739  48.776  1.00  0.00     0.019 A 
HETATM   23  C   UNL     1       4.239  27.741  47.805  1.00  0.00     0.001 A 
HETATM   24  C   UNL     1       4.942  28.922  48.039  1.00  0.00     0.000 A 
HETATM   25  C   UNL     1       5.621  29.102  49.243  1.00  0.00     0.001 A 
HETATM   26  C   UNL     1       5.596  28.099  50.216  1.00  0.00     0.019 A 
ENDBRANCH  20  21
ENDBRANCH   2  20
TORSDOF 5
ENDMDL
MODEL 7
REMARK VINA RESULT:      -8.4      2.293      3.267
REMARK  5 active torsions:
REMARK  status: ('A' for Active; 'I' for Inactive)
REMARK    1  A    between atoms: O_2  and  C_3 
REMARK    2  A    between atoms: C_4  and  N_5 
REMARK       I    between atoms: N_5  and  C_6 
REMARK    3  A    between atoms: C_6  and  C_7 
REMARK    4  A    between atoms: C_8  and  S_9 
REMARK    5  A    between atoms: S_9  and  C_10 
ROOT
HETATM    1  C   UNL     1       5.236  28.484  54.472  1.00  0.00     0.068 A 
HETATM    2  C   UNL     1       6.050  27.974  53.466  1.00  0.00     0.113 A 
HETATM    3  N   UNL     1       5.590  27.795  52.198  1.00  0.00    -0.253 NA
HETATM    4  C   UNL     1       4.310  28.144  51.938  1.00  0.00     0.118 A 
HETATM    5  C   UNL     1       3.443  28.666  52.883  1.00  0.00     0.020 A 
HETATM    6  C   UNL     1       3.917  28.840  54.178  1.00  0.00     0.021 A 
ENDROOT
BRANCH   1   7
HETATM    7  C   UNL     1       5.708  28.662  55.852  1.00  0.00     0.259 C 
HETATM    8  N   UNL     1       6.453  29.805  56.032  1.00  0.00    -0.320 N 
HETATM    9  H   UNL     1       6.603  30.417  55.232  1.00  0.00     0.169 HD
HETATM   10  O   UNL     1       5.467  27.783  56.667  1.00  0.00    -0.267 OA
BRANCH   8  11
HETATM   11  C   UNL     1       7.058  30.261  57.222  1.00  0.00     0.071 A 
HETATM   12  C   UNL     1       8.388  29.863  57.456  1.00  0.00     0.095 A 
HETATM   13  C   UNL     1       9.087  30.301  58.582  1.00  0.00     0.042 A 
HETATM   14  C   UNL     1       8.442  31.116  59.511  1.00  0.00     0.045 A 
HETATM   15  C   UNL     1       7.118  31.486  59.294  1.00  0.00     0.118 A 
HETATM   16  C   UNL     1       6.421  31.071  58.161  1.00  0.00     0.074 A 
HETATM   17  F   UNL     1       6.507  32.269  60.193  1.00  0.00    -0.206 F 
BRANCH  12  18
HETATM   18  O   UNL     1       9.005  29.067  56.520  1.00  0.00    -0.354 OA
HETATM   19  C   UNL     1      10.185  29.701  56.020  1.00  0.00     0.210 C 
ENDBRANCH  12  18
ENDBRANCH   8  11
ENDBRANCH   1   7
BRANCH   2  20
HETATM   20  S   UNL     1       7.756  27.523  53.729  1.00  0.00    -0.070 SA
BRANCH  20  21
HETATM   21  C   UNL     1       7.625  25.746  53.756  1.00  0.00     0.007 A 
HETATM   22  C   UNL     1       7.157  25.073  54.889  1.00  0.00     0.019 A 
HETATM   23  C   UNL     1       7.044  23.681  54.887  1.00  0.00     0.001 A 
HETATM   24  C   UNL     1       7.391  22.955  53.749  1.00  0.00     0.000 A 
HETATM   25  C   UNL     1       7.851  23.620  52.613  1.00  0.00     0.001 A 
HETATM   26  C   UNL     1       7.962  25.012  52.614  1.00  0.00     0.019 A 
ENDBRANCH  20  21
ENDBRANCH   2  20
TORSDOF 5
ENDMDL
MODEL 8
REMARK VINA RESULT:      -8.4      2.816      7.191
REMARK  5 active torsions:
REMARK  status: ('A' for Active; 'I' for Inactive)
REMARK    1  A    between atoms: O_2  and  C_3 
REMARK    2  A    between atoms: C_4  and  N_5 
REMARK       I    between atoms: N_5  and  C_6 
REMARK    3  A    between atoms: C_6  and  C_7 
REMARK    4  A    between atoms: C_8  and  S_9 
REMARK    5  A    between atoms: S_9  and  C_10 
ROOT
HETATM    1  C   UNL     1       5.579  27.687  55.728  1.00  0.00     0.068 A 
HETATM    2  C   UNL     1       6.309  28.475  56.611  1.00  0.00     0.113 A 
HETATM    3  N   UNL     1       6.152  29.826  56.660  1.00  0.00    -0.253 NA
HETATM    4  C   UNL     1       5.245  30.384  55.827  1.00  0.00     0.118 A 
HETATM    5  C   UNL     1       4.474  29.665  54.929  1.00  0.00     0.020 A 
HETATM    6  C   UNL     1       4.645  28.287  54.879  1.00  0.00     0.021 A 
ENDROOT
BRANCH   1   7
HETATM    7  C   UNL     1       5.753  26.230  55.644  1.00  0.00     0.259 C 
HETATM    8  N   UNL     1       6.748  25.848  54.773  1.00  0.00    -0.320 N 
HETATM    9  H   UNL     1       7.268  26.572  54.284  1.00  0.00     0.169 HD
HETATM   10  O   UNL     1       4.988  25.516  56.276  1.00  0.00    -0.267 OA
BRANCH   8  11
HETATM   11  C   UNL     1       7.158  24.535  54.457  1.00  0.00     0.071 A 
HETATM   12  C   UNL     1       7.619  24.308  53.146  1.00  0.00     0.095 A 
HETATM   13  C   UNL     1       8.089  23.054  52.752  1.00  0.00     0.042 A 
HETATM   14  C   UNL     1       8.066  21.999  53.662  1.00  0.00     0.045 A 
HETATM   15  C   UNL     1       7.584  22.217  54.949  1.00  0.00     0.118 A 
HETATM   16  C   UNL     1       7.132  23.472  55.357  1.00  0.00     0.074 A 
HETATM   17  F   UNL     1       7.565  21.197  55.818  1.00  0.00    -0.206 F 
BRANCH  12  18
HETATM   18  O   UNL     1       7.640  25.367  52.270  1.00  0.00    -0.354 OA
HETATM   19  C   UNL     1       6.395  25.469  51.574  1.00  0.00     0.210 C 
ENDBRANCH  12  18
ENDBRANCH   8  11
ENDBRANCH   1   7
BRANCH   2  20
HETATM   20  S   UNL     1       7.499  27.804  57.759  1.00  0.00    -0.070 SA
BRANCH  20  21
HETATM   21  C   UNL     1       8.680  29.137  57.824  1.00  0.00     0.007 A 
HETATM   22  C   UNL     1       9.726  29.221  56.900  1.00  0.00     0.019 A 
HETATM   23  C   UNL     1      10.633  30.281  56.953  1.00  0.00     0.001 A 
HETATM   24  C   UNL     1      10.495  31.268  57.928  1.00  0.00     0.000 A 
HETATM   25  C   UNL     1       9.450  31.196  58.849  1.00  0.00     0.001 A 
HETATM   26  C   UNL     1       8.541  30.136  58.793  1.00  0.00     0.019 A 
ENDBRANCH  20  21
ENDBRANCH   2  20
TORSDOF 5
ENDMDL
MODEL 9
REMARK VINA RESULT:      -8.3      8.442     12.773
REMARK  5 active torsions:
REMARK  status: ('A' for Active; 'I' for Inactive)
REMARK    1  A    between atoms: O_2  and  C_3 
REMARK    2  A    between atoms: C_4  and  N_5 
REMARK       I    between atoms: N_5  and  C_6 
REMARK    3  A    between atoms: C_6  and  C_7 
REMARK    4  A    between atoms: C_8  and  S_9 
REMARK    5  A    between atoms: S_9  and  C_10 
ROOT
HETATM    1  C   UNL     1       5.070  33.987  64.914  1.00  0.00     0.068 A 
HETATM    2  C   UNL     1       4.197  34.997  64.521  1.00  0.00     0.113 A 
HETATM    3  N   UNL     1       3.790  35.965  65.387  1.00  0.00    -0.253 NA
HETATM    4  C   UNL     1       4.275  35.926  66.648  1.00  0.00     0.118 A 
HETATM    5  C   UNL     1       5.154  34.960  67.109  1.00  0.00     0.020 A 
HETATM    6  C   UNL     1       5.561  33.970  66.223  1.00  0.00     0.021 A 
ENDROOT
BRANCH   1   7
HETATM    7  C   UNL     1       5.502  32.921  64.000  1.00  0.00     0.259 C 
HETATM    8  N   UNL     1       6.690  33.196  63.361  1.00  0.00    -0.320 N 
HETATM    9  H   UNL     1       7.160  34.073  63.570  1.00  0.00     0.169 HD
HETATM   10  O   UNL     1       4.766  31.957  63.843  1.00  0.00    -0.267 OA
BRANCH   8  11
HETATM   11  C   UNL     1       7.368  32.393  62.421  1.00  0.00     0.071 A 
HETATM   12  C   UNL     1       6.961  32.500  61.077  1.00  0.00     0.095 A 
HETATM   13  C   UNL     1       7.602  31.780  60.067  1.00  0.00     0.042 A 
HETATM   14  C   UNL     1       8.638  30.911  60.401  1.00  0.00     0.045 A 
HETATM   15  C   UNL     1       9.022  30.784  61.733  1.00  0.00     0.118 A 
HETATM   16  C   UNL     1       8.401  31.516  62.745  1.00  0.00     0.074 A 
HETATM   17  F   UNL     1      10.020  29.946  62.045  1.00  0.00    -0.206 F 
BRANCH  12  18
HETATM   18  O   UNL     1       5.942  33.371  60.772  1.00  0.00    -0.354 OA
HETATM   19  C   UNL     1       4.836  32.670  60.197  1.00  0.00     0.210 C 
ENDBRANCH  12  18
ENDBRANCH   8  11
ENDBRANCH   1   7
BRANCH   2  20
HETATM   20  S   UNL     1       3.544  35.129  62.867  1.00  0.00    -0.070 SA
BRANCH  20  21
HETATM   21  C   UNL     1       4.303  36.651  62.334  1.00  0.00     0.007 A 
HETATM   22  C   UNL     1       3.529  37.723  61.878  1.00  0.00     0.019 A 
HETATM   23  C   UNL     1       4.138  38.915  61.481  1.00  0.00     0.001 A 
HETATM   24  C   UNL     1       5.524  39.044  61.544  1.00  0.00     0.000 A 
HETATM   25  C   UNL     1       6.302  37.982  62.005  1.00  0.00     0.001 A 
HETATM   26  C   UNL     1       5.692  36.791  62.405  1.00  0.00     0.019 A 
ENDBRANCH  20  21
ENDBRANCH   2  20
TORSDOF 5
ENDMDL
MODEL 10
REMARK VINA RESULT:      -8.3      3.220      6.842
REMARK  5 active torsions:
REMARK  status: ('A' for Active; 'I' for Inactive)
REMARK    1  A    between atoms: O_2  and  C_3 
REMARK    2  A    between atoms: C_4  and  N_5 
REMARK       I    between atoms: N_5  and  C_6 
REMARK    3  A    between atoms: C_6  and  C_7 
REMARK    4  A    between atoms: C_8  and  S_9 
REMARK    5  A    between atoms: S_9  and  C_10 
ROOT
HETATM    1  C   UNL     1       7.172  25.265  55.558  1.00  0.00     0.068 A 
HETATM    2  C   UNL     1       7.463  26.085  56.644  1.00  0.00     0.113 A 
HETATM    3  N   UNL     1       8.387  25.730  57.578  1.00  0.00    -0.253 NA
HETATM    4  C   UNL     1       9.033  24.554  57.411  1.00  0.00     0.118 A 
HETATM    5  C   UNL     1       8.805  23.692  56.352  1.00  0.00     0.020 A 
HETATM    6  C   UNL     1       7.856  24.055  55.405  1.00  0.00     0.021 A 
ENDROOT
BRANCH   1   7
HETATM    7  C   UNL     1       6.161  25.619  54.554  1.00  0.00     0.259 C 
HETATM    8  N   UNL     1       6.657  26.389  53.526  1.00  0.00    -0.320 N 
HETATM    9  H   UNL     1       7.644  26.633  53.537  1.00  0.00     0.169 HD
HETATM   10  O   UNL     1       5.004  25.273  54.746  1.00  0.00    -0.267 OA
BRANCH   8  11
HETATM   11  C   UNL     1       5.952  26.903  52.418  1.00  0.00     0.071 A 
HETATM   12  C   UNL     1       5.485  28.228  52.515  1.00  0.00     0.095 A 
HETATM   13  C   UNL     1       4.818  28.841  51.453  1.00  0.00     0.042 A 
HETATM   14  C   UNL     1       4.577  28.113  50.289  1.00  0.00     0.045 A 
HETATM   15  C   UNL     1       5.014  26.795  50.203  1.00  0.00     0.118 A 
HETATM   16  C   UNL     1       5.699  26.183  51.252  1.00  0.00     0.074 A 
HETATM   17  F   UNL     1       4.776  26.103  49.080  1.00  0.00    -0.206 F 
BRANCH  12  18
HETATM   18  O   UNL     1       5.744  28.927  53.671  1.00  0.00    -0.354 OA
HETATM   19  C   UNL     1       4.527  29.387  54.263  1.00  0.00     0.210 C 
ENDBRANCH  12  18
ENDBRANCH   8  11
ENDBRANCH   1   7
BRANCH   2  20
HETATM   20  S   UNL     1       6.675  27.662  56.911  1.00  0.00    -0.070 SA
BRANCH  20  21
HETATM   21  C   UNL     1       8.100  28.727  57.022  1.00  0.00     0.007 A 
HETATM   22  C   UNL     1       8.408  29.400  58.208  1.00  0.00     0.019 A 
HETATM   23  C   UNL     1       9.538  30.216  58.284  1.00  0.00     0.001 A 
HETATM   24  C   UNL     1      10.370  30.359  57.175  1.00  0.00     0.000 A 
HETATM   25  C   UNL     1      10.074  29.686  55.990  1.00  0.00     0.001 A 
HETATM   26  C   UNL     1       8.944  28.867  55.916  1.00  0.00     0.019 A 
ENDBRANCH  20  21
ENDBRANCH   2  20
TORSDOF 5
ENDMDL
