MODEL 1
REMARK VINA RESULT:     -10.0      0.000      0.000
REMARK  3 active torsions:
REMARK  status: ('A' for Active; 'I' for Inactive)
REMARK    1  A    between atoms: C_10  and  C_11 
REMARK       I    between atoms: C_11  and  N_12 
REMARK    2  A    between atoms: C_14  and  O_15 
REMARK    3  A    between atoms: O_15  and  C_16 
ROOT
HETATM    1  C   UNL     1       6.342  28.034  53.730  1.00  0.00     0.255 C 
HETATM    2  N   UNL     1       5.854  26.755  53.535  1.00  0.00    -0.345 N 
HETATM    3  C   UNL     1       5.879  25.640  54.480  1.00  0.00     0.158 C 
HETATM    4  C   UNL     1       5.747  24.374  53.619  1.00  0.00     0.148 C 
HETATM    5  C   UNL     1       4.997  24.885  52.389  1.00  0.00     0.054 C 
HETATM    6  C   UNL     1       5.573  26.281  52.192  1.00  0.00     0.129 C 
HETATM    7  O   UNL     1       6.510  28.834  52.814  1.00  0.00    -0.267 OA
ENDROOT
BRANCH   1   8
HETATM    8  C   UNL     1       6.707  28.457  55.095  1.00  0.00     0.050 A 
HETATM    9  C   UNL     1       5.701  28.526  56.057  1.00  0.00     0.136 A 
HETATM   10  N   UNL     1       5.866  28.912  57.349  1.00  0.00    -0.240 NA
HETATM   11  C   UNL     1       7.148  29.214  57.634  1.00  0.00     0.155 A 
HETATM   12  N   UNL     1       7.632  29.632  58.838  1.00  0.00    -0.260 N 
HETATM   13  C   UNL     1       8.242  29.159  56.784  1.00  0.00     0.038 A 
HETATM   14  N   UNL     1       8.960  29.868  58.841  1.00  0.00    -0.177 NA
HETATM   15  H   UNL     1       7.101  29.776  59.687  1.00  0.00     0.191 HD
HETATM   16  C   UNL     1       9.338  29.572  57.588  1.00  0.00     0.065 A 
HETATM   17  C   UNL     1      10.758  29.709  57.181  1.00  0.00     0.073 C 
HETATM   18  C   UNL     1       8.027  28.747  55.460  1.00  0.00     0.036 A 
ENDBRANCH   1   8
BRANCH   4  19
HETATM   19  O   UNL     1       7.064  23.939  53.264  1.00  0.00    -0.344 OA
BRANCH  19  20
HETATM   20  C   UNL     1       7.529  22.769  53.796  1.00  0.00     0.070 A 
HETATM   21  C   UNL     1       7.676  22.479  55.151  1.00  0.00     0.060 A 
HETATM   22  C   UNL     1       8.175  21.236  55.543  1.00  0.00     0.036 A 
HETATM   23 CL   UNL     1       8.367  20.886  57.219  1.00  0.00    -0.084 Cl
HETATM   24  C   UNL     1       8.520  20.273  54.596  1.00  0.00     0.024 A 
HETATM   25  C   UNL     1       8.361  20.554  53.242  1.00  0.00     0.004 A 
HETATM   26  C   UNL     1       7.865  21.797  52.847  1.00  0.00     0.037 A 
ENDBRANCH  19  20
ENDBRANCH   4  19
TORSDOF 3
ENDMDL
MODEL 2
REMARK VINA RESULT:     -10.0      2.172      3.127
REMARK  3 active torsions:
REMARK  status: ('A' for Active; 'I' for Inactive)
REMARK    1  A    between atoms: C_10  and  C_11 
REMARK       I    between atoms: C_11  and  N_12 
REMARK    2  A    between atoms: C_14  and  O_15 
REMARK    3  A    between atoms: O_15  and  C_16 
ROOT
HETATM    1  C   UNL     1       7.186  28.247  55.642  1.00  0.00     0.255 C 
HETATM    2  N   UNL     1       6.957  26.972  56.128  1.00  0.00    -0.345 N 
HETATM    3  C   UNL     1       7.685  26.282  57.191  1.00  0.00     0.158 C 
HETATM    4  C   UNL     1       7.425  24.786  56.957  1.00  0.00     0.148 C 
HETATM    5  C   UNL     1       6.076  24.792  56.237  1.00  0.00     0.054 C 
HETATM    6  C   UNL     1       6.162  26.033  55.359  1.00  0.00     0.129 C 
HETATM    7  O   UNL     1       6.703  28.659  54.591  1.00  0.00    -0.267 OA
ENDROOT
BRANCH   1   8
HETATM    8  C   UNL     1       8.074  29.149  56.398  1.00  0.00     0.050 A 
HETATM    9  C   UNL     1       9.390  29.297  55.964  1.00  0.00     0.136 A 
HETATM   10  N   UNL     1      10.336  30.073  56.556  1.00  0.00    -0.240 NA
HETATM   11  C   UNL     1       9.861  30.730  57.632  1.00  0.00     0.155 A 
HETATM   12  N   UNL     1      10.562  31.580  58.435  1.00  0.00    -0.260 N 
HETATM   13  C   UNL     1       8.575  30.695  58.148  1.00  0.00     0.038 A 
HETATM   14  N   UNL     1       9.836  32.097  59.448  1.00  0.00    -0.177 NA
HETATM   15  H   UNL     1      11.535  31.839  58.339  1.00  0.00     0.191 HD
HETATM   16  C   UNL     1       8.618  31.564  59.272  1.00  0.00     0.065 A 
HETATM   17  C   UNL     1       7.513  31.893  60.205  1.00  0.00     0.073 C 
HETATM   18  C   UNL     1       7.627  29.886  57.501  1.00  0.00     0.036 A 
ENDBRANCH   1   8
BRANCH   4  19
HETATM   19  O   UNL     1       8.455  24.285  56.098  1.00  0.00    -0.344 OA
BRANCH  19  20
HETATM   20  C   UNL     1       8.428  22.964  55.750  1.00  0.00     0.070 A 
HETATM   21  C   UNL     1       8.410  22.452  54.454  1.00  0.00     0.060 A 
HETATM   22  C   UNL     1       8.376  21.070  54.256  1.00  0.00     0.036 A 
HETATM   23 CL   UNL     1       8.340  20.442  52.653  1.00  0.00    -0.084 Cl
HETATM   24  C   UNL     1       8.369  20.192  55.338  1.00  0.00     0.024 A 
HETATM   25  C   UNL     1       8.402  20.700  56.635  1.00  0.00     0.004 A 
HETATM   26  C   UNL     1       8.434  22.081  56.835  1.00  0.00     0.037 A 
ENDBRANCH  19  20
ENDBRANCH   4  19
TORSDOF 3
ENDMDL
MODEL 3
REMARK VINA RESULT:      -9.3      3.447      7.855
REMARK  3 active torsions:
REMARK  status: ('A' for Active; 'I' for Inactive)
REMARK    1  A    between atoms: C_10  and  C_11 
REMARK       I    between atoms: C_11  and  N_12 
REMARK    2  A    between atoms: C_14  and  O_15 
REMARK    3  A    between atoms: O_15  and  C_16 
ROOT
HETATM    1  C   UNL     1       5.866  25.490  55.973  1.00  0.00     0.255 C 
HETATM    2  N   UNL     1       6.341  26.782  55.848  1.00  0.00    -0.345 N 
HETATM    3  C   UNL     1       7.582  27.216  55.208  1.00  0.00     0.158 C 
HETATM    4  C   UNL     1       7.894  28.592  55.814  1.00  0.00     0.148 C 
HETATM    5  C   UNL     1       6.507  29.103  56.208  1.00  0.00     0.054 C 
HETATM    6  C   UNL     1       5.799  27.841  56.680  1.00  0.00     0.129 C 
HETATM    7  O   UNL     1       4.952  25.183  56.734  1.00  0.00    -0.267 OA
ENDROOT
BRANCH   1   8
HETATM    8  C   UNL     1       6.500  24.417  55.183  1.00  0.00     0.050 A 
HETATM    9  C   UNL     1       6.402  24.475  53.794  1.00  0.00     0.136 A 
HETATM   10  N   UNL     1       6.913  23.562  52.927  1.00  0.00    -0.240 NA
HETATM   11  C   UNL     1       7.567  22.566  53.556  1.00  0.00     0.155 A 
HETATM   12  N   UNL     1       8.185  21.504  52.965  1.00  0.00    -0.260 N 
HETATM   13  C   UNL     1       7.762  22.407  54.919  1.00  0.00     0.038 A 
HETATM   14  N   UNL     1       8.761  20.652  53.838  1.00  0.00    -0.177 NA
HETATM   15  H   UNL     1       8.241  21.311  51.973  1.00  0.00     0.191 HD
HETATM   16  C   UNL     1       8.511  21.205  55.034  1.00  0.00     0.065 A 
HETATM   17  C   UNL     1       8.989  20.552  56.277  1.00  0.00     0.073 C 
HETATM   18  C   UNL     1       7.224  23.379  55.779  1.00  0.00     0.036 A 
ENDBRANCH   1   8
BRANCH   4  19
HETATM   19  O   UNL     1       8.708  28.394  56.974  1.00  0.00    -0.344 OA
BRANCH  19  20
HETATM   20  C   UNL     1       8.956  29.463  57.788  1.00  0.00     0.070 A 
HETATM   21  C   UNL     1       8.250  29.803  58.941  1.00  0.00     0.060 A 
HETATM   22  C   UNL     1       8.619  30.936  59.668  1.00  0.00     0.036 A 
HETATM   23 CL   UNL     1       7.736  31.361  61.086  1.00  0.00    -0.084 Cl
HETATM   24  C   UNL     1       9.690  31.730  59.263  1.00  0.00     0.024 A 
HETATM   25  C   UNL     1      10.406  31.384  58.120  1.00  0.00     0.004 A 
HETATM   26  C   UNL     1      10.039  30.253  57.389  1.00  0.00     0.037 A 
ENDBRANCH  19  20
ENDBRANCH   4  19
TORSDOF 3
ENDMDL
MODEL 4
REMARK VINA RESULT:      -9.2      2.822      6.013
REMARK  3 active torsions:
REMARK  status: ('A' for Active; 'I' for Inactive)
REMARK    1  A    between atoms: C_10  and  C_11 
REMARK       I    between atoms: C_11  and  N_12 
REMARK    2  A    between atoms: C_14  and  O_15 
REMARK    3  A    between atoms: O_15  and  C_16 
ROOT
HETATM    1  C   UNL     1       4.862  28.035  53.201  1.00  0.00     0.255 C 
HETATM    2  N   UNL     1       5.859  27.431  53.946  1.00  0.00    -0.345 N 
HETATM    3  C   UNL     1       6.930  26.563  53.460  1.00  0.00     0.158 C 
HETATM    4  C   UNL     1       7.381  25.751  54.683  1.00  0.00     0.148 C 
HETATM    5  C   UNL     1       7.024  26.676  55.847  1.00  0.00     0.054 C 
HETATM    6  C   UNL     1       5.723  27.319  55.386  1.00  0.00     0.129 C 
HETATM    7  O   UNL     1       3.862  28.540  53.705  1.00  0.00    -0.267 OA
ENDROOT
BRANCH   1   8
HETATM    8  C   UNL     1       4.982  28.052  51.731  1.00  0.00     0.050 A 
HETATM    9  C   UNL     1       5.681  29.101  51.137  1.00  0.00     0.136 A 
HETATM   10  N   UNL     1       5.868  29.273  49.802  1.00  0.00    -0.240 NA
HETATM   11  C   UNL     1       5.309  28.285  49.075  1.00  0.00     0.155 A 
HETATM   12  N   UNL     1       5.323  28.174  47.716  1.00  0.00    -0.260 N 
HETATM   13  C   UNL     1       4.617  27.177  49.539  1.00  0.00     0.038 A 
HETATM   14  N   UNL     1       4.680  27.083  47.251  1.00  0.00    -0.177 NA
HETATM   15  H   UNL     1       5.751  28.815  47.061  1.00  0.00     0.191 HD
HETATM   16  C   UNL     1       4.254  26.466  48.364  1.00  0.00     0.065 A 
HETATM   17  C   UNL     1       3.485  25.201  48.272  1.00  0.00     0.073 C 
HETATM   18  C   UNL     1       4.456  27.035  50.927  1.00  0.00     0.036 A 
ENDBRANCH   1   8
BRANCH   4  19
HETATM   19  O   UNL     1       6.602  24.551  54.734  1.00  0.00    -0.344 OA
BRANCH  19  20
HETATM   20  C   UNL     1       7.236  23.354  54.563  1.00  0.00     0.070 A 
HETATM   21  C   UNL     1       7.734  22.532  55.573  1.00  0.00     0.060 A 
HETATM   22  C   UNL     1       8.368  21.333  55.240  1.00  0.00     0.036 A 
HETATM   23 CL   UNL     1       8.994  20.327  56.490  1.00  0.00    -0.084 Cl
HETATM   24  C   UNL     1       8.503  20.940  53.910  1.00  0.00     0.024 A 
HETATM   25  C   UNL     1       7.994  21.752  52.899  1.00  0.00     0.004 A 
HETATM   26  C   UNL     1       7.361  22.952  53.229  1.00  0.00     0.037 A 
ENDBRANCH  19  20
ENDBRANCH   4  19
TORSDOF 3
ENDMDL
MODEL 5
REMARK VINA RESULT:      -9.2      2.777      5.372
REMARK  3 active torsions:
REMARK  status: ('A' for Active; 'I' for Inactive)
REMARK    1  A    between atoms: C_10  and  C_11 
REMARK       I    between atoms: C_11  and  N_12 
REMARK    2  A    between atoms: C_14  and  O_15 
REMARK    3  A    between atoms: O_15  and  C_16 
ROOT
HETATM    1  C   UNL     1       5.268  27.438  54.517  1.00  0.00     0.255 C 
HETATM    2  N   UNL     1       6.311  26.840  55.201  1.00  0.00    -0.345 N 
HETATM    3  C   UNL     1       7.323  25.933  54.662  1.00  0.00     0.158 C 
HETATM    4  C   UNL     1       7.858  25.155  55.874  1.00  0.00     0.148 C 
HETATM    5  C   UNL     1       7.614  26.128  57.028  1.00  0.00     0.054 C 
HETATM    6  C   UNL     1       6.291  26.781  56.651  1.00  0.00     0.129 C 
HETATM    7  O   UNL     1       4.322  27.981  55.081  1.00  0.00    -0.267 OA
ENDROOT
BRANCH   1   8
HETATM    8  C   UNL     1       5.268  27.402  53.043  1.00  0.00     0.050 A 
HETATM    9  C   UNL     1       5.039  26.180  52.413  1.00  0.00     0.136 A 
HETATM   10  N   UNL     1       5.023  25.973  51.070  1.00  0.00    -0.240 NA
HETATM   11  C   UNL     1       5.236  27.107  50.373  1.00  0.00     0.155 A 
HETATM   12  N   UNL     1       5.280  27.226  49.016  1.00  0.00    -0.260 N 
HETATM   13  C   UNL     1       5.445  28.383  50.873  1.00  0.00     0.038 A 
HETATM   14  N   UNL     1       5.515  28.482  48.585  1.00  0.00    -0.177 NA
HETATM   15  H   UNL     1       5.160  26.483  48.339  1.00  0.00     0.191 HD
HETATM   16  C   UNL     1       5.609  29.195  49.718  1.00  0.00     0.065 A 
HETATM   17  C   UNL     1       5.872  30.653  49.668  1.00  0.00     0.073 C 
HETATM   18  C   UNL     1       5.446  28.552  52.267  1.00  0.00     0.036 A 
ENDBRANCH   1   8
BRANCH   4  19
HETATM   19  O   UNL     1       7.064  23.975  56.031  1.00  0.00    -0.344 OA
BRANCH  19  20
HETATM   20  C   UNL     1       7.607  22.772  55.679  1.00  0.00     0.070 A 
HETATM   21  C   UNL     1       7.665  22.236  54.394  1.00  0.00     0.060 A 
HETATM   22  C   UNL     1       8.248  20.984  54.192  1.00  0.00     0.036 A 
HETATM   23 CL   UNL     1       8.305  20.319  52.603  1.00  0.00    -0.084 Cl
HETATM   24  C   UNL     1       8.786  20.264  55.257  1.00  0.00     0.024 A 
HETATM   25  C   UNL     1       8.744  20.803  56.540  1.00  0.00     0.004 A 
HETATM   26  C   UNL     1       8.158  22.054  56.746  1.00  0.00     0.037 A 
ENDBRANCH  19  20
ENDBRANCH   4  19
TORSDOF 3
ENDMDL
MODEL 6
REMARK VINA RESULT:      -9.1      4.105      7.218
REMARK  3 active torsions:
REMARK  status: ('A' for Active; 'I' for Inactive)
REMARK    1  A    between atoms: C_10  and  C_11 
REMARK       I    between atoms: C_11  and  N_12 
REMARK    2  A    between atoms: C_14  and  O_15 
REMARK    3  A    between atoms: O_15  and  C_16 
ROOT
HETATM    1  C   UNL     1       7.216  25.636  55.400  1.00  0.00     0.255 C 
HETATM    2  N   UNL     1       6.136  25.929  54.587  1.00  0.00    -0.345 N 
HETATM    3  C   UNL     1       5.466  25.036  53.644  1.00  0.00     0.158 C 
HETATM    4  C   UNL     1       4.754  25.961  52.644  1.00  0.00     0.148 C 
HETATM    5  C   UNL     1       4.519  27.225  53.472  1.00  0.00     0.054 C 
HETATM    6  C   UNL     1       5.772  27.310  54.331  1.00  0.00     0.129 C 
HETATM    7  O   UNL     1       7.875  26.499  55.975  1.00  0.00    -0.267 OA
ENDROOT
BRANCH   1   8
HETATM    8  C   UNL     1       7.621  24.228  55.568  1.00  0.00     0.050 A 
HETATM    9  C   UNL     1       7.927  23.777  56.851  1.00  0.00     0.136 A 
HETATM   10  N   UNL     1       8.330  22.520  57.173  1.00  0.00    -0.240 NA
HETATM   11  C   UNL     1       8.391  21.710  56.098  1.00  0.00     0.155 A 
HETATM   12  N   UNL     1       8.762  20.398  56.094  1.00  0.00    -0.260 N 
HETATM   13  C   UNL     1       8.088  22.022  54.782  1.00  0.00     0.038 A 
HETATM   14  N   UNL     1       8.737  19.827  54.872  1.00  0.00    -0.177 NA
HETATM   15  H   UNL     1       9.043  19.846  56.894  1.00  0.00     0.191 HD
HETATM   16  C   UNL     1       8.317  20.815  54.067  1.00  0.00     0.065 A 
HETATM   17  C   UNL     1       8.159  20.581  52.611  1.00  0.00     0.073 C 
HETATM   18  C   UNL     1       7.666  23.330  54.495  1.00  0.00     0.036 A 
ENDBRANCH   1   8
BRANCH   4  19
HETATM   19  O   UNL     1       5.654  26.224  51.563  1.00  0.00    -0.344 OA
BRANCH  19  20
HETATM   20  C   UNL     1       5.133  26.601  50.358  1.00  0.00     0.070 A 
HETATM   21  C   UNL     1       4.369  25.806  49.504  1.00  0.00     0.060 A 
HETATM   22  C   UNL     1       3.910  26.332  48.295  1.00  0.00     0.036 A 
HETATM   23 CL   UNL     1       2.978  25.342  47.237  1.00  0.00    -0.084 Cl
HETATM   24  C   UNL     1       4.195  27.646  47.932  1.00  0.00     0.024 A 
HETATM   25  C   UNL     1       4.945  28.448  48.789  1.00  0.00     0.004 A 
HETATM   26  C   UNL     1       5.408  27.924  49.998  1.00  0.00     0.037 A 
ENDBRANCH  19  20
ENDBRANCH   4  19
TORSDOF 3
ENDMDL
MODEL 7
REMARK VINA RESULT:      -9.1      1.952      2.570
REMARK  3 active torsions:
REMARK  status: ('A' for Active; 'I' for Inactive)
REMARK    1  A    between atoms: C_10  and  C_11 
REMARK       I    between atoms: C_11  and  N_12 
REMARK    2  A    between atoms: C_14  and  O_15 
REMARK    3  A    between atoms: O_15  and  C_16 
ROOT
HETATM    1  C   UNL     1       5.923  28.660  56.404  1.00  0.00     0.255 C 
HETATM    2  N   UNL     1       6.015  27.301  56.641  1.00  0.00    -0.345 N 
HETATM    3  C   UNL     1       7.050  26.598  57.397  1.00  0.00     0.158 C 
HETATM    4  C   UNL     1       7.003  25.146  56.898  1.00  0.00     0.148 C 
HETATM    5  C   UNL     1       5.554  25.002  56.432  1.00  0.00     0.054 C 
HETATM    6  C   UNL     1       5.248  26.368  55.835  1.00  0.00     0.129 C 
HETATM    7  O   UNL     1       5.173  29.144  55.561  1.00  0.00    -0.267 OA
ENDROOT
BRANCH   1   8
HETATM    8  C   UNL     1       6.783  29.578  57.175  1.00  0.00     0.050 A 
HETATM    9  C   UNL     1       6.173  30.472  58.054  1.00  0.00     0.136 A 
HETATM   10  N   UNL     1       6.818  31.390  58.821  1.00  0.00    -0.240 NA
HETATM   11  C   UNL     1       8.155  31.342  58.664  1.00  0.00     0.155 A 
HETATM   12  N   UNL     1       9.072  32.133  59.291  1.00  0.00    -0.260 N 
HETATM   13  C   UNL     1       8.884  30.488  57.851  1.00  0.00     0.038 A 
HETATM   14  N   UNL     1      10.348  31.871  58.942  1.00  0.00    -0.177 NA
HETATM   15  H   UNL     1       8.881  32.866  59.961  1.00  0.00     0.191 HD
HETATM   16  C   UNL     1      10.238  30.860  58.068  1.00  0.00     0.065 A 
HETATM   17  C   UNL     1      11.449  30.277  57.440  1.00  0.00     0.073 C 
HETATM   18  C   UNL     1       8.179  29.549  57.082  1.00  0.00     0.036 A 
ENDBRANCH   1   8
BRANCH   4  19
HETATM   19  O   UNL     1       7.904  25.025  55.792  1.00  0.00    -0.344 OA
BRANCH  19  20
HETATM   20  C   UNL     1       7.957  23.836  55.121  1.00  0.00     0.070 A 
HETATM   21  C   UNL     1       8.154  22.578  55.688  1.00  0.00     0.060 A 
HETATM   22  C   UNL     1       8.193  21.449  54.867  1.00  0.00     0.036 A 
HETATM   23 CL   UNL     1       8.449  19.896  55.569  1.00  0.00    -0.084 Cl
HETATM   24  C   UNL     1       8.027  21.560  53.488  1.00  0.00     0.024 A 
HETATM   25  C   UNL     1       7.816  22.814  52.921  1.00  0.00     0.004 A 
HETATM   26  C   UNL     1       7.779  23.945  53.738  1.00  0.00     0.037 A 
ENDBRANCH  19  20
ENDBRANCH   4  19
TORSDOF 3
ENDMDL
MODEL 8
REMARK VINA RESULT:      -9.1      1.005      1.699
REMARK  3 active torsions:
REMARK  status: ('A' for Active; 'I' for Inactive)
REMARK    1  A    between atoms: C_10  and  C_11 
REMARK       I    between atoms: C_11  and  N_12 
REMARK    2  A    between atoms: C_14  and  O_15 
REMARK    3  A    between atoms: O_15  and  C_16 
ROOT
HETATM    1  C   UNL     1       6.412  28.132  53.720  1.00  0.00     0.255 C 
HETATM    2  N   UNL     1       5.889  26.855  53.635  1.00  0.00    -0.345 N 
HETATM    3  C   UNL     1       5.985  25.787  54.629  1.00  0.00     0.158 C 
HETATM    4  C   UNL     1       5.755  24.484  53.850  1.00  0.00     0.148 C 
HETATM    5  C   UNL     1       4.901  24.949  52.669  1.00  0.00     0.054 C 
HETATM    6  C   UNL     1       5.477  26.321  52.350  1.00  0.00     0.129 C 
HETATM    7  O   UNL     1       6.506  28.883  52.753  1.00  0.00    -0.267 OA
ENDROOT
BRANCH   1   8
HETATM    8  C   UNL     1       6.909  28.614  55.023  1.00  0.00     0.050 A 
HETATM    9  C   UNL     1       8.134  28.133  55.481  1.00  0.00     0.136 A 
HETATM   10  N   UNL     1       8.722  28.463  56.661  1.00  0.00    -0.240 NA
HETATM   11  C   UNL     1       7.993  29.349  57.367  1.00  0.00     0.155 A 
HETATM   12  N   UNL     1       8.313  29.870  58.586  1.00  0.00    -0.260 N 
HETATM   13  C   UNL     1       6.783  29.925  57.015  1.00  0.00     0.038 A 
HETATM   14  N   UNL     1       7.397  30.736  59.067  1.00  0.00    -0.177 NA
HETATM   15  H   UNL     1       9.140  29.667  59.133  1.00  0.00     0.191 HD
HETATM   16  C   UNL     1       6.463  30.779  58.105  1.00  0.00     0.065 A 
HETATM   17  C   UNL     1       5.263  31.636  58.262  1.00  0.00     0.073 C 
HETATM   18  C   UNL     1       6.215  29.563  55.783  1.00  0.00     0.036 A 
ENDBRANCH   1   8
BRANCH   4  19
HETATM   19  O   UNL     1       7.026  24.006  53.397  1.00  0.00    -0.344 OA
BRANCH  19  20
HETATM   20  C   UNL     1       7.492  22.822  53.895  1.00  0.00     0.070 A 
HETATM   21  C   UNL     1       7.672  22.507  55.241  1.00  0.00     0.060 A 
HETATM   22  C   UNL     1       8.167  21.251  55.596  1.00  0.00     0.036 A 
HETATM   23 CL   UNL     1       8.401  20.869  57.260  1.00  0.00    -0.084 Cl
HETATM   24  C   UNL     1       8.476  20.301  54.624  1.00  0.00     0.024 A 
HETATM   25  C   UNL     1       8.283  20.608  53.280  1.00  0.00     0.004 A 
HETATM   26  C   UNL     1       7.791  21.864  52.921  1.00  0.00     0.037 A 
ENDBRANCH  19  20
ENDBRANCH   4  19
TORSDOF 3
ENDMDL
MODEL 9
REMARK VINA RESULT:      -8.6      2.539      3.726
REMARK  3 active torsions:
REMARK  status: ('A' for Active; 'I' for Inactive)
REMARK    1  A    between atoms: C_10  and  C_11 
REMARK       I    between atoms: C_11  and  N_12 
REMARK    2  A    between atoms: C_14  and  O_15 
REMARK    3  A    between atoms: O_15  and  C_16 
ROOT
HETATM    1  C   UNL     1       6.321  29.907  56.833  1.00  0.00     0.255 C 
HETATM    2  N   UNL     1       6.086  28.547  56.744  1.00  0.00    -0.345 N 
HETATM    3  C   UNL     1       6.821  27.472  57.409  1.00  0.00     0.158 C 
HETATM    4  C   UNL     1       6.546  26.213  56.573  1.00  0.00     0.148 C 
HETATM    5  C   UNL     1       5.189  26.524  55.940  1.00  0.00     0.054 C 
HETATM    6  C   UNL     1       5.275  28.018  55.662  1.00  0.00     0.129 C 
HETATM    7  O   UNL     1       5.830  30.723  56.059  1.00  0.00    -0.267 OA
ENDROOT
BRANCH   1   8
HETATM    8  C   UNL     1       7.225  30.407  57.886  1.00  0.00     0.050 A 
HETATM    9  C   UNL     1       8.591  30.165  57.753  1.00  0.00     0.136 A 
HETATM   10  N   UNL     1       9.551  30.541  58.638  1.00  0.00    -0.240 NA
HETATM   11  C   UNL     1       9.044  31.216  59.689  1.00  0.00     0.155 A 
HETATM   12  N   UNL     1       9.748  31.722  60.741  1.00  0.00    -0.260 N 
HETATM   13  C   UNL     1       7.718  31.547  59.925  1.00  0.00     0.038 A 
HETATM   14  N   UNL     1       8.983  32.351  61.658  1.00  0.00    -0.177 NA
HETATM   15  H   UNL     1      10.747  31.664  60.884  1.00  0.00     0.191 HD
HETATM   16  C   UNL     1       7.742  32.253  61.158  1.00  0.00     0.065 A 
HETATM   17  C   UNL     1       6.591  32.832  61.892  1.00  0.00     0.073 C 
HETATM   18  C   UNL     1       6.761  31.146  58.980  1.00  0.00     0.036 A 
ENDBRANCH   1   8
BRANCH   4  19
HETATM   19  O   UNL     1       7.561  26.115  55.569  1.00  0.00    -0.344 OA
BRANCH  19  20
HETATM   20  C   UNL     1       7.639  24.969  54.830  1.00  0.00     0.070 A 
HETATM   21  C   UNL     1       7.636  23.666  55.325  1.00  0.00     0.060 A 
HETATM   22  C   UNL     1       7.730  22.589  54.441  1.00  0.00     0.036 A 
HETATM   23 CL   UNL     1       7.738  20.981  55.058  1.00  0.00    -0.084 Cl
HETATM   24  C   UNL     1       7.817  22.798  53.066  1.00  0.00     0.024 A 
HETATM   25  C   UNL     1       7.806  24.098  52.567  1.00  0.00     0.004 A 
HETATM   26  C   UNL     1       7.715  25.176  53.449  1.00  0.00     0.037 A 
ENDBRANCH  19  20
ENDBRANCH   4  19
TORSDOF 3
ENDMDL
MODEL 10
REMARK VINA RESULT:      -8.5      5.802     10.165
REMARK  3 active torsions:
REMARK  status: ('A' for Active; 'I' for Inactive)
REMARK    1  A    between atoms: C_10  and  C_11 
REMARK       I    between atoms: C_11  and  N_12 
REMARK    2  A    between atoms: C_14  and  O_15 
REMARK    3  A    between atoms: O_15  and  C_16 
ROOT
HETATM    1  C   UNL     1       8.832  30.496  58.215  1.00  0.00     0.255 C 
HETATM    2  N   UNL     1       9.056  30.786  59.548  1.00  0.00    -0.345 N 
HETATM    3  C   UNL     1       8.181  30.492  60.682  1.00  0.00     0.158 C 
HETATM    4  C   UNL     1       8.602  31.473  61.786  1.00  0.00     0.148 C 
HETATM    5  C   UNL     1      10.066  31.751  61.443  1.00  0.00     0.054 C 
HETATM    6  C   UNL     1      10.066  31.760  59.921  1.00  0.00     0.129 C 
HETATM    7  O   UNL     1       9.488  30.991  57.302  1.00  0.00    -0.267 OA
ENDROOT
BRANCH   1   8
HETATM    8  C   UNL     1       7.737  29.573  57.860  1.00  0.00     0.050 A 
HETATM    9  C   UNL     1       6.466  30.105  57.653  1.00  0.00     0.136 A 
HETATM   10  N   UNL     1       5.352  29.393  57.338  1.00  0.00    -0.240 NA
HETATM   11  C   UNL     1       5.602  28.075  57.219  1.00  0.00     0.155 A 
HETATM   12  N   UNL     1       4.695  27.104  56.914  1.00  0.00    -0.260 N 
HETATM   13  C   UNL     1       6.818  27.425  57.368  1.00  0.00     0.038 A 
HETATM   14  N   UNL     1       5.221  25.862  56.864  1.00  0.00    -0.177 NA
HETATM   15  H   UNL     1       3.708  27.233  56.735  1.00  0.00     0.191 HD
HETATM   16  C   UNL     1       6.520  26.055  57.133  1.00  0.00     0.065 A 
HETATM   17  C   UNL     1       7.457  24.906  57.175  1.00  0.00     0.073 C 
HETATM   18  C   UNL     1       7.945  28.200  57.685  1.00  0.00     0.036 A 
ENDBRANCH   1   8
BRANCH   4  19
HETATM   19  O   UNL     1       7.817  32.661  61.648  1.00  0.00    -0.344 OA
BRANCH  19  20
HETATM   20  C   UNL     1       7.057  33.067  62.709  1.00  0.00     0.070 A 
HETATM   21  C   UNL     1       5.709  33.420  62.672  1.00  0.00     0.060 A 
HETATM   22  C   UNL     1       5.066  33.824  63.844  1.00  0.00     0.036 A 
HETATM   23 CL   UNL     1       3.404  34.272  63.791  1.00  0.00    -0.084 Cl
HETATM   24  C   UNL     1       5.752  33.869  65.056  1.00  0.00     0.024 A 
HETATM   25  C   UNL     1       7.095  33.503  65.100  1.00  0.00     0.004 A 
HETATM   26  C   UNL     1       7.740  33.101  63.929  1.00  0.00     0.037 A 
ENDBRANCH  19  20
ENDBRANCH   4  19
TORSDOF 3
ENDMDL
