MODEL 1
REMARK VINA RESULT:      -8.8      0.000      0.000
REMARK  6 active torsions:
REMARK  status: ('A' for Active; 'I' for Inactive)
REMARK    1  A    between atoms: C_2  and  O_3 
REMARK    2  A    between atoms: O_3  and  C_4 
REMARK    3  A    between atoms: C_7  and  C_8 
REMARK       I    between atoms: N_11  and  C_12 
REMARK       I    between atoms: C_12  and  N_13 
REMARK    4  A    between atoms: N_13  and  C_14 
REMARK    5  A    between atoms: C_14  and  C_15 
REMARK    6  A    between atoms: C_15  and  C_16 
ROOT
HETATM    1  C   UNL     1       6.496  26.474  56.144  1.00  0.00    -0.049 C 
HETATM    2  C   UNL     1       6.953  27.163  57.401  1.00  0.00     0.059 C 
HETATM    3  C   UNL     1       6.580  28.646  57.391  1.00  0.00     0.132 C 
HETATM    4  N   UNL     1       5.173  28.856  57.040  1.00  0.00    -0.331 N 
HETATM    5  C   UNL     1       4.445  29.974  57.431  1.00  0.00     0.318 C 
HETATM    6  N   UNL     1       4.984  30.696  58.457  1.00  0.00    -0.338 N 
HETATM    7  O   UNL     1       3.413  30.326  56.862  1.00  0.00    -0.247 OA
HETATM    8  C   UNL     1       4.707  28.228  55.806  1.00  0.00     0.155 C 
HETATM    9  C   UNL     1       5.472  26.989  55.438  1.00  0.00     0.001 C 
HETATM   10  H   UNL     1       5.524  30.199  59.155  1.00  0.00     0.164 HD
ENDROOT
BRANCH   6  11
HETATM   11  C   UNL     1       4.401  31.936  58.954  1.00  0.00     0.087 C 
HETATM   12  C   UNL     1       3.290  31.660  59.969  1.00  0.00     0.032 C 
BRANCH  11  13
HETATM   13  C   UNL     1       5.496  32.863  59.516  1.00  0.00     0.085 C 
BRANCH  13  14
HETATM   14  C   UNL     1       6.800  32.193  59.836  1.00  0.00     0.058 A 
HETATM   15  N   UNL     1       7.741  32.012  58.897  1.00  0.00    -0.179 NA
HETATM   16  N   UNL     1       8.750  31.421  59.557  1.00  0.00    -0.282 N 
HETATM   17  H   UNL     1       9.591  31.183  59.039  1.00  0.00     0.189 HD
HETATM   18  C   UNL     1       8.496  31.221  60.884  1.00  0.00     0.026 A 
HETATM   19  C   UNL     1       9.477  30.603  61.803  1.00  0.00     0.070 C 
HETATM   20  C   UNL     1       7.228  31.713  61.096  1.00  0.00     0.055 A 
ENDBRANCH  13  14
ENDBRANCH  11  13
ENDBRANCH   6  11
BRANCH   1  21
HETATM   21  C   UNL     1       7.223  25.279  55.674  1.00  0.00    -0.030 A 
HETATM   22  C   UNL     1       7.263  24.953  54.312  1.00  0.00     0.014 A 
HETATM   23  C   UNL     1       7.961  23.826  53.858  1.00  0.00     0.037 A 
HETATM   24  C   UNL     1       8.629  23.004  54.762  1.00  0.00     0.068 A 
HETATM   25  C   UNL     1       8.584  23.314  56.122  1.00  0.00     0.037 A 
HETATM   26  C   UNL     1       7.892  24.442  56.576  1.00  0.00     0.014 A 
BRANCH  24  27
HETATM   27  O   UNL     1       9.343  21.880  54.449  1.00  0.00    -0.352 OA
BRANCH  27  28
HETATM   28  C   UNL     1       8.609  20.662  54.327  1.00  0.00     0.171 C 
HETATM   29  C   UNL     1       8.359  20.409  52.852  1.00  0.00     0.034 C 
ENDBRANCH  27  28
ENDBRANCH  24  27
ENDBRANCH   1  21
TORSDOF 6
ENDMDL
MODEL 2
REMARK VINA RESULT:      -8.7      2.366      2.803
REMARK  6 active torsions:
REMARK  status: ('A' for Active; 'I' for Inactive)
REMARK    1  A    between atoms: C_2  and  O_3 
REMARK    2  A    between atoms: O_3  and  C_4 
REMARK    3  A    between atoms: C_7  and  C_8 
REMARK       I    between atoms: N_11  and  C_12 
REMARK       I    between atoms: C_12  and  N_13 
REMARK    4  A    between atoms: N_13  and  C_14 
REMARK    5  A    between atoms: C_14  and  C_15 
REMARK    6  A    between atoms: C_15  and  C_16 
ROOT
HETATM    1  C   UNL     1       7.110  27.348  56.053  1.00  0.00    -0.049 C 
HETATM    2  C   UNL     1       5.852  28.168  55.969  1.00  0.00     0.059 C 
HETATM    3  C   UNL     1       5.603  28.941  57.265  1.00  0.00     0.132 C 
HETATM    4  N   UNL     1       6.795  29.668  57.709  1.00  0.00    -0.331 N 
HETATM    5  C   UNL     1       6.744  30.805  58.507  1.00  0.00     0.318 C 
HETATM    6  N   UNL     1       5.531  31.429  58.566  1.00  0.00    -0.338 N 
HETATM    7  O   UNL     1       7.708  31.199  59.162  1.00  0.00    -0.247 OA
HETATM    8  C   UNL     1       8.025  28.891  57.834  1.00  0.00     0.155 C 
HETATM    9  C   UNL     1       8.080  27.703  56.917  1.00  0.00     0.001 C 
HETATM   10  H   UNL     1       4.933  31.381  57.750  1.00  0.00     0.164 HD
ENDROOT
BRANCH   6  11
HETATM   11  C   UNL     1       5.269  32.591  59.406  1.00  0.00     0.087 C 
HETATM   12  C   UNL     1       4.704  33.753  58.587  1.00  0.00     0.032 C 
BRANCH  11  13
HETATM   13  C   UNL     1       4.362  32.210  60.592  1.00  0.00     0.085 C 
BRANCH  13  14
HETATM   14  C   UNL     1       4.932  32.490  61.951  1.00  0.00     0.058 A 
HETATM   15  N   UNL     1       4.173  32.415  63.055  1.00  0.00    -0.179 NA
HETATM   16  N   UNL     1       5.026  32.698  64.055  1.00  0.00    -0.282 N 
HETATM   17  H   UNL     1       4.669  32.700  65.005  1.00  0.00     0.189 HD
HETATM   18  C   UNL     1       6.301  32.946  63.635  1.00  0.00     0.026 A 
HETATM   19  C   UNL     1       7.405  33.259  64.570  1.00  0.00     0.070 C 
HETATM   20  C   UNL     1       6.271  32.820  62.265  1.00  0.00     0.055 A 
ENDBRANCH  13  14
ENDBRANCH  11  13
ENDBRANCH   6  11
BRANCH   1  21
HETATM   21  C   UNL     1       7.230  26.130  55.228  1.00  0.00    -0.030 A 
HETATM   22  C   UNL     1       7.480  26.217  53.852  1.00  0.00     0.014 A 
HETATM   23  C   UNL     1       7.607  25.065  53.065  1.00  0.00     0.037 A 
HETATM   24  C   UNL     1       7.482  23.803  53.644  1.00  0.00     0.068 A 
HETATM   25  C   UNL     1       7.220  23.708  55.012  1.00  0.00     0.037 A 
HETATM   26  C   UNL     1       7.099  24.858  55.799  1.00  0.00     0.014 A 
BRANCH  24  27
HETATM   27  O   UNL     1       7.584  22.606  52.991  1.00  0.00    -0.352 OA
BRANCH  27  28
HETATM   28  C   UNL     1       7.967  21.475  53.773  1.00  0.00     0.171 C 
HETATM   29  C   UNL     1       8.361  20.358  52.823  1.00  0.00     0.034 C 
ENDBRANCH  27  28
ENDBRANCH  24  27
ENDBRANCH   1  21
TORSDOF 6
ENDMDL
MODEL 3
REMARK VINA RESULT:      -8.1      5.310      8.168
REMARK  6 active torsions:
REMARK  status: ('A' for Active; 'I' for Inactive)
REMARK    1  A    between atoms: C_2  and  O_3 
REMARK    2  A    between atoms: O_3  and  C_4 
REMARK    3  A    between atoms: C_7  and  C_8 
REMARK       I    between atoms: N_11  and  C_12 
REMARK       I    between atoms: C_12  and  N_13 
REMARK    4  A    between atoms: N_13  and  C_14 
REMARK    5  A    between atoms: C_14  and  C_15 
REMARK    6  A    between atoms: C_15  and  C_16 
ROOT
HETATM    1  C   UNL     1       6.314  25.847  53.327  1.00  0.00    -0.049 C 
HETATM    2  C   UNL     1       6.330  26.267  51.883  1.00  0.00     0.059 C 
HETATM    3  C   UNL     1       5.013  26.930  51.481  1.00  0.00     0.132 C 
HETATM    4  N   UNL     1       4.609  27.971  52.430  1.00  0.00    -0.331 N 
HETATM    5  C   UNL     1       3.791  29.043  52.088  1.00  0.00     0.318 C 
HETATM    6  N   UNL     1       3.670  29.287  50.751  1.00  0.00    -0.338 N 
HETATM    7  O   UNL     1       3.173  29.697  52.926  1.00  0.00    -0.247 OA
HETATM    8  C   UNL     1       4.550  27.585  53.836  1.00  0.00     0.155 C 
HETATM    9  C   UNL     1       5.487  26.465  54.191  1.00  0.00     0.001 C 
HETATM   10  H   UNL     1       4.460  29.070  50.156  1.00  0.00     0.164 HD
ENDROOT
BRANCH   6  11
HETATM   11  C   UNL     1       2.801  30.320  50.202  1.00  0.00     0.087 C 
HETATM   12  C   UNL     1       3.585  31.596  49.888  1.00  0.00     0.032 C 
BRANCH  11  13
HETATM   13  C   UNL     1       2.028  29.787  48.981  1.00  0.00     0.085 C 
BRANCH  13  14
HETATM   14  C   UNL     1       2.591  28.543  48.359  1.00  0.00     0.058 A 
HETATM   15  N   UNL     1       3.793  28.544  47.761  1.00  0.00    -0.179 NA
HETATM   16  N   UNL     1       3.959  27.272  47.363  1.00  0.00    -0.282 N 
HETATM   17  H   UNL     1       4.816  27.028  46.876  1.00  0.00     0.189 HD
HETATM   18  C   UNL     1       2.915  26.454  47.689  1.00  0.00     0.026 A 
HETATM   19  C   UNL     1       2.897  25.010  47.365  1.00  0.00     0.070 C 
HETATM   20  C   UNL     1       2.005  27.256  48.339  1.00  0.00     0.055 A 
ENDBRANCH  13  14
ENDBRANCH  11  13
ENDBRANCH   6  11
BRANCH   1  21
HETATM   21  C   UNL     1       7.163  24.718  53.757  1.00  0.00    -0.030 A 
HETATM   22  C   UNL     1       7.707  24.681  55.047  1.00  0.00     0.014 A 
HETATM   23  C   UNL     1       8.504  23.608  55.466  1.00  0.00     0.037 A 
HETATM   24  C   UNL     1       8.771  22.552  54.597  1.00  0.00     0.068 A 
HETATM   25  C   UNL     1       8.243  22.587  53.305  1.00  0.00     0.037 A 
HETATM   26  C   UNL     1       7.443  23.657  52.889  1.00  0.00     0.014 A 
BRANCH  24  27
HETATM   27  O   UNL     1       9.530  21.450  54.881  1.00  0.00    -0.352 OA
BRANCH  27  28
HETATM   28  C   UNL     1       8.836  20.212  55.034  1.00  0.00     0.171 C 
HETATM   29  C   UNL     1       7.867  20.356  56.193  1.00  0.00     0.034 C 
ENDBRANCH  27  28
ENDBRANCH  24  27
ENDBRANCH   1  21
TORSDOF 6
ENDMDL
MODEL 4
REMARK VINA RESULT:      -7.9      2.025      2.291
REMARK  6 active torsions:
REMARK  status: ('A' for Active; 'I' for Inactive)
REMARK    1  A    between atoms: C_2  and  O_3 
REMARK    2  A    between atoms: O_3  and  C_4 
REMARK    3  A    between atoms: C_7  and  C_8 
REMARK       I    between atoms: N_11  and  C_12 
REMARK       I    between atoms: C_12  and  N_13 
REMARK    4  A    between atoms: N_13  and  C_14 
REMARK    5  A    between atoms: C_14  and  C_15 
REMARK    6  A    between atoms: C_15  and  C_16 
ROOT
HETATM    1  C   UNL     1       6.200  27.070  56.455  1.00  0.00    -0.049 C 
HETATM    2  C   UNL     1       7.025  27.802  57.477  1.00  0.00     0.059 C 
HETATM    3  C   UNL     1       6.729  29.302  57.463  1.00  0.00     0.132 C 
HETATM    4  N   UNL     1       5.291  29.578  57.505  1.00  0.00    -0.331 N 
HETATM    5  C   UNL     1       4.754  30.762  58.001  1.00  0.00     0.318 C 
HETATM    6  N   UNL     1       5.592  31.508  58.778  1.00  0.00    -0.338 N 
HETATM    7  O   UNL     1       3.619  31.143  57.720  1.00  0.00    -0.247 OA
HETATM    8  C   UNL     1       4.467  28.910  56.502  1.00  0.00     0.155 C 
HETATM    9  C   UNL     1       5.041  27.605  56.027  1.00  0.00     0.001 C 
HETATM   10  H   UNL     1       6.287  31.020  59.331  1.00  0.00     0.164 HD
ENDROOT
BRANCH   6  11
HETATM   11  C   UNL     1       5.229  32.809  59.325  1.00  0.00     0.087 C 
HETATM   12  C   UNL     1       4.692  33.740  58.235  1.00  0.00     0.032 C 
BRANCH  11  13
HETATM   13  C   UNL     1       4.246  32.649  60.500  1.00  0.00     0.085 C 
BRANCH  13  14
HETATM   14  C   UNL     1       4.864  32.720  61.866  1.00  0.00     0.058 A 
HETATM   15  N   UNL     1       4.209  32.280  62.952  1.00  0.00    -0.179 NA
HETATM   16  N   UNL     1       5.078  32.478  63.958  1.00  0.00    -0.282 N 
HETATM   17  H   UNL     1       4.795  32.214  64.896  1.00  0.00     0.189 HD
HETATM   18  C   UNL     1       6.265  33.022  63.558  1.00  0.00     0.026 A 
HETATM   19  C   UNL     1       7.372  33.306  64.498  1.00  0.00     0.070 C 
HETATM   20  C   UNL     1       6.155  33.194  62.197  1.00  0.00     0.055 A 
ENDBRANCH  13  14
ENDBRANCH  11  13
ENDBRANCH   6  11
BRANCH   1  21
HETATM   21  C   UNL     1       6.711  25.806  55.890  1.00  0.00    -0.030 A 
HETATM   22  C   UNL     1       6.183  25.287  54.700  1.00  0.00     0.014 A 
HETATM   23  C   UNL     1       6.671  24.093  54.152  1.00  0.00     0.037 A 
HETATM   24  C   UNL     1       7.696  23.396  54.789  1.00  0.00     0.068 A 
HETATM   25  C   UNL     1       8.218  23.900  55.982  1.00  0.00     0.037 A 
HETATM   26  C   UNL     1       7.735  25.095  56.526  1.00  0.00     0.014 A 
BRANCH  24  27
HETATM   27  O   UNL     1       8.259  22.226  54.361  1.00  0.00    -0.352 OA
BRANCH  27  28
HETATM   28  C   UNL     1       7.887  21.770  53.060  1.00  0.00     0.171 C 
HETATM   29  C   UNL     1       8.336  20.327  52.921  1.00  0.00     0.034 C 
ENDBRANCH  27  28
ENDBRANCH  24  27
ENDBRANCH   1  21
TORSDOF 6
ENDMDL
MODEL 5
REMARK VINA RESULT:      -7.7      6.440      9.426
REMARK  6 active torsions:
REMARK  status: ('A' for Active; 'I' for Inactive)
REMARK    1  A    between atoms: C_2  and  O_3 
REMARK    2  A    between atoms: O_3  and  C_4 
REMARK    3  A    between atoms: C_7  and  C_8 
REMARK       I    between atoms: N_11  and  C_12 
REMARK       I    between atoms: C_12  and  N_13 
REMARK    4  A    between atoms: N_13  and  C_14 
REMARK    5  A    between atoms: C_14  and  C_15 
REMARK    6  A    between atoms: C_15  and  C_16 
ROOT
HETATM    1  C   UNL     1       6.369  25.482  52.824  1.00  0.00    -0.049 C 
HETATM    2  C   UNL     1       6.534  25.702  51.345  1.00  0.00     0.059 C 
HETATM    3  C   UNL     1       5.252  26.248  50.717  1.00  0.00     0.132 C 
HETATM    4  N   UNL     1       4.717  27.390  51.463  1.00  0.00    -0.331 N 
HETATM    5  C   UNL     1       3.912  28.369  50.891  1.00  0.00     0.318 C 
HETATM    6  N   UNL     1       3.934  28.425  49.528  1.00  0.00    -0.338 N 
HETATM    7  O   UNL     1       3.187  29.105  51.559  1.00  0.00    -0.247 OA
HETATM    8  C   UNL     1       4.512  27.195  52.896  1.00  0.00     0.155 C 
HETATM    9  C   UNL     1       5.434  26.175  53.500  1.00  0.00     0.001 C 
HETATM   10  H   UNL     1       4.791  28.163  49.056  1.00  0.00     0.164 HD
ENDROOT
BRANCH   6  11
HETATM   11  C   UNL     1       3.103  29.337  48.751  1.00  0.00     0.087 C 
HETATM   12  C   UNL     1       3.641  30.768  48.813  1.00  0.00     0.032 C 
BRANCH  11  13
HETATM   13  C   UNL     1       2.945  28.829  47.305  1.00  0.00     0.085 C 
BRANCH  13  14
HETATM   14  C   UNL     1       1.532  28.589  46.861  1.00  0.00     0.058 A 
HETATM   15  N   UNL     1       1.020  27.350  46.799  1.00  0.00    -0.179 NA
HETATM   16  N   UNL     1      -0.248  27.542  46.397  1.00  0.00    -0.282 N 
HETATM   17  H   UNL     1      -0.843  26.728  46.278  1.00  0.00     0.189 HD
HETATM   18  C   UNL     1      -0.570  28.855  46.205  1.00  0.00     0.026 A 
HETATM   19  C   UNL     1      -1.918  29.295  45.782  1.00  0.00     0.070 C 
HETATM   20  C   UNL     1       0.573  29.564  46.498  1.00  0.00     0.055 A 
ENDBRANCH  13  14
ENDBRANCH  11  13
ENDBRANCH   6  11
BRANCH   1  21
HETATM   21  C   UNL     1       7.195  24.459  53.494  1.00  0.00    -0.030 A 
HETATM   22  C   UNL     1       7.593  23.299  52.815  1.00  0.00     0.014 A 
HETATM   23  C   UNL     1       8.386  22.329  53.441  1.00  0.00     0.037 A 
HETATM   24  C   UNL     1       8.793  22.503  54.762  1.00  0.00     0.068 A 
HETATM   25  C   UNL     1       8.391  23.649  55.451  1.00  0.00     0.037 A 
HETATM   26  C   UNL     1       7.604  24.620  54.823  1.00  0.00     0.014 A 
BRANCH  24  27
HETATM   27  O   UNL     1       9.565  21.636  55.485  1.00  0.00    -0.352 OA
BRANCH  27  28
HETATM   28  C   UNL     1       9.105  20.288  55.581  1.00  0.00     0.171 C 
HETATM   29  C   UNL     1       7.744  20.301  56.251  1.00  0.00     0.034 C 
ENDBRANCH  27  28
ENDBRANCH  24  27
ENDBRANCH   1  21
TORSDOF 6
ENDMDL
MODEL 6
REMARK VINA RESULT:      -7.6      4.381      6.748
REMARK  6 active torsions:
REMARK  status: ('A' for Active; 'I' for Inactive)
REMARK    1  A    between atoms: C_2  and  O_3 
REMARK    2  A    between atoms: O_3  and  C_4 
REMARK    3  A    between atoms: C_7  and  C_8 
REMARK       I    between atoms: N_11  and  C_12 
REMARK       I    between atoms: C_12  and  N_13 
REMARK    4  A    between atoms: N_13  and  C_14 
REMARK    5  A    between atoms: C_14  and  C_15 
REMARK    6  A    between atoms: C_15  and  C_16 
ROOT
HETATM    1  C   UNL     1       6.575  26.381  54.343  1.00  0.00    -0.049 C 
HETATM    2  C   UNL     1       6.831  27.218  53.120  1.00  0.00     0.059 C 
HETATM    3  C   UNL     1       5.607  28.056  52.753  1.00  0.00     0.132 C 
HETATM    4  N   UNL     1       5.072  28.783  53.906  1.00  0.00    -0.331 N 
HETATM    5  C   UNL     1       4.337  29.959  53.797  1.00  0.00     0.318 C 
HETATM    6  N   UNL     1       4.437  30.605  52.600  1.00  0.00    -0.338 N 
HETATM    7  O   UNL     1       3.602  30.367  54.695  1.00  0.00    -0.247 OA
HETATM    8  C   UNL     1       4.780  27.992  55.098  1.00  0.00     0.155 C 
HETATM    9  C   UNL     1       5.629  26.759  55.223  1.00  0.00     0.001 C 
HETATM   10  H   UNL     1       5.310  30.528  52.091  1.00  0.00     0.164 HD
ENDROOT
BRANCH   6  11
HETATM   11  C   UNL     1       3.685  31.811  52.276  1.00  0.00     0.087 C 
HETATM   12  C   UNL     1       4.610  33.023  52.141  1.00  0.00     0.032 C 
BRANCH  11  13
HETATM   13  C   UNL     1       2.817  31.589  51.023  1.00  0.00     0.085 C 
BRANCH  13  14
HETATM   14  C   UNL     1       2.998  30.263  50.345  1.00  0.00     0.058 A 
HETATM   15  N   UNL     1       2.433  29.147  50.832  1.00  0.00    -0.179 NA
HETATM   16  N   UNL     1       2.790  28.193  49.956  1.00  0.00    -0.282 N 
HETATM   17  H   UNL     1       2.470  27.244  50.121  1.00  0.00     0.189 HD
HETATM   18  C   UNL     1       3.556  28.655  48.923  1.00  0.00     0.026 A 
HETATM   19  C   UNL     1       4.044  27.779  47.835  1.00  0.00     0.070 C 
HETATM   20  C   UNL     1       3.711  30.003  49.152  1.00  0.00     0.055 A 
ENDBRANCH  13  14
ENDBRANCH  11  13
ENDBRANCH   6  11
BRANCH   1  21
HETATM   21  C   UNL     1       7.325  25.121  54.522  1.00  0.00    -0.030 A 
HETATM   22  C   UNL     1       7.507  24.237  53.451  1.00  0.00     0.014 A 
HETATM   23  C   UNL     1       8.227  23.045  53.610  1.00  0.00     0.037 A 
HETATM   24  C   UNL     1       8.775  22.718  54.849  1.00  0.00     0.068 A 
HETATM   25  C   UNL     1       8.586  23.587  55.925  1.00  0.00     0.037 A 
HETATM   26  C   UNL     1       7.872  24.780  55.764  1.00  0.00     0.014 A 
BRANCH  24  27
HETATM   27  O   UNL     1       9.495  21.592  55.136  1.00  0.00    -0.352 OA
BRANCH  27  28
HETATM   28  C   UNL     1       9.056  20.811  56.247  1.00  0.00     0.171 C 
HETATM   29  C   UNL     1       7.706  20.211  55.897  1.00  0.00     0.034 C 
ENDBRANCH  27  28
ENDBRANCH  24  27
ENDBRANCH   1  21
TORSDOF 6
ENDMDL
MODEL 7
REMARK VINA RESULT:      -7.4      3.963      5.174
REMARK  6 active torsions:
REMARK  status: ('A' for Active; 'I' for Inactive)
REMARK    1  A    between atoms: C_2  and  O_3 
REMARK    2  A    between atoms: O_3  and  C_4 
REMARK    3  A    between atoms: C_7  and  C_8 
REMARK       I    between atoms: N_11  and  C_12 
REMARK       I    between atoms: C_12  and  N_13 
REMARK    4  A    between atoms: N_13  and  C_14 
REMARK    5  A    between atoms: C_14  and  C_15 
REMARK    6  A    between atoms: C_15  and  C_16 
ROOT
HETATM    1  C   UNL     1       6.881  29.739  56.806  1.00  0.00    -0.049 C 
HETATM    2  C   UNL     1       5.867  30.784  57.181  1.00  0.00     0.059 C 
HETATM    3  C   UNL     1       5.796  30.972  58.697  1.00  0.00     0.132 C 
HETATM    4  N   UNL     1       7.123  31.146  59.292  1.00  0.00    -0.331 N 
HETATM    5  C   UNL     1       7.342  31.817  60.491  1.00  0.00     0.318 C 
HETATM    6  N   UNL     1       6.322  32.620  60.910  1.00  0.00    -0.338 N 
HETATM    7  O   UNL     1       8.363  31.662  61.160  1.00  0.00    -0.247 OA
HETATM    8  C   UNL     1       8.119  30.127  58.975  1.00  0.00     0.155 C 
HETATM    9  C   UNL     1       7.893  29.459  57.649  1.00  0.00     0.001 C 
HETATM   10  H   UNL     1       5.744  33.061  60.204  1.00  0.00     0.164 HD
ENDROOT
BRANCH   6  11
HETATM   11  C   UNL     1       6.342  33.345  62.174  1.00  0.00     0.087 C 
HETATM   12  C   UNL     1       5.691  34.723  62.035  1.00  0.00     0.032 C 
BRANCH  11  13
HETATM   13  C   UNL     1       5.702  32.501  63.294  1.00  0.00     0.085 C 
BRANCH  13  14
HETATM   14  C   UNL     1       5.716  33.129  64.656  1.00  0.00     0.058 A 
HETATM   15  N   UNL     1       4.585  33.300  65.358  1.00  0.00    -0.179 NA
HETATM   16  N   UNL     1       4.998  33.852  66.511  1.00  0.00    -0.282 N 
HETATM   17  H   UNL     1       4.300  34.074  67.215  1.00  0.00     0.189 HD
HETATM   18  C   UNL     1       6.349  34.035  66.579  1.00  0.00     0.026 A 
HETATM   19  C   UNL     1       7.021  34.610  67.766  1.00  0.00     0.070 C 
HETATM   20  C   UNL     1       6.846  33.575  65.381  1.00  0.00     0.055 A 
ENDBRANCH  13  14
ENDBRANCH  11  13
ENDBRANCH   6  11
BRANCH   1  21
HETATM   21  C   UNL     1       6.709  28.991  55.545  1.00  0.00    -0.030 A 
HETATM   22  C   UNL     1       5.568  29.174  54.752  1.00  0.00     0.014 A 
HETATM   23  C   UNL     1       5.403  28.476  53.549  1.00  0.00     0.037 A 
HETATM   24  C   UNL     1       6.379  27.579  53.119  1.00  0.00     0.068 A 
HETATM   25  C   UNL     1       7.512  27.381  53.909  1.00  0.00     0.037 A 
HETATM   26  C   UNL     1       7.680  28.082  55.108  1.00  0.00     0.014 A 
BRANCH  24  27
HETATM   27  O   UNL     1       6.339  26.840  51.970  1.00  0.00    -0.352 OA
BRANCH  27  28
HETATM   28  C   UNL     1       6.395  25.420  52.113  1.00  0.00     0.171 C 
HETATM   29  C   UNL     1       4.981  24.914  52.334  1.00  0.00     0.034 C 
ENDBRANCH  27  28
ENDBRANCH  24  27
ENDBRANCH   1  21
TORSDOF 6
ENDMDL
MODEL 8
REMARK VINA RESULT:      -7.3      5.565      7.313
REMARK  6 active torsions:
REMARK  status: ('A' for Active; 'I' for Inactive)
REMARK    1  A    between atoms: C_2  and  O_3 
REMARK    2  A    between atoms: O_3  and  C_4 
REMARK    3  A    between atoms: C_7  and  C_8 
REMARK       I    between atoms: N_11  and  C_12 
REMARK       I    between atoms: C_12  and  N_13 
REMARK    4  A    between atoms: N_13  and  C_14 
REMARK    5  A    between atoms: C_14  and  C_15 
REMARK    6  A    between atoms: C_15  and  C_16 
ROOT
HETATM    1  C   UNL     1       6.671  25.858  52.943  1.00  0.00    -0.049 C 
HETATM    2  C   UNL     1       6.593  27.137  53.729  1.00  0.00     0.059 C 
HETATM    3  C   UNL     1       6.428  28.348  52.810  1.00  0.00     0.132 C 
HETATM    4  N   UNL     1       5.358  28.151  51.829  1.00  0.00    -0.331 N 
HETATM    5  C   UNL     1       4.659  29.198  51.239  1.00  0.00     0.318 C 
HETATM    6  N   UNL     1       4.759  30.403  51.872  1.00  0.00    -0.338 N 
HETATM    7  O   UNL     1       4.033  29.068  50.187  1.00  0.00    -0.247 OA
HETATM    8  C   UNL     1       5.424  26.934  51.025  1.00  0.00     0.155 C 
HETATM    9  C   UNL     1       6.132  25.800  51.710  1.00  0.00     0.001 C 
HETATM   10  H   UNL     1       4.875  30.402  52.878  1.00  0.00     0.164 HD
ENDROOT
BRANCH   6  11
HETATM   11  C   UNL     1       4.156  31.628  51.361  1.00  0.00     0.087 C 
HETATM   12  C   UNL     1       3.161  32.217  52.364  1.00  0.00     0.032 C 
BRANCH  11  13
HETATM   13  C   UNL     1       5.244  32.638  50.948  1.00  0.00     0.085 C 
BRANCH  13  14
HETATM   14  C   UNL     1       5.542  32.693  49.479  1.00  0.00     0.058 A 
HETATM   15  N   UNL     1       4.917  31.885  48.609  1.00  0.00    -0.179 NA
HETATM   16  N   UNL     1       5.417  32.244  47.414  1.00  0.00    -0.282 N 
HETATM   17  H   UNL     1       5.084  31.759  46.587  1.00  0.00     0.189 HD
HETATM   18  C   UNL     1       6.333  33.255  47.484  1.00  0.00     0.026 A 
HETATM   19  C   UNL     1       6.994  33.820  46.288  1.00  0.00     0.070 C 
HETATM   20  C   UNL     1       6.438  33.568  48.821  1.00  0.00     0.055 A 
ENDBRANCH  13  14
ENDBRANCH  11  13
ENDBRANCH   6  11
BRANCH   1  21
HETATM   21  C   UNL     1       7.395  24.706  53.514  1.00  0.00    -0.030 A 
HETATM   22  C   UNL     1       7.675  23.576  52.733  1.00  0.00     0.014 A 
HETATM   23  C   UNL     1       8.372  22.483  53.265  1.00  0.00     0.037 A 
HETATM   24  C   UNL     1       8.799  22.503  54.591  1.00  0.00     0.068 A 
HETATM   25  C   UNL     1       8.514  23.619  55.379  1.00  0.00     0.037 A 
HETATM   26  C   UNL     1       7.822  24.712  54.847  1.00  0.00     0.014 A 
BRANCH  24  27
HETATM   27  O   UNL     1       9.486  21.506  55.228  1.00  0.00    -0.352 OA
BRANCH  27  28
HETATM   28  C   UNL     1       8.872  20.218  55.260  1.00  0.00     0.171 C 
HETATM   29  C   UNL     1       7.618  20.314  56.110  1.00  0.00     0.034 C 
ENDBRANCH  27  28
ENDBRANCH  24  27
ENDBRANCH   1  21
TORSDOF 6
ENDMDL
MODEL 9
REMARK VINA RESULT:      -7.3      1.885      2.742
REMARK  6 active torsions:
REMARK  status: ('A' for Active; 'I' for Inactive)
REMARK    1  A    between atoms: C_2  and  O_3 
REMARK    2  A    between atoms: O_3  and  C_4 
REMARK    3  A    between atoms: C_7  and  C_8 
REMARK       I    between atoms: N_11  and  C_12 
REMARK       I    between atoms: C_12  and  N_13 
REMARK    4  A    between atoms: N_13  and  C_14 
REMARK    5  A    between atoms: C_14  and  C_15 
REMARK    6  A    between atoms: C_15  and  C_16 
ROOT
HETATM    1  C   UNL     1       6.310  26.313  55.660  1.00  0.00    -0.049 C 
HETATM    2  C   UNL     1       6.707  26.879  56.995  1.00  0.00     0.059 C 
HETATM    3  C   UNL     1       6.392  28.372  57.083  1.00  0.00     0.132 C 
HETATM    4  N   UNL     1       5.022  28.671  56.661  1.00  0.00    -0.331 N 
HETATM    5  C   UNL     1       4.312  29.785  57.096  1.00  0.00     0.318 C 
HETATM    6  N   UNL     1       4.807  30.399  58.210  1.00  0.00    -0.338 N 
HETATM    7  O   UNL     1       3.335  30.225  56.493  1.00  0.00    -0.247 OA
HETATM    8  C   UNL     1       4.616  28.164  55.353  1.00  0.00     0.155 C 
HETATM    9  C   UNL     1       5.356  26.926  54.934  1.00  0.00     0.001 C 
HETATM   10  H   UNL     1       5.280  29.825  58.898  1.00  0.00     0.164 HD
ENDROOT
BRANCH   6  11
HETATM   11  C   UNL     1       4.240  31.620  58.769  1.00  0.00     0.087 C 
HETATM   12  C   UNL     1       3.196  31.306  59.843  1.00  0.00     0.032 C 
BRANCH  11  13
HETATM   13  C   UNL     1       5.355  32.549  59.285  1.00  0.00     0.085 C 
BRANCH  13  14
HETATM   14  C   UNL     1       4.884  33.756  60.043  1.00  0.00     0.058 A 
HETATM   15  N   UNL     1       4.174  34.724  59.442  1.00  0.00    -0.179 NA
HETATM   16  N   UNL     1       3.918  35.599  60.429  1.00  0.00    -0.282 N 
HETATM   17  H   UNL     1       3.381  36.431  60.207  1.00  0.00     0.189 HD
HETATM   18  C   UNL     1       4.430  35.226  61.640  1.00  0.00     0.026 A 
HETATM   19  C   UNL     1       4.249  36.032  62.867  1.00  0.00     0.070 C 
HETATM   20  C   UNL     1       5.069  34.028  61.418  1.00  0.00     0.055 A 
ENDBRANCH  13  14
ENDBRANCH  11  13
ENDBRANCH   6  11
BRANCH   1  21
HETATM   21  C   UNL     1       7.021  25.128  55.141  1.00  0.00    -0.030 A 
HETATM   22  C   UNL     1       8.079  24.555  55.859  1.00  0.00     0.014 A 
HETATM   23  C   UNL     1       8.752  23.424  55.378  1.00  0.00     0.037 A 
HETATM   24  C   UNL     1       8.376  22.848  54.166  1.00  0.00     0.068 A 
HETATM   25  C   UNL     1       7.332  23.420  53.438  1.00  0.00     0.037 A 
HETATM   26  C   UNL     1       6.657  24.546  53.921  1.00  0.00     0.014 A 
BRANCH  24  27
HETATM   27  O   UNL     1       8.948  21.748  53.588  1.00  0.00    -0.352 OA
BRANCH  27  28
HETATM   28  C   UNL     1       8.234  20.517  53.700  1.00  0.00     0.171 C 
HETATM   29  C   UNL     1       8.428  19.985  55.108  1.00  0.00     0.034 C 
ENDBRANCH  27  28
ENDBRANCH  24  27
ENDBRANCH   1  21
TORSDOF 6
ENDMDL
MODEL 10
REMARK VINA RESULT:      -7.2      2.235      3.091
REMARK  6 active torsions:
REMARK  status: ('A' for Active; 'I' for Inactive)
REMARK    1  A    between atoms: C_2  and  O_3 
REMARK    2  A    between atoms: O_3  and  C_4 
REMARK    3  A    between atoms: C_7  and  C_8 
REMARK       I    between atoms: N_11  and  C_12 
REMARK       I    between atoms: C_12  and  N_13 
REMARK    4  A    between atoms: N_13  and  C_14 
REMARK    5  A    between atoms: C_14  and  C_15 
REMARK    6  A    between atoms: C_15  and  C_16 
ROOT
HETATM    1  C   UNL     1       5.227  29.094  56.081  1.00  0.00    -0.049 C 
HETATM    2  C   UNL     1       6.107  29.273  57.288  1.00  0.00     0.059 C 
HETATM    3  C   UNL     1       5.916  30.654  57.916  1.00  0.00     0.132 C 
HETATM    4  N   UNL     1       4.502  30.974  58.121  1.00  0.00    -0.331 N 
HETATM    5  C   UNL     1       4.051  31.867  59.087  1.00  0.00     0.318 C 
HETATM    6  N   UNL     1       4.944  32.163  60.076  1.00  0.00    -0.338 N 
HETATM    7  O   UNL     1       2.944  32.400  59.032  1.00  0.00    -0.247 OA
HETATM    8  C   UNL     1       3.628  30.843  56.958  1.00  0.00     0.155 C 
HETATM    9  C   UNL     1       4.106  29.829  55.959  1.00  0.00     0.001 C 
HETATM   10  H   UNL     1       5.605  31.445  60.348  1.00  0.00     0.164 HD
ENDROOT
BRANCH   6  11
HETATM   11  C   UNL     1       4.676  33.131  61.132  1.00  0.00     0.087 C 
HETATM   12  C   UNL     1       3.671  32.582  62.147  1.00  0.00     0.032 C 
BRANCH  11  13
HETATM   13  C   UNL     1       5.989  33.591  61.793  1.00  0.00     0.085 C 
BRANCH  13  14
HETATM   14  C   UNL     1       7.170  32.694  61.564  1.00  0.00     0.058 A 
HETATM   15  N   UNL     1       7.904  32.777  60.443  1.00  0.00    -0.179 NA
HETATM   16  N   UNL     1       8.866  31.855  60.615  1.00  0.00    -0.282 N 
HETATM   17  H   UNL     1       9.555  31.736  59.879  1.00  0.00     0.189 HD
HETATM   18  C   UNL     1       8.781  31.188  61.804  1.00  0.00     0.026 A 
HETATM   19  C   UNL     1       9.749  30.145  62.207  1.00  0.00     0.070 C 
HETATM   20  C   UNL     1       7.681  31.712  62.444  1.00  0.00     0.055 A 
ENDBRANCH  13  14
ENDBRANCH  11  13
ENDBRANCH   6  11
BRANCH   1  21
HETATM   21  C   UNL     1       5.646  28.157  55.019  1.00  0.00    -0.030 A 
HETATM   22  C   UNL     1       7.001  27.873  54.807  1.00  0.00     0.014 A 
HETATM   23  C   UNL     1       7.405  26.977  53.809  1.00  0.00     0.037 A 
HETATM   24  C   UNL     1       6.457  26.352  53.002  1.00  0.00     0.068 A 
HETATM   25  C   UNL     1       5.105  26.639  53.199  1.00  0.00     0.037 A 
HETATM   26  C   UNL     1       4.701  27.529  54.199  1.00  0.00     0.014 A 
BRANCH  24  27
HETATM   27  O   UNL     1       6.718  25.461  51.998  1.00  0.00    -0.352 OA
BRANCH  27  28
HETATM   28  C   UNL     1       7.979  24.793  52.040  1.00  0.00     0.171 C 
HETATM   29  C   UNL     1       7.784  23.464  52.746  1.00  0.00     0.034 C 
ENDBRANCH  27  28
ENDBRANCH  24  27
ENDBRANCH   1  21
TORSDOF 6
ENDMDL
