MODEL 1
REMARK VINA RESULT:      -9.8      0.000      0.000
REMARK  6 active torsions:
REMARK  status: ('A' for Active; 'I' for Inactive)
REMARK    1  A    between atoms: O_2  and  C_3 
REMARK    2  A    between atoms: C_5  and  O_6 
REMARK    3  A    between atoms: C_8  and  N_9 
REMARK       I    between atoms: N_9  and  C_10 
REMARK    4  A    between atoms: C_10  and  C_11 
REMARK    5  A    between atoms: C_11  and  N_12 
REMARK    6  A    between atoms: C_18  and  C_19 
ROOT
HETATM    1  N   UNL     1       4.884  29.498  57.773  1.00  0.00    -0.063 N 
HETATM    2  H   UNL     1       4.579  28.817  58.481  1.00  0.00     0.280 HD
HETATM    3  C   UNL     1       4.318  29.047  56.447  1.00  0.00     0.240 C 
HETATM    4  C   UNL     1       4.776  27.630  56.168  1.00  0.00     0.083 C 
HETATM    5  C   UNL     1       6.304  27.505  56.202  1.00  0.00     0.131 A 
HETATM    6  N   UNL     1       6.603  26.052  56.180  1.00  0.00    -0.251 NA
HETATM    7  C   UNL     1       7.234  25.809  55.062  1.00  0.00     0.132 A 
HETATM    8  C   UNL     1       7.457  27.069  54.259  1.00  0.00     0.272 A 
HETATM    9  O   UNL     1       7.970  27.181  53.174  1.00  0.00    -0.266 OA
HETATM   10  N   UNL     1       6.919  28.052  55.034  1.00  0.00    -0.327 N 
HETATM   11  C   UNL     1       6.892  28.088  57.492  1.00  0.00     0.083 C 
HETATM   12  C   UNL     1       6.391  29.498  57.769  1.00  0.00     0.240 C 
HETATM   13  H   UNL     1       6.887  29.004  54.686  1.00  0.00     0.165 HD
ENDROOT
BRANCH   1  14
HETATM   14  C   UNL     1       4.255  30.840  58.244  1.00  0.00     0.337 C 
BRANCH  14  15
HETATM   15  C   UNL     1       5.117  32.083  58.023  1.00  0.00     0.248 C 
HETATM   16  N   UNL     1       5.800  32.686  59.035  1.00  0.00    -0.323 N 
HETATM   17  H   UNL     1       6.486  33.340  58.666  1.00  0.00     0.169 HD
HETATM   18  O   UNL     1       5.305  32.509  56.877  1.00  0.00    -0.271 OA
BRANCH  16  19
HETATM   19  C   UNL     1       5.747  32.622  60.446  1.00  0.00     0.068 A 
HETATM   20  C   UNL     1       6.645  31.950  61.298  1.00  0.00     0.097 A 
HETATM   21  C   UNL     1       6.419  31.956  62.687  1.00  0.00     0.075 A 
HETATM   22  C   UNL     1       5.290  32.571  63.228  1.00  0.00     0.070 A 
HETATM   23  C   UNL     1       4.400  33.227  62.389  1.00  0.00     0.039 A 
HETATM   24  C   UNL     1       4.618  33.238  61.011  1.00  0.00     0.035 A 
BRANCH  20  25
HETATM   25  O   UNL     1       7.680  31.262  60.728  1.00  0.00    -0.354 OA
HETATM   26  C   UNL     1       8.770  30.884  61.572  1.00  0.00     0.210 C 
ENDBRANCH  20  25
BRANCH  22  27
HETATM   27  O   UNL     1       4.984  32.610  64.559  1.00  0.00    -0.356 OA
HETATM   28  C   UNL     1       4.564  33.879  65.056  1.00  0.00     0.210 C 
ENDBRANCH  22  27
ENDBRANCH  16  19
ENDBRANCH  14  15
ENDBRANCH   1  14
BRANCH   7  29
HETATM   29  C   UNL     1       7.646  24.457  54.637  1.00  0.00    -0.002 A 
HETATM   30  C   UNL     1       7.218  23.996  53.381  1.00  0.00     0.016 A 
HETATM   31  C   UNL     1       7.597  22.731  52.924  1.00  0.00     0.024 A 
HETATM   32  C   UNL     1       8.399  21.920  53.722  1.00  0.00     0.034 A 
HETATM   33 CL   UNL     1       8.869  20.364  53.160  1.00  0.00    -0.084 Cl
HETATM   34  C   UNL     1       8.822  22.363  54.974  1.00  0.00     0.024 A 
HETATM   35  C   UNL     1       8.446  23.632  55.433  1.00  0.00     0.016 A 
ENDBRANCH   7  29
TORSDOF 6
ENDMDL
MODEL 2
REMARK VINA RESULT:      -9.6      4.011     10.352
REMARK  6 active torsions:
REMARK  status: ('A' for Active; 'I' for Inactive)
REMARK    1  A    between atoms: O_2  and  C_3 
REMARK    2  A    between atoms: C_5  and  O_6 
REMARK    3  A    between atoms: C_8  and  N_9 
REMARK       I    between atoms: N_9  and  C_10 
REMARK    4  A    between atoms: C_10  and  C_11 
REMARK    5  A    between atoms: C_11  and  N_12 
REMARK    6  A    between atoms: C_18  and  C_19 
ROOT
HETATM    1  N   UNL     1       6.989  28.245  55.851  1.00  0.00    -0.063 N 
HETATM    2  H   UNL     1       6.124  27.881  56.272  1.00  0.00     0.280 HD
HETATM    3  C   UNL     1       8.103  28.005  56.842  1.00  0.00     0.240 C 
HETATM    4  C   UNL     1       7.744  28.659  58.161  1.00  0.00     0.083 C 
HETATM    5  C   UNL     1       7.445  30.154  57.997  1.00  0.00     0.131 A 
HETATM    6  N   UNL     1       6.861  30.604  59.284  1.00  0.00    -0.251 NA
HETATM    7  C   UNL     1       7.695  31.467  59.801  1.00  0.00     0.132 A 
HETATM    8  C   UNL     1       8.882  31.709  58.898  1.00  0.00     0.272 A 
HETATM    9  O   UNL     1       9.841  32.412  59.099  1.00  0.00    -0.266 OA
HETATM   10  N   UNL     1       8.633  30.926  57.811  1.00  0.00    -0.327 N 
HETATM   11  C   UNL     1       6.412  30.408  56.894  1.00  0.00     0.083 C 
HETATM   12  C   UNL     1       6.777  29.715  55.590  1.00  0.00     0.240 C 
HETATM   13  H   UNL     1       9.323  30.862  57.071  1.00  0.00     0.165 HD
ENDROOT
BRANCH   1  14
HETATM   14  C   UNL     1       7.168  27.396  54.561  1.00  0.00     0.337 C 
BRANCH  14  15
HETATM   15  C   UNL     1       5.889  26.776  53.998  1.00  0.00     0.248 C 
HETATM   16  N   UNL     1       5.679  25.432  53.974  1.00  0.00    -0.323 N 
HETATM   17  H   UNL     1       4.702  25.224  53.784  1.00  0.00     0.169 HD
HETATM   18  O   UNL     1       4.953  27.505  53.647  1.00  0.00    -0.271 OA
BRANCH  16  19
HETATM   19  C   UNL     1       6.504  24.294  54.126  1.00  0.00     0.068 A 
HETATM   20  C   UNL     1       7.028  23.781  55.328  1.00  0.00     0.097 A 
HETATM   21  C   UNL     1       7.871  22.655  55.293  1.00  0.00     0.075 A 
HETATM   22  C   UNL     1       8.240  22.072  54.080  1.00  0.00     0.070 A 
HETATM   23  C   UNL     1       7.731  22.581  52.894  1.00  0.00     0.039 A 
HETATM   24  C   UNL     1       6.885  23.691  52.915  1.00  0.00     0.035 A 
BRANCH  20  25
HETATM   25  O   UNL     1       6.739  24.442  56.490  1.00  0.00    -0.354 OA
HETATM   26  C   UNL     1       7.783  24.570  57.457  1.00  0.00     0.210 C 
ENDBRANCH  20  25
BRANCH  22  27
HETATM   27  O   UNL     1       9.064  20.990  53.952  1.00  0.00    -0.356 OA
HETATM   28  C   UNL     1       8.875  19.956  54.914  1.00  0.00     0.210 C 
ENDBRANCH  22  27
ENDBRANCH  16  19
ENDBRANCH  14  15
ENDBRANCH   1  14
BRANCH   7  29
HETATM   29  C   UNL     1       7.501  32.097  61.121  1.00  0.00    -0.002 A 
HETATM   30  C   UNL     1       8.373  31.742  62.162  1.00  0.00     0.016 A 
HETATM   31  C   UNL     1       8.243  32.325  63.426  1.00  0.00     0.024 A 
HETATM   32  C   UNL     1       7.238  33.260  63.656  1.00  0.00     0.034 A 
HETATM   33 CL   UNL     1       7.078  33.980  65.208  1.00  0.00    -0.084 Cl
HETATM   34  C   UNL     1       6.360  33.613  62.632  1.00  0.00     0.024 A 
HETATM   35  C   UNL     1       6.490  33.033  61.364  1.00  0.00     0.016 A 
ENDBRANCH   7  29
TORSDOF 6
ENDMDL
MODEL 3
REMARK VINA RESULT:      -9.3      1.602      2.272
REMARK  6 active torsions:
REMARK  status: ('A' for Active; 'I' for Inactive)
REMARK    1  A    between atoms: O_2  and  C_3 
REMARK    2  A    between atoms: C_5  and  O_6 
REMARK    3  A    between atoms: C_8  and  N_9 
REMARK       I    between atoms: N_9  and  C_10 
REMARK    4  A    between atoms: C_10  and  C_11 
REMARK    5  A    between atoms: C_11  and  N_12 
REMARK    6  A    between atoms: C_18  and  C_19 
ROOT
HETATM    1  N   UNL     1       7.407  30.088  58.199  1.00  0.00    -0.063 N 
HETATM    2  H   UNL     1       7.713  29.501  58.985  1.00  0.00     0.280 HD
HETATM    3  C   UNL     1       6.120  29.498  57.674  1.00  0.00     0.240 C 
HETATM    4  C   UNL     1       6.354  28.049  57.298  1.00  0.00     0.083 C 
HETATM    5  C   UNL     1       7.499  27.897  56.288  1.00  0.00     0.131 A 
HETATM    6  N   UNL     1       7.794  26.445  56.211  1.00  0.00    -0.251 NA
HETATM    7  C   UNL     1       7.506  26.061  54.996  1.00  0.00     0.132 A 
HETATM    8  C   UNL     1       7.040  27.215  54.139  1.00  0.00     0.272 A 
HETATM    9  O   UNL     1       6.666  27.189  52.994  1.00  0.00    -0.266 OA
HETATM   10  N   UNL     1       7.114  28.292  54.970  1.00  0.00    -0.327 N 
HETATM   11  C   UNL     1       8.769  28.614  56.760  1.00  0.00     0.083 C 
HETATM   12  C   UNL     1       8.502  30.057  57.163  1.00  0.00     0.240 C 
HETATM   13  H   UNL     1       6.792  29.198  54.647  1.00  0.00     0.165 HD
ENDROOT
BRANCH   1  14
HETATM   14  C   UNL     1       7.185  31.488  58.837  1.00  0.00     0.337 C 
BRANCH  14  15
HETATM   15  C   UNL     1       8.408  32.104  59.517  1.00  0.00     0.248 C 
HETATM   16  N   UNL     1       8.416  32.443  60.835  1.00  0.00    -0.323 N 
HETATM   17  H   UNL     1       9.365  32.615  61.156  1.00  0.00     0.169 HD
HETATM   18  O   UNL     1       9.474  32.204  58.897  1.00  0.00    -0.271 OA
BRANCH  16  19
HETATM   19  C   UNL     1       7.419  32.629  61.819  1.00  0.00     0.068 A 
HETATM   20  C   UNL     1       6.115  33.122  61.622  1.00  0.00     0.097 A 
HETATM   21  C   UNL     1       5.259  33.283  62.728  1.00  0.00     0.075 A 
HETATM   22  C   UNL     1       5.701  33.013  64.023  1.00  0.00     0.070 A 
HETATM   23  C   UNL     1       6.989  32.534  64.220  1.00  0.00     0.039 A 
HETATM   24  C   UNL     1       7.844  32.361  63.131  1.00  0.00     0.035 A 
BRANCH  20  25
HETATM   25  O   UNL     1       5.748  33.485  60.355  1.00  0.00    -0.354 OA
HETATM   26  C   UNL     1       4.352  33.518  60.053  1.00  0.00     0.210 C 
ENDBRANCH  20  25
BRANCH  22  27
HETATM   27  O   UNL     1       4.947  33.156  65.152  1.00  0.00    -0.356 OA
HETATM   28  C   UNL     1       4.390  34.451  65.359  1.00  0.00     0.210 C 
ENDBRANCH  22  27
ENDBRANCH  16  19
ENDBRANCH  14  15
ENDBRANCH   1  14
BRANCH   7  29
HETATM   29  C   UNL     1       7.604  24.661  54.540  1.00  0.00    -0.002 A 
HETATM   30  C   UNL     1       7.911  24.422  53.191  1.00  0.00     0.016 A 
HETATM   31  C   UNL     1       8.034  23.114  52.713  1.00  0.00     0.024 A 
HETATM   32  C   UNL     1       7.845  22.041  53.580  1.00  0.00     0.034 A 
HETATM   33 CL   UNL     1       7.999  20.432  52.996  1.00  0.00    -0.084 Cl
HETATM   34  C   UNL     1       7.530  22.267  54.919  1.00  0.00     0.024 A 
HETATM   35  C   UNL     1       7.410  23.576  55.401  1.00  0.00     0.016 A 
ENDBRANCH   7  29
TORSDOF 6
ENDMDL
MODEL 4
REMARK VINA RESULT:      -9.0      1.809      2.532
REMARK  6 active torsions:
REMARK  status: ('A' for Active; 'I' for Inactive)
REMARK    1  A    between atoms: O_2  and  C_3 
REMARK    2  A    between atoms: C_5  and  O_6 
REMARK    3  A    between atoms: C_8  and  N_9 
REMARK       I    between atoms: N_9  and  C_10 
REMARK    4  A    between atoms: C_10  and  C_11 
REMARK    5  A    between atoms: C_11  and  N_12 
REMARK    6  A    between atoms: C_18  and  C_19 
ROOT
HETATM    1  N   UNL     1       7.659  30.188  58.280  1.00  0.00    -0.063 N 
HETATM    2  H   UNL     1       7.934  29.565  59.050  1.00  0.00     0.280 HD
HETATM    3  C   UNL     1       6.354  29.666  57.726  1.00  0.00     0.240 C 
HETATM    4  C   UNL     1       6.534  28.221  57.308  1.00  0.00     0.083 C 
HETATM    5  C   UNL     1       7.680  28.055  56.303  1.00  0.00     0.131 A 
HETATM    6  N   UNL     1       7.919  26.595  56.183  1.00  0.00    -0.251 NA
HETATM    7  C   UNL     1       7.627  26.260  54.954  1.00  0.00     0.132 A 
HETATM    8  C   UNL     1       7.214  27.458  54.130  1.00  0.00     0.272 A 
HETATM    9  O   UNL     1       6.850  27.482  52.981  1.00  0.00    -0.266 OA
HETATM   10  N   UNL     1       7.323  28.505  54.995  1.00  0.00    -0.327 N 
HETATM   11  C   UNL     1       8.974  28.705  56.806  1.00  0.00     0.083 C 
HETATM   12  C   UNL     1       8.761  30.145  57.252  1.00  0.00     0.240 C 
HETATM   13  H   UNL     1       7.041  29.432  54.697  1.00  0.00     0.165 HD
ENDROOT
BRANCH   1  14
HETATM   14  C   UNL     1       7.486  31.575  58.959  1.00  0.00     0.337 C 
BRANCH  14  15
HETATM   15  C   UNL     1       8.407  31.845  60.149  1.00  0.00     0.248 C 
HETATM   16  N   UNL     1       7.929  32.132  61.391  1.00  0.00    -0.323 N 
HETATM   17  H   UNL     1       8.665  32.051  62.088  1.00  0.00     0.169 HD
HETATM   18  O   UNL     1       9.629  31.693  60.032  1.00  0.00    -0.271 OA
BRANCH  16  19
HETATM   19  C   UNL     1       6.674  32.533  61.905  1.00  0.00     0.068 A 
HETATM   20  C   UNL     1       6.401  33.002  63.204  1.00  0.00     0.097 A 
HETATM   21  C   UNL     1       5.078  33.321  63.563  1.00  0.00     0.075 A 
HETATM   22  C   UNL     1       4.025  33.127  62.668  1.00  0.00     0.070 A 
HETATM   23  C   UNL     1       4.292  32.658  61.389  1.00  0.00     0.039 A 
HETATM   24  C   UNL     1       5.600  32.348  61.017  1.00  0.00     0.035 A 
BRANCH  20  25
HETATM   25  O   UNL     1       7.437  33.074  64.094  1.00  0.00    -0.354 OA
HETATM   26  C   UNL     1       7.180  33.675  65.364  1.00  0.00     0.210 C 
ENDBRANCH  20  25
BRANCH  22  27
HETATM   27  O   UNL     1       2.713  33.393  62.936  1.00  0.00    -0.356 OA
HETATM   28  C   UNL     1       2.264  34.698  62.578  1.00  0.00     0.210 C 
ENDBRANCH  22  27
ENDBRANCH  16  19
ENDBRANCH  14  15
ENDBRANCH   1  14
BRANCH   7  29
HETATM   29  C   UNL     1       7.673  24.872  54.456  1.00  0.00    -0.002 A 
HETATM   30  C   UNL     1       7.488  23.830  55.378  1.00  0.00     0.016 A 
HETATM   31  C   UNL     1       7.503  22.498  54.954  1.00  0.00     0.024 A 
HETATM   32  C   UNL     1       7.710  22.203  53.610  1.00  0.00     0.034 A 
HETATM   33 CL   UNL     1       7.726  20.565  53.085  1.00  0.00    -0.084 Cl
HETATM   34  C   UNL     1       7.904  23.230  52.687  1.00  0.00     0.024 A 
HETATM   35  C   UNL     1       7.886  24.565  53.109  1.00  0.00     0.016 A 
ENDBRANCH   7  29
TORSDOF 6
ENDMDL
MODEL 5
REMARK VINA RESULT:      -9.0      2.043      2.405
REMARK  6 active torsions:
REMARK  status: ('A' for Active; 'I' for Inactive)
REMARK    1  A    between atoms: O_2  and  C_3 
REMARK    2  A    between atoms: C_5  and  O_6 
REMARK    3  A    between atoms: C_8  and  N_9 
REMARK       I    between atoms: N_9  and  C_10 
REMARK    4  A    between atoms: C_10  and  C_11 
REMARK    5  A    between atoms: C_11  and  N_12 
REMARK    6  A    between atoms: C_18  and  C_19 
ROOT
HETATM    1  N   UNL     1       5.327  30.504  58.278  1.00  0.00    -0.063 N 
HETATM    2  H   UNL     1       5.036  29.817  58.985  1.00  0.00     0.280 HD
HETATM    3  C   UNL     1       4.592  30.172  57.001  1.00  0.00     0.240 C 
HETATM    4  C   UNL     1       4.887  28.737  56.616  1.00  0.00     0.083 C 
HETATM    5  C   UNL     1       6.393  28.478  56.483  1.00  0.00     0.131 A 
HETATM    6  N   UNL     1       6.553  27.008  56.368  1.00  0.00    -0.251 NA
HETATM    7  C   UNL     1       7.042  26.769  55.180  1.00  0.00     0.132 A 
HETATM    8  C   UNL     1       7.298  28.045  54.413  1.00  0.00     0.272 A 
HETATM    9  O   UNL     1       7.706  28.167  53.285  1.00  0.00    -0.266 OA
HETATM   10  N   UNL     1       6.934  29.030  55.281  1.00  0.00    -0.327 N 
HETATM   11  C   UNL     1       7.159  28.941  57.728  1.00  0.00     0.083 C 
HETATM   12  C   UNL     1       6.821  30.374  58.114  1.00  0.00     0.240 C 
HETATM   13  H   UNL     1       6.954  29.997  54.979  1.00  0.00     0.165 HD
ENDROOT
BRANCH   1  14
HETATM   14  C   UNL     1       4.876  31.869  58.869  1.00  0.00     0.337 C 
BRANCH  14  15
HETATM   15  C   UNL     1       3.675  31.813  59.813  1.00  0.00     0.248 C 
HETATM   16  N   UNL     1       3.456  32.754  60.772  1.00  0.00    -0.323 N 
HETATM   17  H   UNL     1       2.510  32.682  61.137  1.00  0.00     0.169 HD
HETATM   18  O   UNL     1       2.800  30.954  59.649  1.00  0.00    -0.271 OA
BRANCH  16  19
HETATM   19  C   UNL     1       4.243  33.765  61.371  1.00  0.00     0.068 A 
HETATM   20  C   UNL     1       5.285  33.588  62.300  1.00  0.00     0.097 A 
HETATM   21  C   UNL     1       5.941  34.714  62.830  1.00  0.00     0.075 A 
HETATM   22  C   UNL     1       5.538  36.006  62.490  1.00  0.00     0.070 A 
HETATM   23  C   UNL     1       4.505  36.182  61.579  1.00  0.00     0.039 A 
HETATM   24  C   UNL     1       3.854  35.073  61.039  1.00  0.00     0.035 A 
BRANCH  20  25
HETATM   25  O   UNL     1       5.583  32.314  62.700  1.00  0.00    -0.354 OA
HETATM   26  C   UNL     1       6.853  31.780  62.323  1.00  0.00     0.210 C 
ENDBRANCH  20  25
BRANCH  22  27
HETATM   27  O   UNL     1       6.105  37.153  62.967  1.00  0.00    -0.356 OA
HETATM   28  C   UNL     1       5.829  38.333  62.218  1.00  0.00     0.210 C 
ENDBRANCH  22  27
ENDBRANCH  16  19
ENDBRANCH  14  15
ENDBRANCH   1  14
BRANCH   7  29
HETATM   29  C   UNL     1       7.284  25.410  54.658  1.00  0.00    -0.002 A 
HETATM   30  C   UNL     1       7.151  24.326  55.541  1.00  0.00     0.016 A 
HETATM   31  C   UNL     1       7.350  23.018  55.091  1.00  0.00     0.024 A 
HETATM   32  C   UNL     1       7.688  22.789  53.760  1.00  0.00     0.034 A 
HETATM   33 CL   UNL     1       7.931  21.180  53.204  1.00  0.00    -0.084 Cl
HETATM   34  C   UNL     1       7.832  23.858  52.878  1.00  0.00     0.024 A 
HETATM   35  C   UNL     1       7.630  25.169  53.325  1.00  0.00     0.016 A 
ENDBRANCH   7  29
TORSDOF 6
ENDMDL
MODEL 6
REMARK VINA RESULT:      -9.0      1.800      2.449
REMARK  6 active torsions:
REMARK  status: ('A' for Active; 'I' for Inactive)
REMARK    1  A    between atoms: O_2  and  C_3 
REMARK    2  A    between atoms: C_5  and  O_6 
REMARK    3  A    between atoms: C_8  and  N_9 
REMARK       I    between atoms: N_9  and  C_10 
REMARK    4  A    between atoms: C_10  and  C_11 
REMARK    5  A    between atoms: C_11  and  N_12 
REMARK    6  A    between atoms: C_18  and  C_19 
ROOT
HETATM    1  N   UNL     1       5.750  30.661  58.482  1.00  0.00    -0.063 N 
HETATM    2  H   UNL     1       5.432  30.000  59.202  1.00  0.00     0.280 HD
HETATM    3  C   UNL     1       4.979  30.353  57.220  1.00  0.00     0.240 C 
HETATM    4  C   UNL     1       5.190  28.899  56.851  1.00  0.00     0.083 C 
HETATM    5  C   UNL     1       6.677  28.557  56.701  1.00  0.00     0.131 A 
HETATM    6  N   UNL     1       6.755  27.078  56.605  1.00  0.00    -0.251 NA
HETATM    7  C   UNL     1       7.213  26.797  55.413  1.00  0.00     0.132 A 
HETATM    8  C   UNL     1       7.526  28.047  54.624  1.00  0.00     0.272 A 
HETATM    9  O   UNL     1       7.924  28.132  53.489  1.00  0.00    -0.266 OA
HETATM   10  N   UNL     1       7.229  29.061  55.484  1.00  0.00    -0.327 N 
HETATM   11  C   UNL     1       7.486  28.993  57.928  1.00  0.00     0.083 C 
HETATM   12  C   UNL     1       7.232  30.447  58.299  1.00  0.00     0.240 C 
HETATM   13  H   UNL     1       7.298  30.022  55.167  1.00  0.00     0.165 HD
ENDROOT
BRANCH   1  14
HETATM   14  C   UNL     1       5.383  32.056  59.060  1.00  0.00     0.337 C 
BRANCH  14  15
HETATM   15  C   UNL     1       4.015  32.149  59.737  1.00  0.00     0.248 C 
HETATM   16  N   UNL     1       3.830  32.795  60.921  1.00  0.00    -0.323 N 
HETATM   17  H   UNL     1       2.840  32.951  61.094  1.00  0.00     0.169 HD
HETATM   18  O   UNL     1       3.008  31.725  59.156  1.00  0.00    -0.271 OA
BRANCH  16  19
HETATM   19  C   UNL     1       4.687  33.262  61.944  1.00  0.00     0.068 A 
HETATM   20  C   UNL     1       5.063  34.596  62.192  1.00  0.00     0.097 A 
HETATM   21  C   UNL     1       5.964  34.881  63.234  1.00  0.00     0.075 A 
HETATM   22  C   UNL     1       6.533  33.856  63.991  1.00  0.00     0.070 A 
HETATM   23  C   UNL     1       6.169  32.539  63.743  1.00  0.00     0.039 A 
HETATM   24  C   UNL     1       5.269  32.245  62.719  1.00  0.00     0.035 A 
BRANCH  20  25
HETATM   25  O   UNL     1       4.576  35.567  61.361  1.00  0.00    -0.354 OA
HETATM   26  C   UNL     1       3.714  36.555  61.929  1.00  0.00     0.210 C 
ENDBRANCH  20  25
BRANCH  22  27
HETATM   27  O   UNL     1       7.426  34.039  65.008  1.00  0.00    -0.356 OA
HETATM   28  C   UNL     1       6.868  34.063  66.320  1.00  0.00     0.210 C 
ENDBRANCH  22  27
ENDBRANCH  16  19
ENDBRANCH  14  15
ENDBRANCH   1  14
BRANCH   7  29
HETATM   29  C   UNL     1       7.373  25.420  54.907  1.00  0.00    -0.002 A 
HETATM   30  C   UNL     1       6.751  25.083  53.693  1.00  0.00     0.016 A 
HETATM   31  C   UNL     1       6.887  23.798  53.160  1.00  0.00     0.024 A 
HETATM   32  C   UNL     1       7.639  22.844  53.841  1.00  0.00     0.034 A 
HETATM   33 CL   UNL     1       7.810  21.264  53.185  1.00  0.00    -0.084 Cl
HETATM   34  C   UNL     1       8.253  23.165  55.050  1.00  0.00     0.024 A 
HETATM   35  C   UNL     1       8.120  24.453  55.585  1.00  0.00     0.016 A 
ENDBRANCH   7  29
TORSDOF 6
ENDMDL
MODEL 7
REMARK VINA RESULT:      -9.0      1.829      2.887
REMARK  6 active torsions:
REMARK  status: ('A' for Active; 'I' for Inactive)
REMARK    1  A    between atoms: O_2  and  C_3 
REMARK    2  A    between atoms: C_5  and  O_6 
REMARK    3  A    between atoms: C_8  and  N_9 
REMARK       I    between atoms: N_9  and  C_10 
REMARK    4  A    between atoms: C_10  and  C_11 
REMARK    5  A    between atoms: C_11  and  N_12 
REMARK    6  A    between atoms: C_18  and  C_19 
ROOT
HETATM    1  N   UNL     1       4.506  30.796  56.900  1.00  0.00    -0.063 N 
HETATM    2  H   UNL     1       5.128  31.184  56.179  1.00  0.00     0.280 HD
HETATM    3  C   UNL     1       5.365  29.992  57.847  1.00  0.00     0.240 C 
HETATM    4  C   UNL     1       6.120  28.940  57.061  1.00  0.00     0.083 C 
HETATM    5  C   UNL     1       5.176  28.041  56.254  1.00  0.00     0.131 A 
HETATM    6  N   UNL     1       6.037  27.246  55.343  1.00  0.00    -0.251 NA
HETATM    7  C   UNL     1       5.914  25.994  55.697  1.00  0.00     0.132 A 
HETATM    8  C   UNL     1       4.934  25.828  56.836  1.00  0.00     0.272 A 
HETATM    9  O   UNL     1       4.629  24.816  57.414  1.00  0.00    -0.266 OA
HETATM   10  N   UNL     1       4.494  27.094  57.078  1.00  0.00    -0.327 N 
HETATM   11  C   UNL     1       4.210  28.862  55.393  1.00  0.00     0.083 C 
HETATM   12  C   UNL     1       3.488  29.933  56.197  1.00  0.00     0.240 C 
HETATM   13  H   UNL     1       3.860  27.265  57.851  1.00  0.00     0.165 HD
ENDROOT
BRANCH   1  14
HETATM   14  C   UNL     1       3.898  32.049  57.591  1.00  0.00     0.337 C 
BRANCH  14  15
HETATM   15  C   UNL     1       4.836  33.250  57.718  1.00  0.00     0.248 C 
HETATM   16  N   UNL     1       5.327  33.669  58.917  1.00  0.00    -0.323 N 
HETATM   17  H   UNL     1       6.098  34.318  58.783  1.00  0.00     0.169 HD
HETATM   18  O   UNL     1       5.265  33.809  56.701  1.00  0.00    -0.271 OA
BRANCH  16  19
HETATM   19  C   UNL     1       4.991  33.425  60.268  1.00  0.00     0.068 A 
HETATM   20  C   UNL     1       3.784  33.754  60.914  1.00  0.00     0.097 A 
HETATM   21  C   UNL     1       3.632  33.474  62.285  1.00  0.00     0.075 A 
HETATM   22  C   UNL     1       4.679  32.924  63.026  1.00  0.00     0.070 A 
HETATM   23  C   UNL     1       5.872  32.606  62.391  1.00  0.00     0.039 A 
HETATM   24  C   UNL     1       6.032  32.869  61.031  1.00  0.00     0.035 A 
BRANCH  20  25
HETATM   25  O   UNL     1       2.819  34.395  60.188  1.00  0.00    -0.354 OA
HETATM   26  C   UNL     1       1.513  34.491  60.760  1.00  0.00     0.210 C 
ENDBRANCH  20  25
BRANCH  22  27
HETATM   27  O   UNL     1       4.625  32.635  64.360  1.00  0.00    -0.356 OA
HETATM   28  C   UNL     1       5.239  33.590  65.221  1.00  0.00     0.210 C 
ENDBRANCH  22  27
ENDBRANCH  16  19
ENDBRANCH  14  15
ENDBRANCH   1  14
BRANCH   7  29
HETATM   29  C   UNL     1       6.669  24.893  55.070  1.00  0.00    -0.002 A 
HETATM   30  C   UNL     1       7.590  24.185  55.859  1.00  0.00     0.016 A 
HETATM   31  C   UNL     1       8.316  23.120  55.317  1.00  0.00     0.024 A 
HETATM   32  C   UNL     1       8.129  22.764  53.985  1.00  0.00     0.034 A 
HETATM   33 CL   UNL     1       9.019  21.453  53.317  1.00  0.00    -0.084 Cl
HETATM   34  C   UNL     1       7.225  23.466  53.190  1.00  0.00     0.024 A 
HETATM   35  C   UNL     1       6.494  24.531  53.730  1.00  0.00     0.016 A 
ENDBRANCH   7  29
TORSDOF 6
ENDMDL
MODEL 8
REMARK VINA RESULT:      -8.9      6.136      9.879
REMARK  6 active torsions:
REMARK  status: ('A' for Active; 'I' for Inactive)
REMARK    1  A    between atoms: O_2  and  C_3 
REMARK    2  A    between atoms: C_5  and  O_6 
REMARK    3  A    between atoms: C_8  and  N_9 
REMARK       I    between atoms: N_9  and  C_10 
REMARK    4  A    between atoms: C_10  and  C_11 
REMARK    5  A    between atoms: C_11  and  N_12 
REMARK    6  A    between atoms: C_18  and  C_19 
ROOT
HETATM    1  N   UNL     1       4.028  29.310  51.484  1.00  0.00    -0.063 N 
HETATM    2  H   UNL     1       3.634  28.663  50.789  1.00  0.00     0.280 HD
HETATM    3  C   UNL     1       5.532  29.198  51.399  1.00  0.00     0.240 C 
HETATM    4  C   UNL     1       5.935  27.754  51.613  1.00  0.00     0.083 C 
HETATM    5  C   UNL     1       5.402  27.201  52.941  1.00  0.00     0.131 A 
HETATM    6  N   UNL     1       5.634  25.736  52.904  1.00  0.00    -0.251 NA
HETATM    7  C   UNL     1       6.489  25.461  53.853  1.00  0.00     0.132 A 
HETATM    8  C   UNL     1       6.871  26.695  54.637  1.00  0.00     0.272 A 
HETATM    9  O   UNL     1       7.660  26.786  55.544  1.00  0.00    -0.266 OA
HETATM   10  N   UNL     1       6.137  27.689  54.065  1.00  0.00    -0.327 N 
HETATM   11  C   UNL     1       3.894  27.437  53.088  1.00  0.00     0.083 C 
HETATM   12  C   UNL     1       3.510  28.887  52.836  1.00  0.00     0.240 C 
HETATM   13  H   UNL     1       6.259  28.645  54.377  1.00  0.00     0.165 HD
ENDROOT
BRANCH   1  14
HETATM   14  C   UNL     1       3.524  30.708  51.027  1.00  0.00     0.337 C 
BRANCH  14  15
HETATM   15  C   UNL     1       4.255  31.310  49.826  1.00  0.00     0.248 C 
HETATM   16  N   UNL     1       4.169  30.776  48.577  1.00  0.00    -0.323 N 
HETATM   17  H   UNL     1       4.521  31.428  47.882  1.00  0.00     0.169 HD
HETATM   18  O   UNL     1       4.861  32.382  49.946  1.00  0.00    -0.271 OA
BRANCH  16  19
HETATM   19  C   UNL     1       3.732  29.537  48.054  1.00  0.00     0.068 A 
HETATM   20  C   UNL     1       2.427  29.201  47.648  1.00  0.00     0.097 A 
HETATM   21  C   UNL     1       2.157  27.900  47.186  1.00  0.00     0.075 A 
HETATM   22  C   UNL     1       3.152  26.921  47.174  1.00  0.00     0.070 A 
HETATM   23  C   UNL     1       4.438  27.249  47.580  1.00  0.00     0.039 A 
HETATM   24  C   UNL     1       4.721  28.539  48.031  1.00  0.00     0.035 A 
BRANCH  20  25
HETATM   25  O   UNL     1       1.448  30.148  47.778  1.00  0.00    -0.354 OA
HETATM   26  C   UNL     1       0.858  30.660  46.582  1.00  0.00     0.210 C 
ENDBRANCH  20  25
BRANCH  22  27
HETATM   27  O   UNL     1       2.976  25.632  46.758  1.00  0.00    -0.356 OA
HETATM   28  C   UNL     1       2.967  24.649  47.790  1.00  0.00     0.210 C 
ENDBRANCH  22  27
ENDBRANCH  16  19
ENDBRANCH  14  15
ENDBRANCH   1  14
BRANCH   7  29
HETATM   29  C   UNL     1       7.027  24.109  54.097  1.00  0.00    -0.002 A 
HETATM   30  C   UNL     1       7.502  23.375  52.998  1.00  0.00     0.016 A 
HETATM   31  C   UNL     1       8.039  22.097  53.178  1.00  0.00     0.024 A 
HETATM   32  C   UNL     1       8.098  21.546  54.455  1.00  0.00     0.034 A 
HETATM   33 CL   UNL     1       8.761  19.975  54.679  1.00  0.00    -0.084 Cl
HETATM   34  C   UNL     1       7.620  22.262  55.552  1.00  0.00     0.024 A 
HETATM   35  C   UNL     1       7.085  23.543  55.374  1.00  0.00     0.016 A 
ENDBRANCH   7  29
TORSDOF 6
ENDMDL
MODEL 9
REMARK VINA RESULT:      -8.8      1.803      2.264
REMARK  6 active torsions:
REMARK  status: ('A' for Active; 'I' for Inactive)
REMARK    1  A    between atoms: O_2  and  C_3 
REMARK    2  A    between atoms: C_5  and  O_6 
REMARK    3  A    between atoms: C_8  and  N_9 
REMARK       I    between atoms: N_9  and  C_10 
REMARK    4  A    between atoms: C_10  and  C_11 
REMARK    5  A    between atoms: C_11  and  N_12 
REMARK    6  A    between atoms: C_18  and  C_19 
ROOT
HETATM    1  N   UNL     1       4.410  30.879  56.170  1.00  0.00    -0.063 N 
HETATM    2  H   UNL     1       5.017  31.187  55.400  1.00  0.00     0.280 HD
HETATM    3  C   UNL     1       5.294  30.220  57.202  1.00  0.00     0.240 C 
HETATM    4  C   UNL     1       6.067  29.094  56.547  1.00  0.00     0.083 C 
HETATM    5  C   UNL     1       5.139  28.080  55.868  1.00  0.00     0.131 A 
HETATM    6  N   UNL     1       6.010  27.196  55.056  1.00  0.00    -0.251 NA
HETATM    7  C   UNL     1       5.919  25.996  55.566  1.00  0.00     0.132 A 
HETATM    8  C   UNL     1       4.951  25.953  56.727  1.00  0.00     0.272 A 
HETATM    9  O   UNL     1       4.673  25.015  57.430  1.00  0.00    -0.266 OA
HETATM   10  N   UNL     1       4.483  27.230  56.812  1.00  0.00    -0.327 N 
HETATM   11  C   UNL     1       4.147  28.765  54.921  1.00  0.00     0.083 C 
HETATM   12  C   UNL     1       3.407  29.913  55.592  1.00  0.00     0.240 C 
HETATM   13  H   UNL     1       3.852  27.483  57.564  1.00  0.00     0.165 HD
ENDROOT
BRANCH   1  14
HETATM   14  C   UNL     1       3.779  32.196  56.704  1.00  0.00     0.337 C 
BRANCH  14  15
HETATM   15  C   UNL     1       4.749  33.362  56.891  1.00  0.00     0.248 C 
HETATM   16  N   UNL     1       5.160  33.780  58.119  1.00  0.00    -0.323 N 
HETATM   17  H   UNL     1       5.964  34.397  58.039  1.00  0.00     0.169 HD
HETATM   18  O   UNL     1       5.279  33.889  55.904  1.00  0.00    -0.271 OA
BRANCH  16  19
HETATM   19  C   UNL     1       4.710  33.570  59.443  1.00  0.00     0.068 A 
HETATM   20  C   UNL     1       5.281  32.717  60.407  1.00  0.00     0.097 A 
HETATM   21  C   UNL     1       4.676  32.595  61.671  1.00  0.00     0.075 A 
HETATM   22  C   UNL     1       3.488  33.265  61.966  1.00  0.00     0.070 A 
HETATM   23  C   UNL     1       2.920  34.100  61.014  1.00  0.00     0.039 A 
HETATM   24  C   UNL     1       3.515  34.238  59.760  1.00  0.00     0.035 A 
BRANCH  20  25
HETATM   25  O   UNL     1       6.382  31.987  60.050  1.00  0.00    -0.354 OA
HETATM   26  C   UNL     1       7.365  31.735  61.055  1.00  0.00     0.210 C 
ENDBRANCH  20  25
BRANCH  22  27
HETATM   27  O   UNL     1       2.825  33.193  63.158  1.00  0.00    -0.356 OA
HETATM   28  C   UNL     1       3.000  34.308  64.028  1.00  0.00     0.210 C 
ENDBRANCH  22  27
ENDBRANCH  16  19
ENDBRANCH  14  15
ENDBRANCH   1  14
BRANCH   7  29
HETATM   29  C   UNL     1       6.694  24.841  55.075  1.00  0.00    -0.002 A 
HETATM   30  C   UNL     1       6.490  24.420  53.751  1.00  0.00     0.016 A 
HETATM   31  C   UNL     1       7.213  23.343  53.230  1.00  0.00     0.024 A 
HETATM   32  C   UNL     1       8.138  22.680  54.032  1.00  0.00     0.034 A 
HETATM   33 CL   UNL     1       9.031  21.357  53.393  1.00  0.00    -0.084 Cl
HETATM   34  C   UNL     1       8.342  23.084  55.350  1.00  0.00     0.024 A 
HETATM   35  C   UNL     1       7.621  24.164  55.873  1.00  0.00     0.016 A 
ENDBRANCH   7  29
TORSDOF 6
ENDMDL
MODEL 10
REMARK VINA RESULT:      -8.7      4.364      9.701
REMARK  6 active torsions:
REMARK  status: ('A' for Active; 'I' for Inactive)
REMARK    1  A    between atoms: O_2  and  C_3 
REMARK    2  A    between atoms: C_5  and  O_6 
REMARK    3  A    between atoms: C_8  and  N_9 
REMARK       I    between atoms: N_9  and  C_10 
REMARK    4  A    between atoms: C_10  and  C_11 
REMARK    5  A    between atoms: C_11  and  N_12 
REMARK    6  A    between atoms: C_18  and  C_19 
ROOT
HETATM    1  N   UNL     1       7.221  27.184  55.156  1.00  0.00    -0.063 N 
HETATM    2  H   UNL     1       6.304  26.956  55.559  1.00  0.00     0.280 HD
HETATM    3  C   UNL     1       8.263  26.852  56.198  1.00  0.00     0.240 C 
HETATM    4  C   UNL     1       7.950  27.611  57.471  1.00  0.00     0.083 C 
HETATM    5  C   UNL     1       7.855  29.122  57.229  1.00  0.00     0.131 A 
HETATM    6  N   UNL     1       7.293  29.708  58.471  1.00  0.00    -0.251 NA
HETATM    7  C   UNL     1       8.217  30.480  58.980  1.00  0.00     0.132 A 
HETATM    8  C   UNL     1       9.453  30.522  58.112  1.00  0.00     0.272 A 
HETATM    9  O   UNL     1      10.488  31.104  58.318  1.00  0.00    -0.266 OA
HETATM   10  N   UNL     1       9.139  29.724  57.054  1.00  0.00    -0.327 N 
HETATM   11  C   UNL     1       6.899  29.452  56.077  1.00  0.00     0.083 C 
HETATM   12  C   UNL     1       7.212  28.654  54.820  1.00  0.00     0.240 C 
HETATM   13  H   UNL     1       9.838  29.536  56.344  1.00  0.00     0.165 HD
ENDROOT
BRANCH   1  14
HETATM   14  C   UNL     1       7.330  26.256  53.913  1.00  0.00     0.337 C 
BRANCH  14  15
HETATM   15  C   UNL     1       6.118  25.361  53.652  1.00  0.00     0.248 C 
HETATM   16  N   UNL     1       5.040  25.784  52.936  1.00  0.00    -0.323 N 
HETATM   17  H   UNL     1       4.452  24.997  52.674  1.00  0.00     0.169 HD
HETATM   18  O   UNL     1       6.141  24.173  53.998  1.00  0.00    -0.271 OA
BRANCH  16  19
HETATM   19  C   UNL     1       4.561  27.044  52.511  1.00  0.00     0.068 A 
HETATM   20  C   UNL     1       4.640  27.588  51.215  1.00  0.00     0.097 A 
HETATM   21  C   UNL     1       4.145  28.883  50.974  1.00  0.00     0.075 A 
HETATM   22  C   UNL     1       3.626  29.657  52.012  1.00  0.00     0.070 A 
HETATM   23  C   UNL     1       3.554  29.125  53.292  1.00  0.00     0.039 A 
HETATM   24  C   UNL     1       4.032  27.839  53.542  1.00  0.00     0.035 A 
BRANCH  20  25
HETATM   25  O   UNL     1       5.257  26.849  50.243  1.00  0.00    -0.354 OA
HETATM   26  C   UNL     1       4.618  26.765  48.968  1.00  0.00     0.210 C 
ENDBRANCH  20  25
BRANCH  22  27
HETATM   27  O   UNL     1       3.140  30.926  51.873  1.00  0.00    -0.356 OA
HETATM   28  C   UNL     1       2.727  31.285  50.557  1.00  0.00     0.210 C 
ENDBRANCH  22  27
ENDBRANCH  16  19
ENDBRANCH  14  15
ENDBRANCH   1  14
BRANCH   7  29
HETATM   29  C   UNL     1       8.064  31.195  60.262  1.00  0.00    -0.002 A 
HETATM   30  C   UNL     1       8.762  30.712  61.380  1.00  0.00     0.016 A 
HETATM   31  C   UNL     1       8.667  31.364  62.612  1.00  0.00     0.024 A 
HETATM   32  C   UNL     1       7.868  32.498  62.733  1.00  0.00     0.034 A 
HETATM   33 CL   UNL     1       7.751  33.305  64.247  1.00  0.00    -0.084 Cl
HETATM   34  C   UNL     1       7.163  32.982  61.632  1.00  0.00     0.024 A 
HETATM   35  C   UNL     1       7.260  32.332  60.396  1.00  0.00     0.016 A 
ENDBRANCH   7  29
TORSDOF 6
ENDMDL
