MODEL 1
REMARK VINA RESULT:     -10.6      0.000      0.000
REMARK  6 active torsions:
REMARK  status: ('A' for Active; 'I' for Inactive)
REMARK    1  A    between atoms: C_2  and  N_3 
REMARK    2  A    between atoms: C_2  and  C_16 
REMARK    3  A    between atoms: N_3  and  C_5 
REMARK    4  A    between atoms: C_5  and  C_6 
REMARK       I    between atoms: C_16  and  N_17 
REMARK    5  A    between atoms: N_17  and  C_18 
REMARK    6  A    between atoms: C_19  and  C_20 
ROOT
HETATM    1  C   UNL     1       7.557  24.507  56.733  1.00  0.00     0.253 C 
HETATM    2  N   UNL     1       6.847  23.583  56.004  1.00  0.00    -0.325 N 
HETATM    3  O   UNL     1       8.743  24.417  57.058  1.00  0.00    -0.271 OA
HETATM    4  H   UNL     1       5.842  23.525  56.129  1.00  0.00     0.169 HD
ENDROOT
BRANCH   1   5
HETATM    5  C   UNL     1       6.753  25.693  57.302  1.00  0.00     0.275 C 
HETATM    6  C   UNL     1       5.242  25.535  57.242  1.00  0.00     0.050 C 
BRANCH   5   7
HETATM    7  N   UNL     1       7.234  27.006  56.622  1.00  0.00    -0.059 N 
HETATM    8  H   UNL     1       6.707  27.724  57.151  1.00  0.00     0.280 HD
HETATM    9  C   UNL     1       6.780  27.106  55.198  1.00  0.00     0.271 C 
BRANCH   7  10
HETATM   10  C   UNL     1       8.683  27.414  56.778  1.00  0.00     0.274 C 
BRANCH  10  11
HETATM   11  C   UNL     1       8.946  28.741  57.440  1.00  0.00    -0.030 A 
HETATM   12  C   UNL     1       8.003  29.315  58.309  1.00  0.00     0.048 A 
HETATM   13  C   UNL     1       8.291  30.539  58.879  1.00  0.00     0.105 A 
HETATM   14  C   UNL     1       9.450  31.216  58.595  1.00  0.00     0.105 A 
HETATM   15  O   UNL     1       7.501  31.208  59.759  1.00  0.00    -0.323 OA
HETATM   16  O   UNL     1       9.536  32.398  59.258  1.00  0.00    -0.323 OA
HETATM   17  C   UNL     1      10.384  30.710  57.720  1.00  0.00     0.040 A 
HETATM   18  C   UNL     1       8.299  32.388  60.003  1.00  0.00     0.352 A 
HETATM   19  C   UNL     1      10.126  29.464  57.138  1.00  0.00     0.012 A 
ENDBRANCH  10  11
ENDBRANCH   7  10
ENDBRANCH   5   7
ENDBRANCH   1   5
BRANCH   2  20
HETATM   20  C   UNL     1       7.406  22.547  55.210  1.00  0.00     0.045 A 
HETATM   21  C   UNL     1       7.530  22.743  53.813  1.00  0.00     0.001 A 
HETATM   22  C   UNL     1       8.169  21.751  53.046  1.00  0.00     0.014 A 
HETATM   23  C   UNL     1       8.669  20.592  53.639  1.00  0.00     0.001 A 
HETATM   24  C   UNL     1       8.531  20.402  55.009  1.00  0.00     0.002 A 
HETATM   25  C   UNL     1       7.904  21.372  55.792  1.00  0.00     0.030 A 
BRANCH  21  26
HETATM   26  C   UNL     1       6.952  23.908  53.124  1.00  0.00    -0.024 A 
HETATM   27  C   UNL     1       7.768  24.837  52.461  1.00  0.00     0.012 A 
HETATM   28  C   UNL     1       7.206  25.933  51.802  1.00  0.00     0.001 A 
HETATM   29  C   UNL     1       5.823  26.113  51.796  1.00  0.00     0.000 A 
HETATM   30  C   UNL     1       4.999  25.197  52.446  1.00  0.00     0.001 A 
HETATM   31  C   UNL     1       5.560  24.102  53.104  1.00  0.00     0.012 A 
ENDBRANCH  21  26
ENDBRANCH   2  20
TORSDOF 6
ENDMDL
MODEL 2
REMARK VINA RESULT:      -9.7      1.796      2.846
REMARK  6 active torsions:
REMARK  status: ('A' for Active; 'I' for Inactive)
REMARK    1  A    between atoms: C_2  and  N_3 
REMARK    2  A    between atoms: C_2  and  C_16 
REMARK    3  A    between atoms: N_3  and  C_5 
REMARK    4  A    between atoms: C_5  and  C_6 
REMARK       I    between atoms: C_16  and  N_17 
REMARK    5  A    between atoms: N_17  and  C_18 
REMARK    6  A    between atoms: C_19  and  C_20 
ROOT
HETATM    1  C   UNL     1       7.974  26.739  57.166  1.00  0.00     0.253 C 
HETATM    2  N   UNL     1       7.796  25.924  56.074  1.00  0.00    -0.325 N 
HETATM    3  O   UNL     1       7.901  26.395  58.348  1.00  0.00    -0.271 OA
HETATM    4  H   UNL     1       7.473  26.332  55.203  1.00  0.00     0.169 HD
ENDROOT
BRANCH   1   5
HETATM    5  C   UNL     1       8.149  28.243  56.875  1.00  0.00     0.275 C 
HETATM    6  C   UNL     1       9.575  28.759  56.984  1.00  0.00     0.050 C 
BRANCH   5   7
HETATM    7  N   UNL     1       7.163  29.052  57.764  1.00  0.00    -0.059 N 
HETATM    8  H   UNL     1       7.313  28.620  58.694  1.00  0.00     0.280 HD
HETATM    9  C   UNL     1       5.731  28.796  57.401  1.00  0.00     0.271 C 
BRANCH   7  10
HETATM   10  C   UNL     1       7.429  30.525  57.987  1.00  0.00     0.274 C 
BRANCH  10  11
HETATM   11  C   UNL     1       7.669  30.963  59.409  1.00  0.00    -0.030 A 
HETATM   12  C   UNL     1       6.882  31.966  60.000  1.00  0.00     0.048 A 
HETATM   13  C   UNL     1       7.155  32.335  61.302  1.00  0.00     0.105 A 
HETATM   14  C   UNL     1       8.186  31.776  62.013  1.00  0.00     0.105 A 
HETATM   15  O   UNL     1       6.468  33.261  62.021  1.00  0.00    -0.323 OA
HETATM   16  O   UNL     1       8.283  32.281  63.270  1.00  0.00    -0.323 OA
HETATM   17  C   UNL     1       9.006  30.820  61.461  1.00  0.00     0.040 A 
HETATM   18  C   UNL     1       7.185  33.220  63.275  1.00  0.00     0.352 A 
HETATM   19  C   UNL     1       8.746  30.414  60.147  1.00  0.00     0.012 A 
ENDBRANCH  10  11
ENDBRANCH   7  10
ENDBRANCH   5   7
ENDBRANCH   1   5
BRANCH   2  20
HETATM   20  C   UNL     1       7.837  24.505  56.085  1.00  0.00     0.045 A 
HETATM   21  C   UNL     1       7.419  23.797  54.932  1.00  0.00     0.001 A 
HETATM   22  C   UNL     1       7.549  22.396  54.914  1.00  0.00     0.014 A 
HETATM   23  C   UNL     1       8.072  21.708  56.008  1.00  0.00     0.001 A 
HETATM   24  C   UNL     1       8.467  22.408  57.141  1.00  0.00     0.002 A 
HETATM   25  C   UNL     1       8.351  23.799  57.182  1.00  0.00     0.030 A 
BRANCH  21  26
HETATM   26  C   UNL     1       6.788  24.463  53.781  1.00  0.00    -0.024 A 
HETATM   27  C   UNL     1       7.529  24.796  52.638  1.00  0.00     0.012 A 
HETATM   28  C   UNL     1       6.915  25.419  51.548  1.00  0.00     0.001 A 
HETATM   29  C   UNL     1       5.553  25.716  51.588  1.00  0.00     0.000 A 
HETATM   30  C   UNL     1       4.802  25.388  52.714  1.00  0.00     0.001 A 
HETATM   31  C   UNL     1       5.415  24.765  53.802  1.00  0.00     0.012 A 
ENDBRANCH  21  26
ENDBRANCH   2  20
TORSDOF 6
ENDMDL
MODEL 3
REMARK VINA RESULT:      -9.7      1.920      4.035
REMARK  6 active torsions:
REMARK  status: ('A' for Active; 'I' for Inactive)
REMARK    1  A    between atoms: C_2  and  N_3 
REMARK    2  A    between atoms: C_2  and  C_16 
REMARK    3  A    between atoms: N_3  and  C_5 
REMARK    4  A    between atoms: C_5  and  C_6 
REMARK       I    between atoms: C_16  and  N_17 
REMARK    5  A    between atoms: N_17  and  C_18 
REMARK    6  A    between atoms: C_19  and  C_20 
ROOT
HETATM    1  C   UNL     1       6.764  24.936  52.372  1.00  0.00     0.253 C 
HETATM    2  N   UNL     1       6.517  24.041  53.386  1.00  0.00    -0.325 N 
HETATM    3  O   UNL     1       7.838  25.089  51.787  1.00  0.00    -0.271 OA
HETATM    4  H   UNL     1       5.786  24.250  54.059  1.00  0.00     0.169 HD
ENDROOT
BRANCH   1   5
HETATM    5  C   UNL     1       5.625  25.919  52.036  1.00  0.00     0.275 C 
HETATM    6  C   UNL     1       5.351  26.105  50.552  1.00  0.00     0.050 C 
BRANCH   5   7
HETATM    7  N   UNL     1       5.891  27.270  52.757  1.00  0.00    -0.059 N 
HETATM    8  H   UNL     1       5.156  27.269  53.488  1.00  0.00     0.280 HD
HETATM    9  C   UNL     1       5.613  28.449  51.874  1.00  0.00     0.271 C 
BRANCH   7  10
HETATM   10  C   UNL     1       7.184  27.440  53.527  1.00  0.00     0.274 C 
BRANCH  10  11
HETATM   11  C   UNL     1       7.104  28.195  54.828  1.00  0.00    -0.030 A 
HETATM   12  C   UNL     1       8.268  28.624  55.487  1.00  0.00     0.048 A 
HETATM   13  C   UNL     1       8.135  29.302  56.683  1.00  0.00     0.105 A 
HETATM   14  C   UNL     1       6.909  29.534  57.253  1.00  0.00     0.105 A 
HETATM   15  O   UNL     1       9.156  29.808  57.422  1.00  0.00    -0.323 OA
HETATM   16  O   UNL     1       7.002  30.213  58.425  1.00  0.00    -0.323 OA
HETATM   17  C   UNL     1       5.746  29.097  56.662  1.00  0.00     0.040 A 
HETATM   18  C   UNL     1       8.432  30.392  58.528  1.00  0.00     0.352 A 
HETATM   19  C   UNL     1       5.847  28.419  55.442  1.00  0.00     0.012 A 
ENDBRANCH  10  11
ENDBRANCH   7  10
ENDBRANCH   5   7
ENDBRANCH   1   5
BRANCH   2  20
HETATM   20  C   UNL     1       7.320  22.917  53.713  1.00  0.00     0.045 A 
HETATM   21  C   UNL     1       7.833  22.798  55.027  1.00  0.00     0.001 A 
HETATM   22  C   UNL     1       8.549  21.637  55.371  1.00  0.00     0.014 A 
HETATM   23  C   UNL     1       8.762  20.620  54.441  1.00  0.00     0.001 A 
HETATM   24  C   UNL     1       8.267  20.751  53.149  1.00  0.00     0.002 A 
HETATM   25  C   UNL     1       7.550  21.891  52.784  1.00  0.00     0.030 A 
BRANCH  21  26
HETATM   26  C   UNL     1       7.707  23.873  56.025  1.00  0.00    -0.024 A 
HETATM   27  C   UNL     1       6.458  24.422  56.348  1.00  0.00     0.012 A 
HETATM   28  C   UNL     1       6.352  25.435  57.305  1.00  0.00     0.001 A 
HETATM   29  C   UNL     1       7.492  25.909  57.951  1.00  0.00     0.000 A 
HETATM   30  C   UNL     1       8.740  25.371  57.645  1.00  0.00     0.001 A 
HETATM   31  C   UNL     1       8.846  24.360  56.690  1.00  0.00     0.012 A 
ENDBRANCH  21  26
ENDBRANCH   2  20
TORSDOF 6
ENDMDL
MODEL 4
REMARK VINA RESULT:      -9.4      2.264      3.354
REMARK  6 active torsions:
REMARK  status: ('A' for Active; 'I' for Inactive)
REMARK    1  A    between atoms: C_2  and  N_3 
REMARK    2  A    between atoms: C_2  and  C_16 
REMARK    3  A    between atoms: N_3  and  C_5 
REMARK    4  A    between atoms: C_5  and  C_6 
REMARK       I    between atoms: C_16  and  N_17 
REMARK    5  A    between atoms: N_17  and  C_18 
REMARK    6  A    between atoms: C_19  and  C_20 
ROOT
HETATM    1  C   UNL     1       7.834  24.271  56.628  1.00  0.00     0.253 C 
HETATM    2  N   UNL     1       7.066  23.322  55.997  1.00  0.00    -0.325 N 
HETATM    3  O   UNL     1       9.053  24.219  56.801  1.00  0.00    -0.271 OA
HETATM    4  H   UNL     1       6.086  23.236  56.248  1.00  0.00     0.169 HD
ENDROOT
BRANCH   1   5
HETATM    5  C   UNL     1       7.073  25.438  57.289  1.00  0.00     0.275 C 
HETATM    6  C   UNL     1       5.565  25.416  57.095  1.00  0.00     0.050 C 
BRANCH   5   7
HETATM    7  N   UNL     1       7.704  26.782  56.829  1.00  0.00    -0.059 N 
HETATM    8  H   UNL     1       8.711  26.541  56.789  1.00  0.00     0.280 HD
HETATM    9  C   UNL     1       7.563  27.858  57.862  1.00  0.00     0.271 C 
BRANCH   7  10
HETATM   10  C   UNL     1       7.386  27.295  55.440  1.00  0.00     0.274 C 
BRANCH  10  11
HETATM   11  C   UNL     1       6.241  28.267  55.322  1.00  0.00    -0.030 A 
HETATM   12  C   UNL     1       6.353  29.579  55.812  1.00  0.00     0.048 A 
HETATM   13  C   UNL     1       5.267  30.423  55.687  1.00  0.00     0.105 A 
HETATM   14  C   UNL     1       4.084  30.005  55.133  1.00  0.00     0.105 A 
HETATM   15  O   UNL     1       5.227  31.723  56.080  1.00  0.00    -0.323 OA
HETATM   16  O   UNL     1       3.147  30.988  55.108  1.00  0.00    -0.323 OA
HETATM   17  C   UNL     1       3.917  28.718  54.676  1.00  0.00     0.040 A 
HETATM   18  C   UNL     1       3.878  32.081  55.704  1.00  0.00     0.352 A 
HETATM   19  C   UNL     1       5.005  27.843  54.776  1.00  0.00     0.012 A 
ENDBRANCH  10  11
ENDBRANCH   7  10
ENDBRANCH   5   7
ENDBRANCH   1   5
BRANCH   2  20
HETATM   20  C   UNL     1       7.551  22.296  55.144  1.00  0.00     0.045 A 
HETATM   21  C   UNL     1       7.650  22.549  53.754  1.00  0.00     0.001 A 
HETATM   22  C   UNL     1       8.219  21.563  52.927  1.00  0.00     0.014 A 
HETATM   23  C   UNL     1       8.673  20.354  53.454  1.00  0.00     0.001 A 
HETATM   24  C   UNL     1       8.560  20.109  54.817  1.00  0.00     0.002 A 
HETATM   25  C   UNL     1       8.003  21.073  55.660  1.00  0.00     0.030 A 
BRANCH  21  26
HETATM   26  C   UNL     1       7.115  23.771  53.133  1.00  0.00    -0.024 A 
HETATM   27  C   UNL     1       5.735  23.960  52.970  1.00  0.00     0.012 A 
HETATM   28  C   UNL     1       5.241  25.130  52.388  1.00  0.00     0.001 A 
HETATM   29  C   UNL     1       6.120  26.125  51.962  1.00  0.00     0.000 A 
HETATM   30  C   UNL     1       7.494  25.955  52.120  1.00  0.00     0.001 A 
HETATM   31  C   UNL     1       7.987  24.787  52.702  1.00  0.00     0.012 A 
ENDBRANCH  21  26
ENDBRANCH   2  20
TORSDOF 6
ENDMDL
MODEL 5
REMARK VINA RESULT:      -9.0      3.374      5.073
REMARK  6 active torsions:
REMARK  status: ('A' for Active; 'I' for Inactive)
REMARK    1  A    between atoms: C_2  and  N_3 
REMARK    2  A    between atoms: C_2  and  C_16 
REMARK    3  A    between atoms: N_3  and  C_5 
REMARK    4  A    between atoms: C_5  and  C_6 
REMARK       I    between atoms: C_16  and  N_17 
REMARK    5  A    between atoms: N_17  and  C_18 
REMARK    6  A    between atoms: C_19  and  C_20 
ROOT
HETATM    1  C   UNL     1       6.831  24.702  52.802  1.00  0.00     0.253 C 
HETATM    2  N   UNL     1       7.966  24.007  53.144  1.00  0.00    -0.325 N 
HETATM    3  O   UNL     1       5.693  24.236  52.719  1.00  0.00    -0.271 OA
HETATM    4  H   UNL     1       8.864  24.334  52.803  1.00  0.00     0.169 HD
ENDROOT
BRANCH   1   5
HETATM    5  C   UNL     1       7.033  26.165  52.357  1.00  0.00     0.275 C 
HETATM    6  C   UNL     1       7.817  27.032  53.330  1.00  0.00     0.050 C 
BRANCH   5   7
HETATM    7  N   UNL     1       5.653  26.783  52.000  1.00  0.00    -0.059 N 
HETATM    8  H   UNL     1       5.048  26.399  52.749  1.00  0.00     0.280 HD
HETATM    9  C   UNL     1       5.113  26.258  50.705  1.00  0.00     0.271 C 
BRANCH   7  10
HETATM   10  C   UNL     1       5.479  28.283  52.111  1.00  0.00     0.274 C 
BRANCH  10  11
HETATM   11  C   UNL     1       4.806  28.798  53.357  1.00  0.00    -0.030 A 
HETATM   12  C   UNL     1       4.272  30.097  53.407  1.00  0.00     0.048 A 
HETATM   13  C   UNL     1       3.677  30.519  54.579  1.00  0.00     0.105 A 
HETATM   14  C   UNL     1       3.626  29.722  55.694  1.00  0.00     0.105 A 
HETATM   15  O   UNL     1       3.089  31.728  54.775  1.00  0.00    -0.323 OA
HETATM   16  O   UNL     1       3.001  30.329  56.736  1.00  0.00    -0.323 OA
HETATM   17  C   UNL     1       4.170  28.459  55.702  1.00  0.00     0.040 A 
HETATM   18  C   UNL     1       2.654  31.601  56.148  1.00  0.00     0.352 A 
HETATM   19  C   UNL     1       4.768  27.997  54.524  1.00  0.00     0.012 A 
ENDBRANCH  10  11
ENDBRANCH   7  10
ENDBRANCH   5   7
ENDBRANCH   1   5
BRANCH   2  20
HETATM   20  C   UNL     1       8.000  22.741  53.785  1.00  0.00     0.045 A 
HETATM   21  C   UNL     1       7.745  22.668  55.176  1.00  0.00     0.001 A 
HETATM   22  C   UNL     1       7.688  21.402  55.787  1.00  0.00     0.014 A 
HETATM   23  C   UNL     1       7.886  20.236  55.049  1.00  0.00     0.001 A 
HETATM   24  C   UNL     1       8.150  20.317  53.687  1.00  0.00     0.002 A 
HETATM   25  C   UNL     1       8.207  21.561  53.056  1.00  0.00     0.030 A 
BRANCH  21  26
HETATM   26  C   UNL     1       7.607  23.867  56.018  1.00  0.00    -0.024 A 
HETATM   27  C   UNL     1       6.357  24.465  56.232  1.00  0.00     0.012 A 
HETATM   28  C   UNL     1       6.239  25.597  57.042  1.00  0.00     0.001 A 
HETATM   29  C   UNL     1       7.369  26.145  57.649  1.00  0.00     0.000 A 
HETATM   30  C   UNL     1       8.618  25.560  57.449  1.00  0.00     0.001 A 
HETATM   31  C   UNL     1       8.735  24.430  56.641  1.00  0.00     0.012 A 
ENDBRANCH  21  26
ENDBRANCH   2  20
TORSDOF 6
ENDMDL
MODEL 6
REMARK VINA RESULT:      -9.0      4.228      6.607
REMARK  6 active torsions:
REMARK  status: ('A' for Active; 'I' for Inactive)
REMARK    1  A    between atoms: C_2  and  N_3 
REMARK    2  A    between atoms: C_2  and  C_16 
REMARK    3  A    between atoms: N_3  and  C_5 
REMARK    4  A    between atoms: C_5  and  C_6 
REMARK       I    between atoms: C_16  and  N_17 
REMARK    5  A    between atoms: N_17  and  C_18 
REMARK    6  A    between atoms: C_19  and  C_20 
ROOT
HETATM    1  C   UNL     1       6.303  24.740  52.720  1.00  0.00     0.253 C 
HETATM    2  N   UNL     1       7.517  24.193  53.058  1.00  0.00    -0.325 N 
HETATM    3  O   UNL     1       5.232  24.135  52.639  1.00  0.00    -0.271 OA
HETATM    4  H   UNL     1       8.366  24.631  52.715  1.00  0.00     0.169 HD
ENDROOT
BRANCH   1   5
HETATM    5  C   UNL     1       6.318  26.218  52.278  1.00  0.00     0.275 C 
HETATM    6  C   UNL     1       6.784  27.203  53.338  1.00  0.00     0.050 C 
BRANCH   5   7
HETATM    7  N   UNL     1       4.922  26.590  51.703  1.00  0.00    -0.059 N 
HETATM    8  H   UNL     1       4.317  25.865  52.128  1.00  0.00     0.280 HD
HETATM    9  C   UNL     1       4.849  26.392  50.220  1.00  0.00     0.271 C 
BRANCH   7  10
HETATM   10  C   UNL     1       4.290  27.900  52.125  1.00  0.00     0.274 C 
BRANCH  10  11
HETATM   11  C   UNL     1       4.338  29.028  51.127  1.00  0.00    -0.030 A 
HETATM   12  C   UNL     1       5.523  29.751  50.910  1.00  0.00     0.048 A 
HETATM   13  C   UNL     1       5.506  30.783  49.992  1.00  0.00     0.105 A 
HETATM   14  C   UNL     1       4.364  31.135  49.320  1.00  0.00     0.105 A 
HETATM   15  O   UNL     1       6.571  31.552  49.648  1.00  0.00    -0.323 OA
HETATM   16  O   UNL     1       4.564  32.174  48.468  1.00  0.00    -0.323 OA
HETATM   17  C   UNL     1       3.173  30.481  49.530  1.00  0.00     0.040 A 
HETATM   18  C   UNL     1       5.969  32.433  48.673  1.00  0.00     0.352 A 
HETATM   19  C   UNL     1       3.162  29.421  50.444  1.00  0.00     0.012 A 
ENDBRANCH  10  11
ENDBRANCH   7  10
ENDBRANCH   5   7
ENDBRANCH   1   5
BRANCH   2  20
HETATM   20  C   UNL     1       7.712  22.940  53.696  1.00  0.00     0.045 A 
HETATM   21  C   UNL     1       7.603  22.863  55.106  1.00  0.00     0.001 A 
HETATM   22  C   UNL     1       7.704  21.603  55.724  1.00  0.00     0.014 A 
HETATM   23  C   UNL     1       7.917  20.448  54.973  1.00  0.00     0.001 A 
HETATM   24  C   UNL     1       8.038  20.533  53.591  1.00  0.00     0.002 A 
HETATM   25  C   UNL     1       7.936  21.771  52.954  1.00  0.00     0.030 A 
BRANCH  21  26
HETATM   26  C   UNL     1       7.457  24.057  55.954  1.00  0.00    -0.024 A 
HETATM   27  C   UNL     1       8.574  24.678  56.532  1.00  0.00     0.012 A 
HETATM   28  C   UNL     1       8.423  25.817  57.327  1.00  0.00     0.001 A 
HETATM   29  C   UNL     1       7.154  26.350  57.553  1.00  0.00     0.000 A 
HETATM   30  C   UNL     1       6.035  25.747  56.982  1.00  0.00     0.001 A 
HETATM   31  C   UNL     1       6.186  24.610  56.188  1.00  0.00     0.012 A 
ENDBRANCH  21  26
ENDBRANCH   2  20
TORSDOF 6
ENDMDL
MODEL 7
REMARK VINA RESULT:      -9.0      1.996      4.096
REMARK  6 active torsions:
REMARK  status: ('A' for Active; 'I' for Inactive)
REMARK    1  A    between atoms: C_2  and  N_3 
REMARK    2  A    between atoms: C_2  and  C_16 
REMARK    3  A    between atoms: N_3  and  C_5 
REMARK    4  A    between atoms: C_5  and  C_6 
REMARK       I    between atoms: C_16  and  N_17 
REMARK    5  A    between atoms: N_17  and  C_18 
REMARK    6  A    between atoms: C_19  and  C_20 
ROOT
HETATM    1  C   UNL     1       7.718  27.747  55.578  1.00  0.00     0.253 C 
HETATM    2  N   UNL     1       6.947  26.729  55.072  1.00  0.00    -0.325 N 
HETATM    3  O   UNL     1       8.312  28.603  54.919  1.00  0.00    -0.271 OA
HETATM    4  H   UNL     1       6.845  25.875  55.610  1.00  0.00     0.169 HD
ENDROOT
BRANCH   1   5
HETATM    5  C   UNL     1       7.961  27.729  57.101  1.00  0.00     0.275 C 
HETATM    6  C   UNL     1       7.695  26.394  57.780  1.00  0.00     0.050 C 
BRANCH   5   7
HETATM    7  N   UNL     1       7.162  28.890  57.757  1.00  0.00    -0.059 N 
HETATM    8  H   UNL     1       7.066  28.557  58.733  1.00  0.00     0.280 HD
HETATM    9  C   UNL     1       5.773  29.006  57.206  1.00  0.00     0.271 C 
BRANCH   7  10
HETATM   10  C   UNL     1       7.827  30.244  57.887  1.00  0.00     0.274 C 
BRANCH  10  11
HETATM   11  C   UNL     1       7.952  30.807  59.279  1.00  0.00    -0.030 A 
HETATM   12  C   UNL     1       7.037  31.760  59.759  1.00  0.00     0.048 A 
HETATM   13  C   UNL     1       7.207  32.250  61.038  1.00  0.00     0.105 A 
HETATM   14  C   UNL     1       8.255  31.858  61.831  1.00  0.00     0.105 A 
HETATM   15  O   UNL     1       6.395  33.147  61.655  1.00  0.00    -0.323 OA
HETATM   16  O   UNL     1       8.238  32.460  63.049  1.00  0.00    -0.323 OA
HETATM   17  C   UNL     1       9.196  30.957  61.388  1.00  0.00     0.040 A 
HETATM   18  C   UNL     1       7.050  33.274  62.937  1.00  0.00     0.352 A 
HETATM   19  C   UNL     1       9.043  30.432  60.100  1.00  0.00     0.012 A 
ENDBRANCH  10  11
ENDBRANCH   7  10
ENDBRANCH   5   7
ENDBRANCH   1   5
BRANCH   2  20
HETATM   20  C   UNL     1       6.416  26.667  53.757  1.00  0.00     0.045 A 
HETATM   21  C   UNL     1       6.404  25.424  53.079  1.00  0.00     0.001 A 
HETATM   22  C   UNL     1       5.792  25.350  51.814  1.00  0.00     0.014 A 
HETATM   23  C   UNL     1       5.213  26.475  51.227  1.00  0.00     0.001 A 
HETATM   24  C   UNL     1       5.242  27.694  51.893  1.00  0.00     0.002 A 
HETATM   25  C   UNL     1       5.839  27.793  53.151  1.00  0.00     0.030 A 
BRANCH  21  26
HETATM   26  C   UNL     1       7.068  24.225  53.614  1.00  0.00    -0.024 A 
HETATM   27  C   UNL     1       7.997  23.506  52.848  1.00  0.00     0.012 A 
HETATM   28  C   UNL     1       8.628  22.375  53.372  1.00  0.00     0.001 A 
HETATM   29  C   UNL     1       8.338  21.949  54.668  1.00  0.00     0.000 A 
HETATM   30  C   UNL     1       7.421  22.655  55.443  1.00  0.00     0.001 A 
HETATM   31  C   UNL     1       6.792  23.785  54.920  1.00  0.00     0.012 A 
ENDBRANCH  21  26
ENDBRANCH   2  20
TORSDOF 6
ENDMDL
MODEL 8
REMARK VINA RESULT:      -8.9      2.522      9.323
REMARK  6 active torsions:
REMARK  status: ('A' for Active; 'I' for Inactive)
REMARK    1  A    between atoms: C_2  and  N_3 
REMARK    2  A    between atoms: C_2  and  C_16 
REMARK    3  A    between atoms: N_3  and  C_5 
REMARK    4  A    between atoms: C_5  and  C_6 
REMARK       I    between atoms: C_16  and  N_17 
REMARK    5  A    between atoms: N_17  and  C_18 
REMARK    6  A    between atoms: C_19  and  C_20 
ROOT
HETATM    1  C   UNL     1       6.596  28.620  57.345  1.00  0.00     0.253 C 
HETATM    2  N   UNL     1       6.902  29.913  57.696  1.00  0.00    -0.325 N 
HETATM    3  O   UNL     1       5.486  28.090  57.427  1.00  0.00    -0.271 OA
HETATM    4  H   UNL     1       7.851  30.133  57.981  1.00  0.00     0.169 HD
ENDROOT
BRANCH   1   5
HETATM    5  C   UNL     1       7.782  27.723  56.936  1.00  0.00     0.275 C 
HETATM    6  C   UNL     1       9.154  28.361  57.088  1.00  0.00     0.050 C 
BRANCH   5   7
HETATM    7  N   UNL     1       7.541  27.184  55.499  1.00  0.00    -0.059 N 
HETATM    8  H   UNL     1       8.447  26.728  55.288  1.00  0.00     0.280 HD
HETATM    9  C   UNL     1       7.376  28.289  54.499  1.00  0.00     0.271 C 
BRANCH   7  10
HETATM   10  C   UNL     1       6.514  26.089  55.297  1.00  0.00     0.274 C 
BRANCH  10  11
HETATM   11  C   UNL     1       7.004  24.807  54.677  1.00  0.00    -0.030 A 
HETATM   12  C   UNL     1       7.100  23.627  55.434  1.00  0.00     0.048 A 
HETATM   13  C   UNL     1       7.567  22.484  54.816  1.00  0.00     0.105 A 
HETATM   14  C   UNL     1       7.967  22.481  53.504  1.00  0.00     0.105 A 
HETATM   15  O   UNL     1       7.688  21.263  55.399  1.00  0.00    -0.323 OA
HETATM   16  O   UNL     1       8.393  21.258  53.094  1.00  0.00    -0.323 OA
HETATM   17  C   UNL     1       7.927  23.622  52.736  1.00  0.00     0.040 A 
HETATM   18  C   UNL     1       8.208  20.484  54.299  1.00  0.00     0.352 A 
HETATM   19  C   UNL     1       7.445  24.794  53.331  1.00  0.00     0.012 A 
ENDBRANCH  10  11
ENDBRANCH   7  10
ENDBRANCH   5   7
ENDBRANCH   1   5
BRANCH   2  20
HETATM   20  C   UNL     1       5.966  30.963  57.888  1.00  0.00     0.045 A 
HETATM   21  C   UNL     1       6.242  31.959  58.856  1.00  0.00     0.001 A 
HETATM   22  C   UNL     1       5.357  33.047  58.976  1.00  0.00     0.014 A 
HETATM   23  C   UNL     1       4.224  33.147  58.169  1.00  0.00     0.001 A 
HETATM   24  C   UNL     1       3.954  32.157  57.231  1.00  0.00     0.002 A 
HETATM   25  C   UNL     1       4.818  31.070  57.090  1.00  0.00     0.030 A 
BRANCH  21  26
HETATM   26  C   UNL     1       7.377  31.865  59.787  1.00  0.00    -0.024 A 
HETATM   27  C   UNL     1       8.697  32.025  59.341  1.00  0.00     0.012 A 
HETATM   28  C   UNL     1       9.766  31.943  60.238  1.00  0.00     0.001 A 
HETATM   29  C   UNL     1       9.527  31.701  61.590  1.00  0.00     0.000 A 
HETATM   30  C   UNL     1       8.222  31.544  62.050  1.00  0.00     0.001 A 
HETATM   31  C   UNL     1       7.155  31.627  61.154  1.00  0.00     0.012 A 
ENDBRANCH  21  26
ENDBRANCH   2  20
TORSDOF 6
ENDMDL
MODEL 9
REMARK VINA RESULT:      -8.9      2.154      4.446
REMARK  6 active torsions:
REMARK  status: ('A' for Active; 'I' for Inactive)
REMARK    1  A    between atoms: C_2  and  N_3 
REMARK    2  A    between atoms: C_2  and  C_16 
REMARK    3  A    between atoms: N_3  and  C_5 
REMARK    4  A    between atoms: C_5  and  C_6 
REMARK       I    between atoms: C_16  and  N_17 
REMARK    5  A    between atoms: N_17  and  C_18 
REMARK    6  A    between atoms: C_19  and  C_20 
ROOT
HETATM    1  C   UNL     1       7.129  27.893  55.302  1.00  0.00     0.253 C 
HETATM    2  N   UNL     1       7.516  27.272  54.140  1.00  0.00    -0.325 N 
HETATM    3  O   UNL     1       6.120  28.585  55.453  1.00  0.00    -0.271 OA
HETATM    4  H   UNL     1       8.502  27.086  53.986  1.00  0.00     0.169 HD
ENDROOT
BRANCH   1   5
HETATM    5  C   UNL     1       8.121  27.819  56.481  1.00  0.00     0.275 C 
HETATM    6  C   UNL     1       7.607  27.088  57.710  1.00  0.00     0.050 C 
BRANCH   5   7
HETATM    7  N   UNL     1       8.621  29.252  56.816  1.00  0.00    -0.059 N 
HETATM    8  H   UNL     1       7.858  29.839  56.430  1.00  0.00     0.280 HD
HETATM    9  C   UNL     1       9.862  29.612  56.056  1.00  0.00     0.271 C 
BRANCH   7  10
HETATM   10  C   UNL     1       8.714  29.667  58.269  1.00  0.00     0.274 C 
BRANCH  10  11
HETATM   11  C   UNL     1       7.696  30.665  58.756  1.00  0.00    -0.030 A 
HETATM   12  C   UNL     1       6.547  30.953  57.999  1.00  0.00     0.048 A 
HETATM   13  C   UNL     1       5.654  31.885  58.489  1.00  0.00     0.105 A 
HETATM   14  C   UNL     1       5.875  32.554  59.666  1.00  0.00     0.105 A 
HETATM   15  O   UNL     1       4.487  32.250  57.895  1.00  0.00    -0.323 OA
HETATM   16  O   UNL     1       4.878  33.426  59.963  1.00  0.00    -0.323 OA
HETATM   17  C   UNL     1       7.005  32.332  60.419  1.00  0.00     0.040 A 
HETATM   18  C   UNL     1       3.993  33.226  58.839  1.00  0.00     0.352 A 
HETATM   19  C   UNL     1       7.923  31.381  59.956  1.00  0.00     0.012 A 
ENDBRANCH  10  11
ENDBRANCH   7  10
ENDBRANCH   5   7
ENDBRANCH   1   5
BRANCH   2  20
HETATM   20  C   UNL     1       6.684  27.023  53.016  1.00  0.00     0.045 A 
HETATM   21  C   UNL     1       6.343  25.686  52.697  1.00  0.00     0.001 A 
HETATM   22  C   UNL     1       5.444  25.452  51.640  1.00  0.00     0.014 A 
HETATM   23  C   UNL     1       4.900  26.508  50.911  1.00  0.00     0.001 A 
HETATM   24  C   UNL     1       5.250  27.817  51.222  1.00  0.00     0.002 A 
HETATM   25  C   UNL     1       6.137  28.075  52.268  1.00  0.00     0.030 A 
BRANCH  21  26
HETATM   26  C   UNL     1       6.947  24.531  53.380  1.00  0.00    -0.024 A 
HETATM   27  C   UNL     1       6.644  24.239  54.718  1.00  0.00     0.012 A 
HETATM   28  C   UNL     1       7.217  23.133  55.352  1.00  0.00     0.001 A 
HETATM   29  C   UNL     1       8.098  22.306  54.656  1.00  0.00     0.000 A 
HETATM   30  C   UNL     1       8.407  22.581  53.325  1.00  0.00     0.001 A 
HETATM   31  C   UNL     1       7.834  23.684  52.693  1.00  0.00     0.012 A 
ENDBRANCH  21  26
ENDBRANCH   2  20
TORSDOF 6
ENDMDL
MODEL 10
REMARK VINA RESULT:      -8.9      5.435      8.909
REMARK  6 active torsions:
REMARK  status: ('A' for Active; 'I' for Inactive)
REMARK    1  A    between atoms: C_2  and  N_3 
REMARK    2  A    between atoms: C_2  and  C_16 
REMARK    3  A    between atoms: N_3  and  C_5 
REMARK    4  A    between atoms: C_5  and  C_6 
REMARK       I    between atoms: C_16  and  N_17 
REMARK    5  A    between atoms: N_17  and  C_18 
REMARK    6  A    between atoms: C_19  and  C_20 
ROOT
HETATM    1  C   UNL     1       5.763  26.597  52.115  1.00  0.00     0.253 C 
HETATM    2  N   UNL     1       6.984  26.285  52.664  1.00  0.00    -0.325 N 
HETATM    3  O   UNL     1       4.897  25.792  51.768  1.00  0.00    -0.271 OA
HETATM    4  H   UNL     1       7.758  26.929  52.539  1.00  0.00     0.169 HD
ENDROOT
BRANCH   1   5
HETATM    5  C   UNL     1       5.522  28.085  51.786  1.00  0.00     0.275 C 
HETATM    6  C   UNL     1       4.736  28.856  52.834  1.00  0.00     0.050 C 
BRANCH   5   7
HETATM    7  N   UNL     1       4.883  28.196  50.374  1.00  0.00    -0.059 N 
HETATM    8  H   UNL     1       4.899  27.210  50.055  1.00  0.00     0.280 HD
HETATM    9  C   UNL     1       5.745  28.967  49.421  1.00  0.00     0.271 C 
BRANCH   7  10
HETATM   10  C   UNL     1       3.428  28.601  50.265  1.00  0.00     0.274 C 
BRANCH  10  11
HETATM   11  C   UNL     1       2.670  28.090  49.068  1.00  0.00    -0.030 A 
HETATM   12  C   UNL     1       1.596  28.817  48.528  1.00  0.00     0.048 A 
HETATM   13  C   UNL     1       0.930  28.295  47.437  1.00  0.00     0.105 A 
HETATM   14  C   UNL     1       1.266  27.081  46.895  1.00  0.00     0.105 A 
HETATM   15  O   UNL     1      -0.103  28.888  46.783  1.00  0.00    -0.323 OA
HETATM   16  O   UNL     1       0.486  26.753  45.833  1.00  0.00    -0.323 OA
HETATM   17  C   UNL     1       2.284  26.317  47.416  1.00  0.00     0.040 A 
HETATM   18  C   UNL     1      -0.379  27.907  45.759  1.00  0.00     0.352 A 
HETATM   19  C   UNL     1       2.988  26.826  48.513  1.00  0.00     0.012 A 
ENDBRANCH  10  11
ENDBRANCH   7  10
ENDBRANCH   5   7
ENDBRANCH   1   5
BRANCH   2  20
HETATM   20  C   UNL     1       7.337  25.038  53.243  1.00  0.00     0.045 A 
HETATM   21  C   UNL     1       7.148  24.849  54.633  1.00  0.00     0.001 A 
HETATM   22  C   UNL     1       7.412  23.581  55.185  1.00  0.00     0.014 A 
HETATM   23  C   UNL     1       7.859  22.528  54.388  1.00  0.00     0.001 A 
HETATM   24  C   UNL     1       8.055  22.726  53.026  1.00  0.00     0.002 A 
HETATM   25  C   UNL     1       7.797  23.973  52.455  1.00  0.00     0.030 A 
BRANCH  21  26
HETATM   26  C   UNL     1       6.755  25.944  55.534  1.00  0.00    -0.024 A 
HETATM   27  C   UNL     1       7.717  26.751  56.160  1.00  0.00     0.012 A 
HETATM   28  C   UNL     1       7.330  27.794  57.005  1.00  0.00     0.001 A 
HETATM   29  C   UNL     1       5.977  28.044  57.234  1.00  0.00     0.000 A 
HETATM   30  C   UNL     1       5.009  27.254  56.617  1.00  0.00     0.001 A 
HETATM   31  C   UNL     1       5.396  26.213  55.773  1.00  0.00     0.012 A 
ENDBRANCH  21  26
ENDBRANCH   2  20
TORSDOF 6
ENDMDL
