MODEL 1
REMARK VINA RESULT:      -9.8      0.000      0.000
REMARK  6 active torsions:
REMARK  status: ('A' for Active; 'I' for Inactive)
REMARK    1  A    between atoms: O_2  and  C_3 
REMARK    2  A    between atoms: C_6  and  C_7 
REMARK    3  A    between atoms: C_7  and  N_8 
REMARK       I    between atoms: N_8  and  C_9 
REMARK    4  A    between atoms: C_9  and  C_10 
REMARK    5  A    between atoms: C_10  and  O_11 
REMARK    6  A    between atoms: N_12  and  C_13 
ROOT
HETATM    1  C   UNL     1       6.765  28.791  57.044  1.00  0.00     0.256 C 
HETATM    2  N   UNL     1       6.800  28.876  55.582  1.00  0.00    -0.254 N 
HETATM    3  C   UNL     1       8.061  28.746  54.987  1.00  0.00     0.330 C 
HETATM    4  O   UNL     1       8.292  28.459  53.813  1.00  0.00    -0.246 OA
HETATM    5  N   UNL     1       9.139  29.096  55.776  1.00  0.00    -0.308 N 
HETATM    6  C   UNL     1       9.022  29.763  56.995  1.00  0.00     0.048 A 
HETATM    7  C   UNL     1       7.787  29.736  57.638  1.00  0.00     0.035 A 
HETATM    8  C   UNL     1      10.097  30.473  57.524  1.00  0.00     0.031 A 
HETATM    9  C   UNL     1       9.916  31.211  58.696  1.00  0.00     0.021 A 
HETATM   10  C   UNL     1       8.669  31.225  59.324  1.00  0.00     0.011 A 
HETATM   11 BR   UNL     1       8.425  32.240  60.899  1.00  0.00    -0.051 Br
HETATM   12  C   UNL     1       7.604  30.487  58.807  1.00  0.00     0.034 A 
HETATM   13  H   UNL     1      10.018  29.108  55.273  1.00  0.00     0.170 HD
ENDROOT
BRANCH   1  14
HETATM   14  C   UNL     1       7.070  27.283  57.477  1.00  0.00     0.279 C 
HETATM   15  N   UNL     1       6.260  26.316  56.909  1.00  0.00    -0.352 N 
HETATM   16  H   UNL     1       5.608  26.574  56.179  1.00  0.00     0.162 HD
HETATM   17  O   UNL     1       8.019  26.976  58.201  1.00  0.00    -0.268 OA
BRANCH  15  18
HETATM   18  C   UNL     1       6.428  24.908  57.191  1.00  0.00     0.161 C 
BRANCH  18  19
HETATM   19  C   UNL     1       6.878  24.157  55.964  1.00  0.00    -0.040 A 
HETATM   20  C   UNL     1       7.664  23.003  56.078  1.00  0.00     0.011 A 
HETATM   21  C   UNL     1       8.034  22.285  54.938  1.00  0.00     0.037 A 
HETATM   22  C   UNL     1       7.621  22.696  53.668  1.00  0.00     0.068 A 
HETATM   23  C   UNL     1       6.849  23.850  53.545  1.00  0.00     0.037 A 
HETATM   24  C   UNL     1       6.476  24.571  54.685  1.00  0.00     0.011 A 
BRANCH  22  25
HETATM   25  O   UNL     1       8.037  21.894  52.642  1.00  0.00    -0.356 OA
HETATM   26  C   UNL     1       8.264  20.524  52.952  1.00  0.00     0.210 C 
ENDBRANCH  22  25
ENDBRANCH  18  19
ENDBRANCH  15  18
ENDBRANCH   1  14
BRANCH   1  27
HETATM   27  O   UNL     1       5.478  29.087  57.594  1.00  0.00    -0.359 OA
HETATM   28  H   UNL     1       5.178  29.872  57.098  1.00  0.00     0.213 HD
ENDBRANCH   1  27
BRANCH   2  29
HETATM   29  C   UNL     1       5.614  28.849  54.789  1.00  0.00     0.042 A 
HETATM   30  C   UNL     1       5.213  27.693  54.109  1.00  0.00     0.030 A 
HETATM   31  C   UNL     1       4.074  27.696  53.298  1.00  0.00     0.002 A 
HETATM   32  C   UNL     1       3.326  28.861  53.147  1.00  0.00     0.000 A 
HETATM   33  C   UNL     1       3.718  30.023  53.803  1.00  0.00     0.002 A 
HETATM   34  C   UNL     1       4.857  30.017  54.614  1.00  0.00     0.030 A 
ENDBRANCH   2  29
TORSDOF 6
ENDMDL
MODEL 2
REMARK VINA RESULT:      -9.3      3.049      5.508
REMARK  6 active torsions:
REMARK  status: ('A' for Active; 'I' for Inactive)
REMARK    1  A    between atoms: O_2  and  C_3 
REMARK    2  A    between atoms: C_6  and  C_7 
REMARK    3  A    between atoms: C_7  and  N_8 
REMARK       I    between atoms: N_8  and  C_9 
REMARK    4  A    between atoms: C_9  and  C_10 
REMARK    5  A    between atoms: C_10  and  O_11 
REMARK    6  A    between atoms: N_12  and  C_13 
ROOT
HETATM    1  C   UNL     1       7.381  27.544  54.862  1.00  0.00     0.256 C 
HETATM    2  N   UNL     1       6.842  26.232  55.229  1.00  0.00    -0.254 N 
HETATM    3  C   UNL     1       5.853  26.227  56.219  1.00  0.00     0.330 C 
HETATM    4  O   UNL     1       5.047  25.326  56.447  1.00  0.00    -0.246 OA
HETATM    5  N   UNL     1       5.874  27.292  57.099  1.00  0.00    -0.308 N 
HETATM    6  C   UNL     1       6.927  28.203  57.187  1.00  0.00     0.048 A 
HETATM    7  C   UNL     1       7.803  28.293  56.107  1.00  0.00     0.035 A 
HETATM    8  C   UNL     1       7.119  28.961  58.338  1.00  0.00     0.031 A 
HETATM    9  C   UNL     1       8.239  29.790  58.430  1.00  0.00     0.021 A 
HETATM   10  C   UNL     1       9.147  29.853  57.371  1.00  0.00     0.011 A 
HETATM   11 BR   UNL     1      10.670  30.963  57.509  1.00  0.00    -0.051 Br
HETATM   12  C   UNL     1       8.933  29.115  56.207  1.00  0.00     0.034 A 
HETATM   13  H   UNL     1       5.227  27.189  57.871  1.00  0.00     0.170 HD
ENDROOT
BRANCH   1  14
HETATM   14  C   UNL     1       6.256  28.356  54.068  1.00  0.00     0.279 C 
HETATM   15  N   UNL     1       6.444  28.471  52.702  1.00  0.00    -0.352 N 
HETATM   16  H   UNL     1       7.194  27.958  52.255  1.00  0.00     0.162 HD
HETATM   17  O   UNL     1       5.234  28.782  54.610  1.00  0.00    -0.268 OA
BRANCH  15  18
HETATM   18  C   UNL     1       5.502  29.161  51.851  1.00  0.00     0.161 C 
BRANCH  18  19
HETATM   19  C   UNL     1       5.207  28.364  50.606  1.00  0.00    -0.040 A 
HETATM   20  C   UNL     1       4.894  27.001  50.685  1.00  0.00     0.011 A 
HETATM   21  C   UNL     1       4.574  26.282  49.530  1.00  0.00     0.037 A 
HETATM   22  C   UNL     1       4.549  26.908  48.282  1.00  0.00     0.068 A 
HETATM   23  C   UNL     1       4.870  28.261  48.193  1.00  0.00     0.037 A 
HETATM   24  C   UNL     1       5.191  28.984  49.348  1.00  0.00     0.011 A 
BRANCH  22  25
HETATM   25  O   UNL     1       4.202  26.094  47.239  1.00  0.00    -0.356 OA
HETATM   26  C   UNL     1       3.055  25.272  47.423  1.00  0.00     0.210 C 
ENDBRANCH  22  25
ENDBRANCH  18  19
ENDBRANCH  15  18
ENDBRANCH   1  14
BRANCH   1  27
HETATM   27  O   UNL     1       8.491  27.465  53.964  1.00  0.00    -0.359 OA
HETATM   28  H   UNL     1       9.102  28.161  54.272  1.00  0.00     0.213 HD
ENDBRANCH   1  27
BRANCH   2  29
HETATM   29  C   UNL     1       7.119  25.056  54.470  1.00  0.00     0.042 A 
HETATM   30  C   UNL     1       8.051  24.105  54.903  1.00  0.00     0.030 A 
HETATM   31  C   UNL     1       8.347  22.982  54.124  1.00  0.00     0.002 A 
HETATM   32  C   UNL     1       7.722  22.801  52.893  1.00  0.00     0.000 A 
HETATM   33  C   UNL     1       6.804  23.743  52.439  1.00  0.00     0.002 A 
HETATM   34  C   UNL     1       6.510  24.864  53.220  1.00  0.00     0.030 A 
ENDBRANCH   2  29
TORSDOF 6
ENDMDL
MODEL 3
REMARK VINA RESULT:      -9.1      2.034      2.749
REMARK  6 active torsions:
REMARK  status: ('A' for Active; 'I' for Inactive)
REMARK    1  A    between atoms: O_2  and  C_3 
REMARK    2  A    between atoms: C_6  and  C_7 
REMARK    3  A    between atoms: C_7  and  N_8 
REMARK       I    between atoms: N_8  and  C_9 
REMARK    4  A    between atoms: C_9  and  C_10 
REMARK    5  A    between atoms: C_10  and  O_11 
REMARK    6  A    between atoms: N_12  and  C_13 
ROOT
HETATM    1  C   UNL     1       6.198  27.688  56.032  1.00  0.00     0.256 C 
HETATM    2  N   UNL     1       6.919  27.887  54.772  1.00  0.00    -0.254 N 
HETATM    3  C   UNL     1       8.106  28.625  54.851  1.00  0.00     0.330 C 
HETATM    4  O   UNL     1       9.018  28.639  54.025  1.00  0.00    -0.246 OA
HETATM    5  N   UNL     1       8.195  29.515  55.904  1.00  0.00    -0.308 N 
HETATM    6  C   UNL     1       7.116  29.865  56.714  1.00  0.00     0.048 A 
HETATM    7  C   UNL     1       6.010  29.017  56.731  1.00  0.00     0.035 A 
HETATM    8  C   UNL     1       7.128  31.051  57.445  1.00  0.00     0.031 A 
HETATM    9  C   UNL     1       5.991  31.418  58.168  1.00  0.00     0.021 A 
HETATM   10  C   UNL     1       4.863  30.596  58.155  1.00  0.00     0.011 A 
HETATM   11 BR   UNL     1       3.321  31.108  59.121  1.00  0.00    -0.051 Br
HETATM   12  C   UNL     1       4.866  29.395  57.447  1.00  0.00     0.034 A 
HETATM   13  H   UNL     1       9.009  30.115  55.854  1.00  0.00     0.170 HD
ENDROOT
BRANCH   1  14
HETATM   14  C   UNL     1       7.036  26.681  56.948  1.00  0.00     0.279 C 
HETATM   15  N   UNL     1       6.996  25.350  56.575  1.00  0.00    -0.352 N 
HETATM   16  H   UNL     1       6.552  25.087  55.704  1.00  0.00     0.162 HD
HETATM   17  O   UNL     1       7.750  27.062  57.878  1.00  0.00    -0.268 OA
BRANCH  15  18
HETATM   18  C   UNL     1       7.717  24.326  57.296  1.00  0.00     0.161 C 
BRANCH  18  19
HETATM   19  C   UNL     1       7.943  23.110  56.435  1.00  0.00    -0.040 A 
HETATM   20  C   UNL     1       7.774  23.173  55.046  1.00  0.00     0.011 A 
HETATM   21  C   UNL     1       8.035  22.054  54.251  1.00  0.00     0.037 A 
HETATM   22  C   UNL     1       8.477  20.859  54.821  1.00  0.00     0.068 A 
HETATM   23  C   UNL     1       8.638  20.784  56.204  1.00  0.00     0.037 A 
HETATM   24  C   UNL     1       8.378  21.903  57.003  1.00  0.00     0.011 A 
BRANCH  22  25
HETATM   25  O   UNL     1       8.712  19.850  53.928  1.00  0.00    -0.356 OA
HETATM   26  C   UNL     1       8.500  20.149  52.554  1.00  0.00     0.210 C 
ENDBRANCH  22  25
ENDBRANCH  18  19
ENDBRANCH  15  18
ENDBRANCH   1  14
BRANCH   1  27
HETATM   27  O   UNL     1       4.922  27.066  55.859  1.00  0.00    -0.359 OA
HETATM   28  H   UNL     1       4.713  27.202  54.916  1.00  0.00     0.213 HD
ENDBRANCH   1  27
BRANCH   2  29
HETATM   29  C   UNL     1       6.578  27.179  53.581  1.00  0.00     0.042 A 
HETATM   30  C   UNL     1       7.243  26.004  53.210  1.00  0.00     0.030 A 
HETATM   31  C   UNL     1       6.930  25.349  52.015  1.00  0.00     0.002 A 
HETATM   32  C   UNL     1       5.954  25.867  51.168  1.00  0.00     0.000 A 
HETATM   33  C   UNL     1       5.294  27.042  51.513  1.00  0.00     0.002 A 
HETATM   34  C   UNL     1       5.608  27.695  52.708  1.00  0.00     0.030 A 
ENDBRANCH   2  29
TORSDOF 6
ENDMDL
MODEL 4
REMARK VINA RESULT:      -9.0      6.957     10.576
REMARK  6 active torsions:
REMARK  status: ('A' for Active; 'I' for Inactive)
REMARK    1  A    between atoms: O_2  and  C_3 
REMARK    2  A    between atoms: C_6  and  C_7 
REMARK    3  A    between atoms: C_7  and  N_8 
REMARK       I    between atoms: N_8  and  C_9 
REMARK    4  A    between atoms: C_9  and  C_10 
REMARK    5  A    between atoms: C_10  and  O_11 
REMARK    6  A    between atoms: N_12  and  C_13 
ROOT
HETATM    1  C   UNL     1       4.439  34.800  62.302  1.00  0.00     0.256 C 
HETATM    2  N   UNL     1       3.581  34.665  63.482  1.00  0.00    -0.254 N 
HETATM    3  C   UNL     1       2.316  34.106  63.264  1.00  0.00     0.330 C 
HETATM    4  O   UNL     1       1.580  33.604  64.112  1.00  0.00    -0.246 OA
HETATM    5  N   UNL     1       1.805  34.250  61.989  1.00  0.00    -0.308 N 
HETATM    6  C   UNL     1       2.359  35.088  61.022  1.00  0.00     0.048 A 
HETATM    7  C   UNL     1       3.680  35.497  61.193  1.00  0.00     0.035 A 
HETATM    8  C   UNL     1       1.597  35.538  59.947  1.00  0.00     0.031 A 
HETATM    9  C   UNL     1       2.154  36.455  59.053  1.00  0.00     0.021 A 
HETATM   10  C   UNL     1       3.463  36.904  59.241  1.00  0.00     0.011 A 
HETATM   11 BR   UNL     1       4.204  38.158  58.038  1.00  0.00    -0.051 Br
HETATM   12  C   UNL     1       4.232  36.426  60.301  1.00  0.00     0.034 A 
HETATM   13  H   UNL     1       0.843  33.945  61.905  1.00  0.00     0.170 HD
ENDROOT
BRANCH   1  14
HETATM   14  C   UNL     1       4.907  33.344  61.839  1.00  0.00     0.279 C 
HETATM   15  N   UNL     1       5.970  32.800  62.537  1.00  0.00    -0.352 N 
HETATM   16  H   UNL     1       6.324  33.274  63.359  1.00  0.00     0.162 HD
HETATM   17  O   UNL     1       4.312  32.695  60.976  1.00  0.00    -0.268 OA
BRANCH  15  18
HETATM   18  C   UNL     1       6.492  31.485  62.243  1.00  0.00     0.161 C 
BRANCH  18  19
HETATM   19  C   UNL     1       7.596  31.554  61.219  1.00  0.00    -0.040 A 
HETATM   20  C   UNL     1       7.336  31.305  59.866  1.00  0.00     0.011 A 
HETATM   21  C   UNL     1       8.356  31.421  58.918  1.00  0.00     0.037 A 
HETATM   22  C   UNL     1       9.646  31.794  59.297  1.00  0.00     0.068 A 
HETATM   23  C   UNL     1       9.917  32.033  60.644  1.00  0.00     0.037 A 
HETATM   24  C   UNL     1       8.898  31.919  61.596  1.00  0.00     0.011 A 
BRANCH  22  25
HETATM   25  O   UNL     1      10.542  31.887  58.268  1.00  0.00    -0.356 OA
HETATM   26  C   UNL     1      10.712  30.729  57.461  1.00  0.00     0.210 C 
ENDBRANCH  22  25
ENDBRANCH  18  19
ENDBRANCH  15  18
ENDBRANCH   1  14
BRANCH   1  27
HETATM   27  O   UNL     1       5.648  35.517  62.564  1.00  0.00    -0.359 OA
HETATM   28  H   UNL     1       6.098  34.990  63.251  1.00  0.00     0.213 HD
ENDBRANCH   1  27
BRANCH   2  29
HETATM   29  C   UNL     1       4.074  34.858  64.807  1.00  0.00     0.042 A 
HETATM   30  C   UNL     1       4.613  33.800  65.551  1.00  0.00     0.030 A 
HETATM   31  C   UNL     1       5.048  33.995  66.865  1.00  0.00     0.002 A 
HETATM   32  C   UNL     1       4.939  35.250  67.459  1.00  0.00     0.000 A 
HETATM   33  C   UNL     1       4.392  36.309  66.741  1.00  0.00     0.002 A 
HETATM   34  C   UNL     1       3.959  36.112  65.427  1.00  0.00     0.030 A 
ENDBRANCH   2  29
TORSDOF 6
ENDMDL
MODEL 5
REMARK VINA RESULT:      -8.4      4.573      7.319
REMARK  6 active torsions:
REMARK  status: ('A' for Active; 'I' for Inactive)
REMARK    1  A    between atoms: O_2  and  C_3 
REMARK    2  A    between atoms: C_6  and  C_7 
REMARK    3  A    between atoms: C_7  and  N_8 
REMARK       I    between atoms: N_8  and  C_9 
REMARK    4  A    between atoms: C_9  and  C_10 
REMARK    5  A    between atoms: C_10  and  O_11 
REMARK    6  A    between atoms: N_12  and  C_13 
ROOT
HETATM    1  C   UNL     1       4.807  32.823  59.565  1.00  0.00     0.256 C 
HETATM    2  N   UNL     1       5.281  32.437  60.897  1.00  0.00    -0.254 N 
HETATM    3  C   UNL     1       4.292  32.140  61.842  1.00  0.00     0.330 C 
HETATM    4  O   UNL     1       4.438  31.497  62.880  1.00  0.00    -0.246 OA
HETATM    5  N   UNL     1       3.064  32.739  61.638  1.00  0.00    -0.308 N 
HETATM    6  C   UNL     1       2.844  33.759  60.713  1.00  0.00     0.048 A 
HETATM    7  C   UNL     1       3.773  33.922  59.688  1.00  0.00     0.035 A 
HETATM    8  C   UNL     1       1.754  34.616  60.843  1.00  0.00     0.031 A 
HETATM    9  C   UNL     1       1.619  35.687  59.957  1.00  0.00     0.021 A 
HETATM   10  C   UNL     1       2.570  35.884  58.954  1.00  0.00     0.011 A 
HETATM   11 BR   UNL     1       2.392  37.346  57.769  1.00  0.00    -0.051 Br
HETATM   12  C   UNL     1       3.643  35.005  58.808  1.00  0.00     0.034 A 
HETATM   13  H   UNL     1       2.417  32.601  62.405  1.00  0.00     0.170 HD
ENDROOT
BRANCH   1  14
HETATM   14  C   UNL     1       4.183  31.537  58.851  1.00  0.00     0.279 C 
HETATM   15  N   UNL     1       5.014  30.875  57.965  1.00  0.00    -0.352 N 
HETATM   16  H   UNL     1       5.986  31.147  57.892  1.00  0.00     0.162 HD
HETATM   17  O   UNL     1       3.064  31.097  59.127  1.00  0.00    -0.268 OA
BRANCH  15  18
HETATM   18  C   UNL     1       4.595  29.687  57.258  1.00  0.00     0.161 C 
BRANCH  18  19
HETATM   19  C   UNL     1       5.671  28.631  57.281  1.00  0.00    -0.040 A 
HETATM   20  C   UNL     1       6.982  28.952  57.653  1.00  0.00     0.011 A 
HETATM   21  C   UNL     1       7.961  27.957  57.720  1.00  0.00     0.037 A 
HETATM   22  C   UNL     1       7.650  26.627  57.428  1.00  0.00     0.068 A 
HETATM   23  C   UNL     1       6.350  26.301  57.046  1.00  0.00     0.037 A 
HETATM   24  C   UNL     1       5.367  27.295  56.978  1.00  0.00     0.011 A 
BRANCH  22  25
HETATM   25  O   UNL     1       8.696  25.754  57.550  1.00  0.00    -0.356 OA
HETATM   26  C   UNL     1       8.456  24.409  57.154  1.00  0.00     0.210 C 
ENDBRANCH  22  25
ENDBRANCH  18  19
ENDBRANCH  15  18
ENDBRANCH   1  14
BRANCH   1  27
HETATM   27  O   UNL     1       5.857  33.262  58.699  1.00  0.00    -0.359 OA
HETATM   28  H   UNL     1       6.593  33.478  59.302  1.00  0.00     0.213 HD
ENDBRANCH   1  27
BRANCH   2  29
HETATM   29  C   UNL     1       6.652  32.141  61.160  1.00  0.00     0.042 A 
HETATM   30  C   UNL     1       7.357  31.195  60.405  1.00  0.00     0.030 A 
HETATM   31  C   UNL     1       8.686  30.882  60.706  1.00  0.00     0.002 A 
HETATM   32  C   UNL     1       9.326  31.504  61.775  1.00  0.00     0.000 A 
HETATM   33  C   UNL     1       8.637  32.435  62.545  1.00  0.00     0.002 A 
HETATM   34  C   UNL     1       7.309  32.747  62.242  1.00  0.00     0.030 A 
ENDBRANCH   2  29
TORSDOF 6
ENDMDL
MODEL 6
REMARK VINA RESULT:      -8.3      3.372      7.347
REMARK  6 active torsions:
REMARK  status: ('A' for Active; 'I' for Inactive)
REMARK    1  A    between atoms: O_2  and  C_3 
REMARK    2  A    between atoms: C_6  and  C_7 
REMARK    3  A    between atoms: C_7  and  N_8 
REMARK       I    between atoms: N_8  and  C_9 
REMARK    4  A    between atoms: C_9  and  C_10 
REMARK    5  A    between atoms: C_10  and  O_11 
REMARK    6  A    between atoms: N_12  and  C_13 
ROOT
HETATM    1  C   UNL     1       4.858  26.899  53.138  1.00  0.00     0.256 C 
HETATM    2  N   UNL     1       6.279  26.578  53.295  1.00  0.00    -0.254 N 
HETATM    3  C   UNL     1       7.158  27.666  53.317  1.00  0.00     0.330 C 
HETATM    4  O   UNL     1       8.308  27.672  53.755  1.00  0.00    -0.246 OA
HETATM    5  N   UNL     1       6.724  28.806  52.670  1.00  0.00    -0.308 N 
HETATM    6  C   UNL     1       5.608  28.844  51.835  1.00  0.00     0.048 A 
HETATM    7  C   UNL     1       4.668  27.822  51.954  1.00  0.00     0.035 A 
HETATM    8  C   UNL     1       5.465  29.849  50.881  1.00  0.00     0.031 A 
HETATM    9  C   UNL     1       4.385  29.801  49.996  1.00  0.00     0.021 A 
HETATM   10  C   UNL     1       3.463  28.756  50.079  1.00  0.00     0.011 A 
HETATM   11 BR   UNL     1       2.015  28.686  48.867  1.00  0.00    -0.051 Br
HETATM   12  C   UNL     1       3.593  27.769  51.057  1.00  0.00     0.034 A 
HETATM   13  H   UNL     1       7.435  29.524  52.600  1.00  0.00     0.170 HD
ENDROOT
BRANCH   1  14
HETATM   14  C   UNL     1       4.337  27.589  54.482  1.00  0.00     0.279 C 
HETATM   15  N   UNL     1       4.912  27.136  55.656  1.00  0.00    -0.352 N 
HETATM   16  H   UNL     1       5.694  26.494  55.615  1.00  0.00     0.162 HD
HETATM   17  O   UNL     1       3.540  28.529  54.484  1.00  0.00    -0.268 OA
BRANCH  15  18
HETATM   18  C   UNL     1       4.555  27.678  56.947  1.00  0.00     0.161 C 
BRANCH  18  19
HETATM   19  C   UNL     1       5.509  28.770  57.362  1.00  0.00    -0.040 A 
HETATM   20  C   UNL     1       5.045  30.064  57.627  1.00  0.00     0.011 A 
HETATM   21  C   UNL     1       5.929  31.056  58.060  1.00  0.00     0.037 A 
HETATM   22  C   UNL     1       7.284  30.776  58.245  1.00  0.00     0.068 A 
HETATM   23  C   UNL     1       7.756  29.493  57.972  1.00  0.00     0.037 A 
HETATM   24  C   UNL     1       6.874  28.497  57.539  1.00  0.00     0.011 A 
BRANCH  22  25
HETATM   25  O   UNL     1       8.033  31.831  58.688  1.00  0.00    -0.356 OA
HETATM   26  C   UNL     1       9.275  31.519  59.307  1.00  0.00     0.210 C 
ENDBRANCH  22  25
ENDBRANCH  18  19
ENDBRANCH  15  18
ENDBRANCH   1  14
BRANCH   1  27
HETATM   27  O   UNL     1       4.034  25.742  52.966  1.00  0.00    -0.359 OA
HETATM   28  H   UNL     1       3.484  25.950  52.188  1.00  0.00     0.213 HD
ENDBRANCH   1  27
BRANCH   2  29
HETATM   29  C   UNL     1       6.728  25.270  53.647  1.00  0.00     0.042 A 
HETATM   30  C   UNL     1       6.788  24.849  54.981  1.00  0.00     0.030 A 
HETATM   31  C   UNL     1       7.276  23.581  55.313  1.00  0.00     0.002 A 
HETATM   32  C   UNL     1       7.723  22.720  54.315  1.00  0.00     0.000 A 
HETATM   33  C   UNL     1       7.685  23.127  52.984  1.00  0.00     0.002 A 
HETATM   34  C   UNL     1       7.196  24.394  52.655  1.00  0.00     0.030 A 
ENDBRANCH   2  29
TORSDOF 6
ENDMDL
MODEL 7
REMARK VINA RESULT:      -8.1      3.976      5.876
REMARK  6 active torsions:
REMARK  status: ('A' for Active; 'I' for Inactive)
REMARK    1  A    between atoms: O_2  and  C_3 
REMARK    2  A    between atoms: C_6  and  C_7 
REMARK    3  A    between atoms: C_7  and  N_8 
REMARK       I    between atoms: N_8  and  C_9 
REMARK    4  A    between atoms: C_9  and  C_10 
REMARK    5  A    between atoms: C_10  and  O_11 
REMARK    6  A    between atoms: N_12  and  C_13 
ROOT
HETATM    1  C   UNL     1       4.135  28.900  51.498  1.00  0.00     0.256 C 
HETATM    2  N   UNL     1       3.971  29.009  50.046  1.00  0.00    -0.254 N 
HETATM    3  C   UNL     1       4.659  30.058  49.424  1.00  0.00     0.330 C 
HETATM    4  O   UNL     1       4.934  30.148  48.229  1.00  0.00    -0.246 OA
HETATM    5  N   UNL     1       4.943  31.149  50.222  1.00  0.00    -0.308 N 
HETATM    6  C   UNL     1       4.397  31.345  51.490  1.00  0.00     0.048 A 
HETATM    7  C   UNL     1       3.862  30.239  52.148  1.00  0.00     0.035 A 
HETATM    8  C   UNL     1       4.347  32.616  52.057  1.00  0.00     0.031 A 
HETATM    9  C   UNL     1       3.705  32.791  53.284  1.00  0.00     0.021 A 
HETATM   10  C   UNL     1       3.127  31.696  53.929  1.00  0.00     0.011 A 
HETATM   11 BR   UNL     1       2.243  31.943  55.582  1.00  0.00    -0.051 Br
HETATM   12  C   UNL     1       3.207  30.420  53.373  1.00  0.00     0.034 A 
HETATM   13  H   UNL     1       5.327  31.933  49.708  1.00  0.00     0.170 HD
ENDROOT
BRANCH   1  14
HETATM   14  C   UNL     1       5.626  28.415  51.809  1.00  0.00     0.279 C 
HETATM   15  N   UNL     1       5.874  28.020  53.112  1.00  0.00    -0.352 N 
HETATM   16  H   UNL     1       5.105  27.944  53.766  1.00  0.00     0.162 HD
HETATM   17  O   UNL     1       6.489  28.308  50.935  1.00  0.00    -0.268 OA
BRANCH  15  18
HETATM   18  C   UNL     1       7.168  27.541  53.538  1.00  0.00     0.161 C 
BRANCH  18  19
HETATM   19  C   UNL     1       7.234  26.036  53.494  1.00  0.00    -0.040 A 
HETATM   20  C   UNL     1       7.797  25.375  52.395  1.00  0.00     0.011 A 
HETATM   21  C   UNL     1       7.899  23.981  52.386  1.00  0.00     0.037 A 
HETATM   22  C   UNL     1       7.452  23.224  53.471  1.00  0.00     0.068 A 
HETATM   23  C   UNL     1       6.879  23.873  54.563  1.00  0.00     0.037 A 
HETATM   24  C   UNL     1       6.777  25.269  54.577  1.00  0.00     0.011 A 
BRANCH  22  25
HETATM   25  O   UNL     1       7.627  21.874  53.339  1.00  0.00    -0.356 OA
HETATM   26  C   UNL     1       8.780  21.315  53.958  1.00  0.00     0.210 C 
ENDBRANCH  22  25
ENDBRANCH  18  19
ENDBRANCH  15  18
ENDBRANCH   1  14
BRANCH   1  27
HETATM   27  O   UNL     1       3.287  27.911  52.088  1.00  0.00    -0.359 OA
HETATM   28  H   UNL     1       3.159  28.219  53.005  1.00  0.00     0.213 HD
ENDBRANCH   1  27
BRANCH   2  29
HETATM   29  C   UNL     1       3.353  27.982  49.271  1.00  0.00     0.042 A 
HETATM   30  C   UNL     1       4.055  26.835  48.880  1.00  0.00     0.030 A 
HETATM   31  C   UNL     1       3.449  25.861  48.081  1.00  0.00     0.002 A 
HETATM   32  C   UNL     1       2.135  26.026  47.651  1.00  0.00     0.000 A 
HETATM   33  C   UNL     1       1.427  27.167  48.017  1.00  0.00     0.002 A 
HETATM   34  C   UNL     1       2.034  28.139  48.817  1.00  0.00     0.030 A 
ENDBRANCH   2  29
TORSDOF 6
ENDMDL
MODEL 8
REMARK VINA RESULT:      -7.8      4.698      7.204
REMARK  6 active torsions:
REMARK  status: ('A' for Active; 'I' for Inactive)
REMARK    1  A    between atoms: O_2  and  C_3 
REMARK    2  A    between atoms: C_6  and  C_7 
REMARK    3  A    between atoms: C_7  and  N_8 
REMARK       I    between atoms: N_8  and  C_9 
REMARK    4  A    between atoms: C_9  and  C_10 
REMARK    5  A    between atoms: C_10  and  O_11 
REMARK    6  A    between atoms: N_12  and  C_13 
ROOT
HETATM    1  C   UNL     1       4.910  29.754  50.594  1.00  0.00     0.256 C 
HETATM    2  N   UNL     1       3.686  29.677  51.397  1.00  0.00    -0.254 N 
HETATM    3  C   UNL     1       2.509  29.379  50.701  1.00  0.00     0.330 C 
HETATM    4  O   UNL     1       1.461  28.950  51.181  1.00  0.00    -0.246 OA
HETATM    5  N   UNL     1       2.496  29.722  49.363  1.00  0.00    -0.308 N 
HETATM    6  C   UNL     1       3.464  30.525  48.760  1.00  0.00     0.048 A 
HETATM    7  C   UNL     1       4.689  30.669  49.409  1.00  0.00     0.035 A 
HETATM    8  C   UNL     1       3.193  31.197  47.571  1.00  0.00     0.031 A 
HETATM    9  C   UNL     1       4.150  32.069  47.047  1.00  0.00     0.021 A 
HETATM   10  C   UNL     1       5.362  32.254  47.714  1.00  0.00     0.011 A 
HETATM   11 BR   UNL     1       6.645  33.450  47.010  1.00  0.00    -0.051 Br
HETATM   12  C   UNL     1       5.641  31.555  48.888  1.00  0.00     0.034 A 
HETATM   13  H   UNL     1       1.589  29.607  48.928  1.00  0.00     0.170 HD
ENDROOT
BRANCH   1  14
HETATM   14  C   UNL     1       5.295  28.281  50.106  1.00  0.00     0.279 C 
HETATM   15  N   UNL     1       5.449  27.335  51.104  1.00  0.00    -0.352 N 
HETATM   16  H   UNL     1       5.207  27.570  52.058  1.00  0.00     0.162 HD
HETATM   17  O   UNL     1       5.368  27.970  48.915  1.00  0.00    -0.268 OA
BRANCH  15  18
HETATM   18  C   UNL     1       5.780  25.959  50.815  1.00  0.00     0.161 C 
BRANCH  18  19
HETATM   19  C   UNL     1       6.277  25.248  52.048  1.00  0.00    -0.040 A 
HETATM   20  C   UNL     1       5.477  25.154  53.194  1.00  0.00     0.011 A 
HETATM   21  C   UNL     1       5.928  24.450  54.313  1.00  0.00     0.037 A 
HETATM   22  C   UNL     1       7.174  23.821  54.309  1.00  0.00     0.068 A 
HETATM   23  C   UNL     1       7.982  23.919  53.177  1.00  0.00     0.037 A 
HETATM   24  C   UNL     1       7.534  24.622  52.053  1.00  0.00     0.011 A 
BRANCH  22  25
HETATM   25  O   UNL     1       7.483  23.152  55.462  1.00  0.00    -0.356 OA
HETATM   26  C   UNL     1       8.735  23.458  56.063  1.00  0.00     0.210 C 
ENDBRANCH  22  25
ENDBRANCH  18  19
ENDBRANCH  15  18
ENDBRANCH   1  14
BRANCH   1  27
HETATM   27  O   UNL     1       6.043  30.213  51.335  1.00  0.00    -0.359 OA
HETATM   28  H   UNL     1       5.802  30.054  52.268  1.00  0.00     0.213 HD
ENDBRANCH   1  27
BRANCH   2  29
HETATM   29  C   UNL     1       3.714  29.662  52.824  1.00  0.00     0.042 A 
HETATM   30  C   UNL     1       3.486  30.822  53.574  1.00  0.00     0.030 A 
HETATM   31  C   UNL     1       3.564  30.802  54.970  1.00  0.00     0.002 A 
HETATM   32  C   UNL     1       3.882  29.621  55.635  1.00  0.00     0.000 A 
HETATM   33  C   UNL     1       4.127  28.462  54.905  1.00  0.00     0.002 A 
HETATM   34  C   UNL     1       4.048  28.485  53.510  1.00  0.00     0.030 A 
ENDBRANCH   2  29
TORSDOF 6
ENDMDL
MODEL 9
REMARK VINA RESULT:      -7.7     16.355     19.220
REMARK  6 active torsions:
REMARK  status: ('A' for Active; 'I' for Inactive)
REMARK    1  A    between atoms: O_2  and  C_3 
REMARK    2  A    between atoms: C_6  and  C_7 
REMARK    3  A    between atoms: C_7  and  N_8 
REMARK       I    between atoms: N_8  and  C_9 
REMARK    4  A    between atoms: C_9  and  C_10 
REMARK    5  A    between atoms: C_10  and  O_11 
REMARK    6  A    between atoms: N_12  and  C_13 
ROOT
HETATM    1  C   UNL     1      11.703   9.987  54.266  1.00  0.00     0.256 C 
HETATM    2  N   UNL     1      12.356  11.069  53.524  1.00  0.00    -0.254 N 
HETATM    3  C   UNL     1      11.911  12.366  53.805  1.00  0.00     0.330 C 
HETATM    4  O   UNL     1      12.509  13.415  53.569  1.00  0.00    -0.246 OA
HETATM    5  N   UNL     1      10.619  12.470  54.283  1.00  0.00    -0.308 N 
HETATM    6  C   UNL     1       9.703  11.418  54.275  1.00  0.00     0.048 A 
HETATM    7  C   UNL     1      10.200  10.122  54.152  1.00  0.00     0.035 A 
HETATM    8  C   UNL     1       8.334  11.664  54.338  1.00  0.00     0.031 A 
HETATM    9  C   UNL     1       7.443  10.594  54.228  1.00  0.00     0.021 A 
HETATM   10  C   UNL     1       7.931   9.297  54.061  1.00  0.00     0.011 A 
HETATM   11 BR   UNL     1       6.719   7.856  53.894  1.00  0.00    -0.051 Br
HETATM   12  C   UNL     1       9.303   9.052  54.029  1.00  0.00     0.034 A 
HETATM   13  H   UNL     1      10.293  13.426  54.355  1.00  0.00     0.170 HD
ENDROOT
BRANCH   1  14
HETATM   14  C   UNL     1      12.163  10.064  55.794  1.00  0.00     0.279 C 
HETATM   15  N   UNL     1      13.039   9.077  56.212  1.00  0.00    -0.352 N 
HETATM   16  H   UNL     1      13.433   8.438  55.533  1.00  0.00     0.162 HD
HETATM   17  O   UNL     1      11.839  10.987  56.544  1.00  0.00    -0.268 OA
BRANCH  15  18
HETATM   18  C   UNL     1      13.556   9.026  57.560  1.00  0.00     0.161 C 
BRANCH  18  19
HETATM   19  C   UNL     1      15.047   9.247  57.581  1.00  0.00    -0.040 A 
HETATM   20  C   UNL     1      15.652  10.140  56.688  1.00  0.00     0.011 A 
HETATM   21  C   UNL     1      17.028  10.375  56.748  1.00  0.00     0.037 A 
HETATM   22  C   UNL     1      17.823   9.734  57.702  1.00  0.00     0.068 A 
HETATM   23  C   UNL     1      17.230   8.835  58.587  1.00  0.00     0.037 A 
HETATM   24  C   UNL     1      15.852   8.598  58.530  1.00  0.00     0.011 A 
BRANCH  22  25
HETATM   25  O   UNL     1      19.148  10.068  57.662  1.00  0.00    -0.356 OA
HETATM   26  C   UNL     1      19.859  10.013  58.893  1.00  0.00     0.210 C 
ENDBRANCH  22  25
ENDBRANCH  18  19
ENDBRANCH  15  18
ENDBRANCH   1  14
BRANCH   1  27
HETATM   27  O   UNL     1      12.091   8.685  53.821  1.00  0.00    -0.359 OA
HETATM   28  H   UNL     1      11.284   8.145  53.918  1.00  0.00     0.213 HD
ENDBRANCH   1  27
BRANCH   2  29
HETATM   29  C   UNL     1      13.533  10.855  52.746  1.00  0.00     0.042 A 
HETATM   30  C   UNL     1      14.797  10.752  53.340  1.00  0.00     0.030 A 
HETATM   31  C   UNL     1      15.946  10.590  52.560  1.00  0.00     0.002 A 
HETATM   32  C   UNL     1      15.848  10.541  51.172  1.00  0.00     0.000 A 
HETATM   33  C   UNL     1      14.602  10.657  50.564  1.00  0.00     0.002 A 
HETATM   34  C   UNL     1      13.455  10.818  51.345  1.00  0.00     0.030 A 
ENDBRANCH   2  29
TORSDOF 6
ENDMDL
MODEL 10
REMARK VINA RESULT:      -7.7      5.322      7.826
REMARK  6 active torsions:
REMARK  status: ('A' for Active; 'I' for Inactive)
REMARK    1  A    between atoms: O_2  and  C_3 
REMARK    2  A    between atoms: C_6  and  C_7 
REMARK    3  A    between atoms: C_7  and  N_8 
REMARK       I    between atoms: N_8  and  C_9 
REMARK    4  A    between atoms: C_9  and  C_10 
REMARK    5  A    between atoms: C_10  and  O_11 
REMARK    6  A    between atoms: N_12  and  C_13 
ROOT
HETATM    1  C   UNL     1       2.373  29.438  50.217  1.00  0.00     0.256 C 
HETATM    2  N   UNL     1       3.202  29.057  49.070  1.00  0.00    -0.254 N 
HETATM    3  C   UNL     1       4.189  29.974  48.691  1.00  0.00     0.330 C 
HETATM    4  O   UNL     1       5.182  29.741  48.004  1.00  0.00    -0.246 OA
HETATM    5  N   UNL     1       3.949  31.292  49.027  1.00  0.00    -0.308 N 
HETATM    6  C   UNL     1       2.721  31.761  49.492  1.00  0.00     0.048 A 
HETATM    7  C   UNL     1       1.822  30.833  50.011  1.00  0.00     0.035 A 
HETATM    8  C   UNL     1       2.390  33.111  49.393  1.00  0.00     0.031 A 
HETATM    9  C   UNL     1       1.114  33.529  49.778  1.00  0.00     0.021 A 
HETATM   10  C   UNL     1       0.191  32.598  50.258  1.00  0.00     0.011 A 
HETATM   11 BR   UNL     1      -1.539  33.169  50.759  1.00  0.00    -0.051 Br
HETATM   12  C   UNL     1       0.538  31.254  50.384  1.00  0.00     0.034 A 
HETATM   13  H   UNL     1       4.621  31.937  48.628  1.00  0.00     0.170 HD
ENDROOT
BRANCH   1  14
HETATM   14  C   UNL     1       3.268  29.373  51.539  1.00  0.00     0.279 C 
HETATM   15  N   UNL     1       3.244  28.172  52.226  1.00  0.00    -0.352 N 
HETATM   16  H   UNL     1       2.774  27.373  51.821  1.00  0.00     0.162 HD
HETATM   17  O   UNL     1       4.007  30.295  51.891  1.00  0.00    -0.268 OA
BRANCH  15  18
HETATM   18  C   UNL     1       4.016  27.958  53.429  1.00  0.00     0.161 C 
BRANCH  18  19
HETATM   19  C   UNL     1       5.082  26.914  53.214  1.00  0.00    -0.040 A 
HETATM   20  C   UNL     1       4.746  25.627  52.775  1.00  0.00     0.011 A 
HETATM   21  C   UNL     1       5.746  24.682  52.530  1.00  0.00     0.037 A 
HETATM   22  C   UNL     1       7.093  25.003  52.707  1.00  0.00     0.068 A 
HETATM   23  C   UNL     1       7.435  26.278  53.154  1.00  0.00     0.037 A 
HETATM   24  C   UNL     1       6.437  27.228  53.400  1.00  0.00     0.011 A 
BRANCH  22  25
HETATM   25  O   UNL     1       7.967  23.993  52.414  1.00  0.00    -0.356 OA
HETATM   26  C   UNL     1       7.927  22.847  53.257  1.00  0.00     0.210 C 
ENDBRANCH  22  25
ENDBRANCH  18  19
ENDBRANCH  15  18
ENDBRANCH   1  14
BRANCH   1  27
HETATM   27  O   UNL     1       1.288  28.536  50.452  1.00  0.00    -0.359 OA
HETATM   28  H   UNL     1       1.424  28.229  51.368  1.00  0.00     0.213 HD
ENDBRANCH   1  27
BRANCH   2  29
HETATM   29  C   UNL     1       3.179  27.741  48.519  1.00  0.00     0.042 A 
HETATM   30  C   UNL     1       2.393  27.426  47.403  1.00  0.00     0.030 A 
HETATM   31  C   UNL     1       2.344  26.121  46.905  1.00  0.00     0.002 A 
HETATM   32  C   UNL     1       3.073  25.108  47.523  1.00  0.00     0.000 A 
HETATM   33  C   UNL     1       3.847  25.399  48.642  1.00  0.00     0.002 A 
HETATM   34  C   UNL     1       3.895  26.705  49.138  1.00  0.00     0.030 A 
ENDBRANCH   2  29
TORSDOF 6
ENDMDL
