MODEL 1
REMARK VINA RESULT:      -8.4      0.000      0.000
REMARK  9 active torsions:
REMARK  status: ('A' for Active; 'I' for Inactive)
REMARK    1  A    between atoms: C_6  and  C_7 
REMARK    2  A    between atoms: C_7  and  C_8 
REMARK       I    between atoms: C_8  and  N_9 
REMARK    3  A    between atoms: N_9  and  C_10 
REMARK    4  A    between atoms: C_10  and  C_11 
REMARK    5  A    between atoms: C_11  and  N_12 
REMARK    6  A    between atoms: C_20  and  C_21 
REMARK    7  A    between atoms: C_24  and  C_25 
REMARK    8  A    between atoms: C_32  and  C_33 
REMARK    9  A    between atoms: C_33  and  O_34 
ROOT
HETATM    1  C   UNL     1       6.316  28.592  52.492  1.00  0.00     0.071 C 
HETATM    2  C   UNL     1       6.870  28.260  53.854  1.00  0.00     0.048 C 
HETATM    3  N   UNL     1       8.211  28.604  54.003  1.00  0.00    -0.229 NA
HETATM    4  C   UNL     1       8.669  28.661  55.208  1.00  0.00     0.170 C 
HETATM    5  N   UNL     1       7.795  28.322  56.439  1.00  0.00    -0.319 N 
HETATM    6  C   UNL     1       8.083  29.112  57.415  1.00  0.00     0.011 C 
HETATM    7  C   UNL     1       6.845  27.231  56.123  1.00  0.00     0.166 C 
HETATM    8  S   UNL     1      10.161  29.383  55.676  1.00  0.00    -0.086 SA
HETATM    9  C   UNL     1       9.458  29.758  57.320  1.00  0.00     0.135 C 
HETATM   10  C   UNL     1       6.163  27.665  54.847  1.00  0.00     0.069 C 
ENDROOT
BRANCH   6  11
HETATM   11  C   UNL     1       7.083  29.433  58.491  1.00  0.00     0.156 C 
BRANCH  11  12
HETATM   12  C   UNL     1       7.260  30.887  58.912  1.00  0.00     0.223 C 
HETATM   13  N   UNL     1       7.697  31.113  60.190  1.00  0.00    -0.359 N 
HETATM   14  H   UNL     1       8.112  30.350  60.720  1.00  0.00     0.162 HD
HETATM   15  O   UNL     1       6.864  31.799  58.192  1.00  0.00    -0.273 OA
BRANCH  13  16
HETATM   16  C   UNL     1       7.451  32.354  60.946  1.00  0.00     0.150 C 
BRANCH  16  17
HETATM   17  C   UNL     1       6.073  32.535  61.635  1.00  0.00     0.254 C 
BRANCH  17  18
HETATM   18  N   UNL     1       6.161  33.240  62.973  1.00  0.00    -0.070 N 
HETATM   19  H   UNL     1       6.269  34.250  62.751  1.00  0.00     0.279 HD
HETATM   20  C   UNL     1       4.932  33.112  63.842  1.00  0.00     0.235 C 
HETATM   21  C   UNL     1       5.060  34.060  65.028  1.00  0.00     0.028 C 
HETATM   22  C   UNL     1       6.333  33.800  65.825  1.00  0.00     0.003 C 
HETATM   23  C   UNL     1       7.566  33.802  64.927  1.00  0.00     0.028 C 
HETATM   24  C   UNL     1       7.409  32.861  63.741  1.00  0.00     0.235 C 
ENDBRANCH  17  18
ENDBRANCH  16  17
ENDBRANCH  13  16
ENDBRANCH  11  12
ENDBRANCH   6  11
BRANCH   7  25
HETATM   25  C   UNL     1       7.683  25.940  55.983  1.00  0.00    -0.030 C 
HETATM   26  C   UNL     1       7.607  25.164  54.808  1.00  0.00     0.010 C 
HETATM   27  C   UNL     1       8.004  23.823  54.814  1.00  0.00     0.008 C 
HETATM   28  C   UNL     1       8.533  23.238  55.970  1.00  0.00    -0.055 C 
HETATM   29  C   UNL     1       8.792  24.062  57.069  1.00  0.00     0.008 C 
HETATM   30  C   UNL     1       8.389  25.398  57.071  1.00  0.00     0.010 C 
BRANCH  28  31
HETATM   31  C   UNL     1       8.734  21.733  56.045  1.00  0.00     0.010 C 
HETATM   32  C   UNL     1       8.341  21.145  57.398  1.00  0.00     0.015 C 
HETATM   33  C   UNL     1       7.962  21.043  54.910  1.00  0.00     0.015 C 
ENDBRANCH  28  31
ENDBRANCH   7  25
BRANCH  10  34
HETATM   34  C   UNL     1       4.713  27.391  54.843  1.00  0.00     0.293 C 
HETATM   35  O   UNL     1       4.213  26.574  54.091  1.00  0.00    -0.259 OA
BRANCH  34  36
HETATM   36  O   UNL     1       4.124  27.977  55.910  1.00  0.00    -0.323 OA
HETATM   37  C   UNL     1       4.006  29.402  55.809  1.00  0.00     0.213 C 
ENDBRANCH  34  36
ENDBRANCH  10  34
TORSDOF 9
ENDMDL
MODEL 2
REMARK VINA RESULT:      -8.4      1.770      2.624
REMARK  9 active torsions:
REMARK  status: ('A' for Active; 'I' for Inactive)
REMARK    1  A    between atoms: C_6  and  C_7 
REMARK    2  A    between atoms: C_7  and  C_8 
REMARK       I    between atoms: C_8  and  N_9 
REMARK    3  A    between atoms: N_9  and  C_10 
REMARK    4  A    between atoms: C_10  and  C_11 
REMARK    5  A    between atoms: C_11  and  N_12 
REMARK    6  A    between atoms: C_20  and  C_21 
REMARK    7  A    between atoms: C_24  and  C_25 
REMARK    8  A    between atoms: C_32  and  C_33 
REMARK    9  A    between atoms: C_33  and  O_34 
ROOT
HETATM    1  C   UNL     1       6.088  28.364  51.533  1.00  0.00     0.071 C 
HETATM    2  C   UNL     1       6.476  27.856  52.898  1.00  0.00     0.048 C 
HETATM    3  N   UNL     1       7.717  28.317  53.328  1.00  0.00    -0.229 NA
HETATM    4  C   UNL     1       7.977  28.205  54.587  1.00  0.00     0.170 C 
HETATM    5  N   UNL     1       6.987  27.551  55.580  1.00  0.00    -0.319 N 
HETATM    6  C   UNL     1       7.011  28.178  56.705  1.00  0.00     0.011 C 
HETATM    7  C   UNL     1       6.258  26.435  54.934  1.00  0.00     0.166 C 
HETATM    8  S   UNL     1       9.266  28.995  55.413  1.00  0.00    -0.086 SA
HETATM    9  C   UNL     1       8.280  28.983  56.951  1.00  0.00     0.135 C 
HETATM   10  C   UNL     1       5.720  27.013  53.647  1.00  0.00     0.069 C 
ENDROOT
BRANCH   6  11
HETATM   11  C   UNL     1       5.827  28.183  57.631  1.00  0.00     0.156 C 
BRANCH  11  12
HETATM   12  C   UNL     1       5.087  29.506  57.479  1.00  0.00     0.223 C 
HETATM   13  N   UNL     1       5.517  30.550  58.253  1.00  0.00    -0.359 N 
HETATM   14  H   UNL     1       6.428  30.499  58.702  1.00  0.00     0.162 HD
HETATM   15  O   UNL     1       4.051  29.571  56.821  1.00  0.00    -0.273 OA
BRANCH  13  16
HETATM   16  C   UNL     1       4.678  31.697  58.644  1.00  0.00     0.150 C 
BRANCH  16  17
HETATM   17  C   UNL     1       5.312  32.806  59.524  1.00  0.00     0.254 C 
BRANCH  17  18
HETATM   18  N   UNL     1       6.234  32.265  60.597  1.00  0.00    -0.070 N 
HETATM   19  H   UNL     1       6.064  31.239  60.620  1.00  0.00     0.279 HD
HETATM   20  C   UNL     1       7.708  32.457  60.326  1.00  0.00     0.235 C 
HETATM   21  C   UNL     1       8.510  31.657  61.345  1.00  0.00     0.028 C 
HETATM   22  C   UNL     1       8.153  32.044  62.775  1.00  0.00     0.003 C 
HETATM   23  C   UNL     1       6.649  31.974  63.016  1.00  0.00     0.028 C 
HETATM   24  C   UNL     1       5.867  32.766  61.976  1.00  0.00     0.235 C 
ENDBRANCH  17  18
ENDBRANCH  16  17
ENDBRANCH  13  16
ENDBRANCH  11  12
ENDBRANCH   6  11
BRANCH   7  25
HETATM   25  C   UNL     1       7.282  25.294  54.734  1.00  0.00    -0.030 C 
HETATM   26  C   UNL     1       7.494  24.743  53.453  1.00  0.00     0.010 C 
HETATM   27  C   UNL     1       8.071  23.478  53.310  1.00  0.00     0.008 C 
HETATM   28  C   UNL     1       8.497  22.754  54.430  1.00  0.00    -0.055 C 
HETATM   29  C   UNL     1       8.469  23.387  55.676  1.00  0.00     0.008 C 
HETATM   30  C   UNL     1       7.885  24.646  55.825  1.00  0.00     0.010 C 
BRANCH  28  31
HETATM   31  C   UNL     1       8.895  21.294  54.293  1.00  0.00     0.010 C 
HETATM   32  C   UNL     1       8.534  20.459  55.520  1.00  0.00     0.015 C 
HETATM   33  C   UNL     1       8.267  20.694  53.026  1.00  0.00     0.015 C 
ENDBRANCH  28  31
ENDBRANCH   7  25
BRANCH  10  34
HETATM   34  C   UNL     1       4.339  26.582  53.351  1.00  0.00     0.293 C 
HETATM   35  O   UNL     1       3.433  27.382  53.200  1.00  0.00    -0.259 OA
BRANCH  34  36
HETATM   36  O   UNL     1       4.315  25.265  53.052  1.00  0.00    -0.323 OA
HETATM   37  C   UNL     1       4.667  24.963  51.695  1.00  0.00     0.213 C 
ENDBRANCH  34  36
ENDBRANCH  10  34
TORSDOF 9
ENDMDL
MODEL 3
REMARK VINA RESULT:      -8.2      6.715     10.755
REMARK  9 active torsions:
REMARK  status: ('A' for Active; 'I' for Inactive)
REMARK    1  A    between atoms: C_6  and  C_7 
REMARK    2  A    between atoms: C_7  and  C_8 
REMARK       I    between atoms: C_8  and  N_9 
REMARK    3  A    between atoms: N_9  and  C_10 
REMARK    4  A    between atoms: C_10  and  C_11 
REMARK    5  A    between atoms: C_11  and  N_12 
REMARK    6  A    between atoms: C_20  and  C_21 
REMARK    7  A    between atoms: C_24  and  C_25 
REMARK    8  A    between atoms: C_32  and  C_33 
REMARK    9  A    between atoms: C_33  and  O_34 
ROOT
HETATM    1  C   UNL     1       1.043  27.789  48.451  1.00  0.00     0.071 C 
HETATM    2  C   UNL     1       2.361  28.098  49.114  1.00  0.00     0.048 C 
HETATM    3  N   UNL     1       2.245  28.969  50.194  1.00  0.00    -0.229 NA
HETATM    4  C   UNL     1       3.247  29.028  51.005  1.00  0.00     0.170 C 
HETATM    5  N   UNL     1       4.542  28.211  50.780  1.00  0.00    -0.319 N 
HETATM    6  C   UNL     1       5.002  27.794  51.909  1.00  0.00     0.011 C 
HETATM    7  C   UNL     1       4.843  28.095  49.335  1.00  0.00     0.166 C 
HETATM    8  S   UNL     1       3.221  29.746  52.571  1.00  0.00    -0.086 SA
HETATM    9  C   UNL     1       4.526  28.589  53.117  1.00  0.00     0.135 C 
HETATM   10  C   UNL     1       3.559  27.609  48.706  1.00  0.00     0.069 C 
ENDROOT
BRANCH   6  11
HETATM   11  C   UNL     1       5.853  26.558  52.005  1.00  0.00     0.156 C 
BRANCH  11  12
HETATM   12  C   UNL     1       5.380  25.725  53.190  1.00  0.00     0.223 C 
HETATM   13  N   UNL     1       6.085  25.849  54.357  1.00  0.00    -0.359 N 
HETATM   14  H   UNL     1       6.718  26.636  54.478  1.00  0.00     0.162 HD
HETATM   15  O   UNL     1       4.518  24.862  53.043  1.00  0.00    -0.273 OA
BRANCH  13  16
HETATM   16  C   UNL     1       6.141  24.819  55.409  1.00  0.00     0.150 C 
BRANCH  16  17
HETATM   17  C   UNL     1       7.499  24.120  55.683  1.00  0.00     0.254 C 
BRANCH  17  18
HETATM   18  N   UNL     1       7.592  22.735  55.077  1.00  0.00    -0.070 N 
HETATM   19  H   UNL     1       6.625  22.352  55.104  1.00  0.00     0.279 HD
HETATM   20  C   UNL     1       8.035  22.701  53.632  1.00  0.00     0.235 C 
HETATM   21  C   UNL     1       7.845  21.291  53.086  1.00  0.00     0.028 C 
HETATM   22  C   UNL     1       8.592  20.256  53.921  1.00  0.00     0.003 C 
HETATM   23  C   UNL     1       8.242  20.373  55.401  1.00  0.00     0.028 C 
HETATM   24  C   UNL     1       8.423  21.793  55.920  1.00  0.00     0.235 C 
ENDBRANCH  17  18
ENDBRANCH  16  17
ENDBRANCH  13  16
ENDBRANCH  11  12
ENDBRANCH   6  11
BRANCH   7  25
HETATM   25  C   UNL     1       5.286  29.498  48.861  1.00  0.00    -0.030 C 
HETATM   26  C   UNL     1       6.070  30.319  49.698  1.00  0.00     0.010 C 
HETATM   27  C   UNL     1       6.129  31.700  49.488  1.00  0.00     0.008 C 
HETATM   28  C   UNL     1       5.454  32.289  48.413  1.00  0.00    -0.055 C 
HETATM   29  C   UNL     1       4.845  31.452  47.474  1.00  0.00     0.008 C 
HETATM   30  C   UNL     1       4.777  30.073  47.685  1.00  0.00     0.010 C 
BRANCH  28  31
HETATM   31  C   UNL     1       5.319  33.801  48.329  1.00  0.00     0.010 C 
HETATM   32  C   UNL     1       6.421  34.542  49.084  1.00  0.00     0.015 C 
HETATM   33  C   UNL     1       5.278  34.244  46.859  1.00  0.00     0.015 C 
ENDBRANCH  28  31
ENDBRANCH   7  25
BRANCH  10  34
HETATM   34  C   UNL     1       3.775  26.577  47.673  1.00  0.00     0.293 C 
HETATM   35  O   UNL     1       4.845  26.445  47.107  1.00  0.00    -0.259 OA
BRANCH  34  36
HETATM   36  O   UNL     1       2.735  25.713  47.651  1.00  0.00    -0.323 OA
HETATM   37  C   UNL     1       3.042  24.411  48.165  1.00  0.00     0.213 C 
ENDBRANCH  34  36
ENDBRANCH  10  34
TORSDOF 9
ENDMDL
MODEL 4
REMARK VINA RESULT:      -8.2      3.799      9.386
REMARK  9 active torsions:
REMARK  status: ('A' for Active; 'I' for Inactive)
REMARK    1  A    between atoms: C_6  and  C_7 
REMARK    2  A    between atoms: C_7  and  C_8 
REMARK       I    between atoms: C_8  and  N_9 
REMARK    3  A    between atoms: N_9  and  C_10 
REMARK    4  A    between atoms: C_10  and  C_11 
REMARK    5  A    between atoms: C_11  and  N_12 
REMARK    6  A    between atoms: C_20  and  C_21 
REMARK    7  A    between atoms: C_24  and  C_25 
REMARK    8  A    between atoms: C_32  and  C_33 
REMARK    9  A    between atoms: C_33  and  O_34 
ROOT
HETATM    1  C   UNL     1       7.960  30.110  58.340  1.00  0.00     0.071 C 
HETATM    2  C   UNL     1       7.456  29.201  57.249  1.00  0.00     0.048 C 
HETATM    3  N   UNL     1       6.109  28.874  57.380  1.00  0.00    -0.229 NA
HETATM    4  C   UNL     1       5.525  28.383  56.339  1.00  0.00     0.170 C 
HETATM    5  N   UNL     1       6.279  28.122  55.014  1.00  0.00    -0.319 N 
HETATM    6  C   UNL     1       5.519  28.398  54.012  1.00  0.00     0.011 C 
HETATM    7  C   UNL     1       7.670  27.688  55.280  1.00  0.00     0.166 C 
HETATM    8  S   UNL     1       3.821  28.225  56.135  1.00  0.00    -0.086 SA
HETATM    9  C   UNL     1       4.029  28.384  54.327  1.00  0.00     0.135 C 
HETATM   10  C   UNL     1       8.222  28.715  56.239  1.00  0.00     0.069 C 
ENDROOT
BRANCH   6  11
HETATM   11  C   UNL     1       6.086  28.801  52.679  1.00  0.00     0.156 C 
BRANCH  11  12
HETATM   12  C   UNL     1       5.914  27.646  51.700  1.00  0.00     0.223 C 
HETATM   13  N   UNL     1       5.394  27.949  50.470  1.00  0.00    -0.359 N 
HETATM   14  H   UNL     1       5.370  28.917  50.160  1.00  0.00     0.162 HD
HETATM   15  O   UNL     1       6.075  26.486  52.067  1.00  0.00    -0.273 OA
BRANCH  13  16
HETATM   16  C   UNL     1       4.688  26.986  49.606  1.00  0.00     0.150 C 
BRANCH  16  17
HETATM   17  C   UNL     1       4.735  27.204  48.070  1.00  0.00     0.254 C 
BRANCH  17  18
HETATM   18  N   UNL     1       3.401  27.615  47.482  1.00  0.00    -0.070 N 
HETATM   19  H   UNL     1       3.453  27.369  46.473  1.00  0.00     0.279 HD
HETATM   20  C   UNL     1       2.205  26.887  48.049  1.00  0.00     0.235 C 
HETATM   21  C   UNL     1       0.978  27.214  47.207  1.00  0.00     0.028 C 
HETATM   22  C   UNL     1       0.729  28.716  47.128  1.00  0.00     0.003 C 
HETATM   23  C   UNL     1       1.977  29.467  46.677  1.00  0.00     0.028 C 
HETATM   24  C   UNL     1       3.193  29.113  47.523  1.00  0.00     0.235 C 
ENDBRANCH  17  18
ENDBRANCH  16  17
ENDBRANCH  13  16
ENDBRANCH  11  12
ENDBRANCH   6  11
BRANCH   7  25
HETATM   25  C   UNL     1       7.584  26.260  55.865  1.00  0.00    -0.030 C 
HETATM   26  C   UNL     1       8.435  25.869  56.920  1.00  0.00     0.010 C 
HETATM   27  C   UNL     1       8.673  24.516  57.178  1.00  0.00     0.008 C 
HETATM   28  C   UNL     1       8.035  23.521  56.428  1.00  0.00    -0.055 C 
HETATM   29  C   UNL     1       7.044  23.909  55.522  1.00  0.00     0.008 C 
HETATM   30  C   UNL     1       6.809  25.259  55.255  1.00  0.00     0.010 C 
BRANCH  28  31
HETATM   31  C   UNL     1       8.476  22.071  56.545  1.00  0.00     0.010 C 
HETATM   32  C   UNL     1       8.296  21.503  57.951  1.00  0.00     0.015 C 
HETATM   33  C   UNL     1       7.730  21.210  55.514  1.00  0.00     0.015 C 
ENDBRANCH  28  31
ENDBRANCH   7  25
BRANCH  10  34
HETATM   34  C   UNL     1       9.611  29.109  55.930  1.00  0.00     0.293 C 
HETATM   35  O   UNL     1       9.893  29.745  54.931  1.00  0.00    -0.259 OA
BRANCH  34  36
HETATM   36  O   UNL     1      10.411  28.875  56.994  1.00  0.00    -0.323 OA
HETATM   37  C   UNL     1      11.382  29.901  57.236  1.00  0.00     0.213 C 
ENDBRANCH  34  36
ENDBRANCH  10  34
TORSDOF 9
ENDMDL
MODEL 5
REMARK VINA RESULT:      -8.0      1.694      2.341
REMARK  9 active torsions:
REMARK  status: ('A' for Active; 'I' for Inactive)
REMARK    1  A    between atoms: C_6  and  C_7 
REMARK    2  A    between atoms: C_7  and  C_8 
REMARK       I    between atoms: C_8  and  N_9 
REMARK    3  A    between atoms: N_9  and  C_10 
REMARK    4  A    between atoms: C_10  and  C_11 
REMARK    5  A    between atoms: C_11  and  N_12 
REMARK    6  A    between atoms: C_20  and  C_21 
REMARK    7  A    between atoms: C_24  and  C_25 
REMARK    8  A    between atoms: C_32  and  C_33 
REMARK    9  A    between atoms: C_33  and  O_34 
ROOT
HETATM    1  C   UNL     1       6.107  29.155  51.451  1.00  0.00     0.071 C 
HETATM    2  C   UNL     1       6.080  28.637  52.866  1.00  0.00     0.048 C 
HETATM    3  N   UNL     1       7.344  28.531  53.440  1.00  0.00    -0.229 NA
HETATM    4  C   UNL     1       7.393  28.415  54.725  1.00  0.00     0.170 C 
HETATM    5  N   UNL     1       6.117  28.349  55.598  1.00  0.00    -0.319 N 
HETATM    6  C   UNL     1       6.304  28.987  56.701  1.00  0.00     0.011 C 
HETATM    7  C   UNL     1       5.035  27.626  54.890  1.00  0.00     0.166 C 
HETATM    8  S   UNL     1       8.806  28.613  55.690  1.00  0.00    -0.086 SA
HETATM    9  C   UNL     1       7.767  29.161  57.089  1.00  0.00     0.135 C 
HETATM   10  C   UNL     1       4.952  28.280  53.532  1.00  0.00     0.069 C 
ENDROOT
BRANCH   6  11
HETATM   11  C   UNL     1       5.160  29.590  57.467  1.00  0.00     0.156 C 
BRANCH  11  12
HETATM   12  C   UNL     1       5.486  31.046  57.776  1.00  0.00     0.223 C 
HETATM   13  N   UNL     1       5.520  31.408  59.096  1.00  0.00    -0.359 N 
HETATM   14  H   UNL     1       5.575  30.687  59.812  1.00  0.00     0.162 HD
HETATM   15  O   UNL     1       5.541  31.879  56.875  1.00  0.00    -0.273 OA
BRANCH  13  16
HETATM   16  C   UNL     1       5.303  32.780  59.589  1.00  0.00     0.150 C 
BRANCH  16  17
HETATM   17  C   UNL     1       4.714  32.965  61.012  1.00  0.00     0.254 C 
BRANCH  17  18
HETATM   18  N   UNL     1       5.729  32.739  62.114  1.00  0.00    -0.070 N 
HETATM   19  H   UNL     1       5.590  31.757  62.424  1.00  0.00     0.279 HD
HETATM   20  C   UNL     1       7.172  32.862  61.684  1.00  0.00     0.235 C 
HETATM   21  C   UNL     1       8.071  32.373  62.812  1.00  0.00     0.028 C 
HETATM   22  C   UNL     1       7.811  33.128  64.111  1.00  0.00     0.003 C 
HETATM   23  C   UNL     1       6.332  33.113  64.481  1.00  0.00     0.028 C 
HETATM   24  C   UNL     1       5.452  33.591  63.333  1.00  0.00     0.235 C 
ENDBRANCH  17  18
ENDBRANCH  16  17
ENDBRANCH  13  16
ENDBRANCH  11  12
ENDBRANCH   6  11
BRANCH   7  25
HETATM   25  C   UNL     1       5.450  26.137  54.851  1.00  0.00    -0.030 C 
HETATM   26  C   UNL     1       5.982  25.514  55.999  1.00  0.00     0.010 C 
HETATM   27  C   UNL     1       6.733  24.341  55.888  1.00  0.00     0.008 C 
HETATM   28  C   UNL     1       6.931  23.732  54.643  1.00  0.00    -0.055 C 
HETATM   29  C   UNL     1       6.238  24.240  53.541  1.00  0.00     0.008 C 
HETATM   30  C   UNL     1       5.494  25.416  53.645  1.00  0.00     0.010 C 
BRANCH  28  31
HETATM   31  C   UNL     1       7.941  22.606  54.492  1.00  0.00     0.010 C 
HETATM   32  C   UNL     1       7.682  21.440  55.443  1.00  0.00     0.015 C 
HETATM   33  C   UNL     1       7.972  22.120  53.035  1.00  0.00     0.015 C 
ENDBRANCH  28  31
ENDBRANCH   7  25
BRANCH  10  34
HETATM   34  C   UNL     1       3.565  28.484  53.072  1.00  0.00     0.293 C 
HETATM   35  O   UNL     1       2.773  27.563  52.980  1.00  0.00    -0.259 OA
BRANCH  34  36
HETATM   36  O   UNL     1       3.280  29.805  53.018  1.00  0.00    -0.323 OA
HETATM   37  C   UNL     1       3.340  30.471  54.286  1.00  0.00     0.213 C 
ENDBRANCH  34  36
ENDBRANCH  10  34
TORSDOF 9
ENDMDL
MODEL 6
REMARK VINA RESULT:      -7.9      3.455      5.119
REMARK  9 active torsions:
REMARK  status: ('A' for Active; 'I' for Inactive)
REMARK    1  A    between atoms: C_6  and  C_7 
REMARK    2  A    between atoms: C_7  and  C_8 
REMARK       I    between atoms: C_8  and  N_9 
REMARK    3  A    between atoms: N_9  and  C_10 
REMARK    4  A    between atoms: C_10  and  C_11 
REMARK    5  A    between atoms: C_11  and  N_12 
REMARK    6  A    between atoms: C_20  and  C_21 
REMARK    7  A    between atoms: C_24  and  C_25 
REMARK    8  A    between atoms: C_32  and  C_33 
REMARK    9  A    between atoms: C_33  and  O_34 
ROOT
HETATM    1  C   UNL     1       4.619  25.374  57.576  1.00  0.00     0.071 C 
HETATM    2  C   UNL     1       5.378  25.535  56.283  1.00  0.00     0.048 C 
HETATM    3  N   UNL     1       4.800  24.855  55.215  1.00  0.00    -0.229 NA
HETATM    4  C   UNL     1       5.183  25.196  54.031  1.00  0.00     0.170 C 
HETATM    5  N   UNL     1       6.266  26.274  53.792  1.00  0.00    -0.319 N 
HETATM    6  C   UNL     1       5.967  26.978  52.755  1.00  0.00     0.011 C 
HETATM    7  C   UNL     1       7.298  26.225  54.853  1.00  0.00     0.166 C 
HETATM    8  S   UNL     1       4.390  24.765  52.563  1.00  0.00    -0.086 SA
HETATM    9  C   UNL     1       5.011  26.297  51.784  1.00  0.00     0.135 C 
HETATM   10  C   UNL     1       6.526  26.247  56.150  1.00  0.00     0.069 C 
ENDROOT
BRANCH   6  11
HETATM   11  C   UNL     1       6.452  28.392  52.594  1.00  0.00     0.156 C 
BRANCH  11  12
HETATM   12  C   UNL     1       5.386  29.343  53.123  1.00  0.00     0.223 C 
HETATM   13  N   UNL     1       5.382  29.583  54.471  1.00  0.00    -0.359 N 
HETATM   14  H   UNL     1       6.198  29.336  55.026  1.00  0.00     0.162 HD
HETATM   15  O   UNL     1       4.476  29.731  52.394  1.00  0.00    -0.273 OA
BRANCH  13  16
HETATM   16  C   UNL     1       4.199  30.017  55.236  1.00  0.00     0.150 C 
BRANCH  16  17
HETATM   17  C   UNL     1       3.910  31.538  55.342  1.00  0.00     0.254 C 
BRANCH  17  18
HETATM   18  N   UNL     1       3.870  32.040  56.771  1.00  0.00    -0.070 N 
HETATM   19  H   UNL     1       2.943  32.497  56.881  1.00  0.00     0.279 HD
HETATM   20  C   UNL     1       3.955  30.963  57.827  1.00  0.00     0.235 C 
HETATM   21  C   UNL     1       3.656  31.576  59.189  1.00  0.00     0.028 C 
HETATM   22  C   UNL     1       4.592  32.737  59.504  1.00  0.00     0.003 C 
HETATM   23  C   UNL     1       4.606  33.766  58.379  1.00  0.00     0.028 C 
HETATM   24  C   UNL     1       4.890  33.129  57.026  1.00  0.00     0.235 C 
ENDBRANCH  17  18
ENDBRANCH  16  17
ENDBRANCH  13  16
ENDBRANCH  11  12
ENDBRANCH   6  11
BRANCH   7  25
HETATM   25  C   UNL     1       8.108  24.928  54.623  1.00  0.00    -0.030 C 
HETATM   26  C   UNL     1       8.184  24.354  53.337  1.00  0.00     0.010 C 
HETATM   27  C   UNL     1       8.536  23.010  53.177  1.00  0.00     0.008 C 
HETATM   28  C   UNL     1       8.868  22.221  54.284  1.00  0.00    -0.055 C 
HETATM   29  C   UNL     1       8.986  22.845  55.530  1.00  0.00     0.008 C 
HETATM   30  C   UNL     1       8.628  24.184  55.695  1.00  0.00     0.010 C 
BRANCH  28  31
HETATM   31  C   UNL     1       9.010  20.715  54.137  1.00  0.00     0.010 C 
HETATM   32  C   UNL     1       8.420  19.942  55.315  1.00  0.00     0.015 C 
HETATM   33  C   UNL     1       8.377  20.254  52.816  1.00  0.00     0.015 C 
ENDBRANCH  28  31
ENDBRANCH   7  25
BRANCH  10  34
HETATM   34  C   UNL     1       7.139  27.114  57.175  1.00  0.00     0.293 C 
HETATM   35  O   UNL     1       7.930  26.682  57.995  1.00  0.00    -0.259 OA
BRANCH  34  36
HETATM   36  O   UNL     1       6.884  28.413  56.903  1.00  0.00    -0.323 OA
HETATM   37  C   UNL     1       7.489  29.335  57.818  1.00  0.00     0.213 C 
ENDBRANCH  34  36
ENDBRANCH  10  34
TORSDOF 9
ENDMDL
MODEL 7
REMARK VINA RESULT:      -7.8      3.933      9.520
REMARK  9 active torsions:
REMARK  status: ('A' for Active; 'I' for Inactive)
REMARK    1  A    between atoms: C_6  and  C_7 
REMARK    2  A    between atoms: C_7  and  C_8 
REMARK       I    between atoms: C_8  and  N_9 
REMARK    3  A    between atoms: N_9  and  C_10 
REMARK    4  A    between atoms: C_10  and  C_11 
REMARK    5  A    between atoms: C_11  and  N_12 
REMARK    6  A    between atoms: C_20  and  C_21 
REMARK    7  A    between atoms: C_24  and  C_25 
REMARK    8  A    between atoms: C_32  and  C_33 
REMARK    9  A    between atoms: C_33  and  O_34 
ROOT
HETATM    1  C   UNL     1       9.809  29.360  55.431  1.00  0.00     0.071 C 
HETATM    2  C   UNL     1       8.376  28.919  55.273  1.00  0.00     0.048 C 
HETATM    3  N   UNL     1       8.046  28.570  53.966  1.00  0.00    -0.229 NA
HETATM    4  C   UNL     1       6.966  27.884  53.800  1.00  0.00     0.170 C 
HETATM    5  N   UNL     1       6.045  27.495  54.981  1.00  0.00    -0.319 N 
HETATM    6  C   UNL     1       5.574  26.310  54.802  1.00  0.00     0.011 C 
HETATM    7  C   UNL     1       6.018  28.570  56.000  1.00  0.00     0.166 C 
HETATM    8  S   UNL     1       6.527  27.047  52.359  1.00  0.00    -0.086 SA
HETATM    9  C   UNL     1       5.587  25.838  53.355  1.00  0.00     0.135 C 
HETATM   10  C   UNL     1       7.469  28.877  56.282  1.00  0.00     0.069 C 
ENDROOT
BRANCH   6  11
HETATM   11  C   UNL     1       5.152  25.446  55.958  1.00  0.00     0.156 C 
BRANCH  11  12
HETATM   12  C   UNL     1       6.364  25.177  56.842  1.00  0.00     0.223 C 
HETATM   13  N   UNL     1       7.469  24.645  56.234  1.00  0.00    -0.359 N 
HETATM   14  H   UNL     1       7.546  24.673  55.220  1.00  0.00     0.162 HD
HETATM   15  O   UNL     1       6.280  25.274  58.063  1.00  0.00    -0.273 OA
BRANCH  13  16
HETATM   16  C   UNL     1       8.503  23.858  56.929  1.00  0.00     0.150 C 
BRANCH  16  17
HETATM   17  C   UNL     1       8.440  22.311  56.830  1.00  0.00     0.254 C 
BRANCH  17  18
HETATM   18  N   UNL     1       8.588  21.795  55.414  1.00  0.00    -0.070 N 
HETATM   19  H   UNL     1       9.502  22.159  55.077  1.00  0.00     0.279 HD
HETATM   20  C   UNL     1       8.644  20.290  55.287  1.00  0.00     0.235 C 
HETATM   21  C   UNL     1       9.039  19.925  53.862  1.00  0.00     0.028 C 
HETATM   22  C   UNL     1       8.087  20.534  52.838  1.00  0.00     0.003 C 
HETATM   23  C   UNL     1       7.930  22.036  53.044  1.00  0.00     0.028 C 
HETATM   24  C   UNL     1       7.551  22.378  54.479  1.00  0.00     0.235 C 
ENDBRANCH  17  18
ENDBRANCH  16  17
ENDBRANCH  13  16
ENDBRANCH  11  12
ENDBRANCH   6  11
BRANCH   7  25
HETATM   25  C   UNL     1       5.233  29.748  55.380  1.00  0.00    -0.030 C 
HETATM   26  C   UNL     1       5.295  31.032  55.961  1.00  0.00     0.010 C 
HETATM   27  C   UNL     1       4.306  31.983  55.694  1.00  0.00     0.008 C 
HETATM   28  C   UNL     1       3.262  31.700  54.806  1.00  0.00    -0.055 C 
HETATM   29  C   UNL     1       3.314  30.505  54.083  1.00  0.00     0.008 C 
HETATM   30  C   UNL     1       4.295  29.549  54.352  1.00  0.00     0.010 C 
BRANCH  28  31
HETATM   31  C   UNL     1       2.066  32.634  54.706  1.00  0.00     0.010 C 
HETATM   32  C   UNL     1       2.184  33.854  55.617  1.00  0.00     0.015 C 
HETATM   33  C   UNL     1       1.858  33.065  53.247  1.00  0.00     0.015 C 
ENDBRANCH  28  31
ENDBRANCH   7  25
BRANCH  10  34
HETATM   34  C   UNL     1       7.749  29.087  57.716  1.00  0.00     0.293 C 
HETATM   35  O   UNL     1       8.030  28.164  58.460  1.00  0.00    -0.259 OA
BRANCH  34  36
HETATM   36  O   UNL     1       7.875  30.406  57.979  1.00  0.00    -0.323 OA
HETATM   37  C   UNL     1       8.990  30.734  58.819  1.00  0.00     0.213 C 
ENDBRANCH  34  36
ENDBRANCH  10  34
TORSDOF 9
ENDMDL
MODEL 8
REMARK VINA RESULT:      -7.7      7.277     11.243
REMARK  9 active torsions:
REMARK  status: ('A' for Active; 'I' for Inactive)
REMARK    1  A    between atoms: C_6  and  C_7 
REMARK    2  A    between atoms: C_7  and  C_8 
REMARK       I    between atoms: C_8  and  N_9 
REMARK    3  A    between atoms: N_9  and  C_10 
REMARK    4  A    between atoms: C_10  and  C_11 
REMARK    5  A    between atoms: C_11  and  N_12 
REMARK    6  A    between atoms: C_20  and  C_21 
REMARK    7  A    between atoms: C_24  and  C_25 
REMARK    8  A    between atoms: C_32  and  C_33 
REMARK    9  A    between atoms: C_33  and  O_34 
ROOT
HETATM    1  C   UNL     1       0.216  30.706  49.617  1.00  0.00     0.071 C 
HETATM    2  C   UNL     1       1.680  30.378  49.757  1.00  0.00     0.048 C 
HETATM    3  N   UNL     1       2.190  30.659  51.022  1.00  0.00    -0.229 NA
HETATM    4  C   UNL     1       3.321  30.117  51.328  1.00  0.00     0.170 C 
HETATM    5  N   UNL     1       4.108  29.230  50.333  1.00  0.00    -0.319 N 
HETATM    6  C   UNL     1       4.666  28.253  50.960  1.00  0.00     0.011 C 
HETATM    7  C   UNL     1       3.945  29.726  48.947  1.00  0.00     0.166 C 
HETATM    8  S   UNL     1       3.985  30.023  52.915  1.00  0.00    -0.086 SA
HETATM    9  C   UNL     1       4.862  28.489  52.451  1.00  0.00     0.135 C 
HETATM   10  C   UNL     1       2.454  29.878  48.760  1.00  0.00     0.069 C 
ENDROOT
BRANCH   6  11
HETATM   11  C   UNL     1       4.990  26.956  50.271  1.00  0.00     0.156 C 
BRANCH  11  12
HETATM   12  C   UNL     1       5.494  25.959  51.306  1.00  0.00     0.223 C 
HETATM   13  N   UNL     1       6.841  25.941  51.546  1.00  0.00    -0.359 N 
HETATM   14  H   UNL     1       7.416  26.720  51.234  1.00  0.00     0.162 HD
HETATM   15  O   UNL     1       4.743  25.103  51.767  1.00  0.00    -0.273 OA
BRANCH  13  16
HETATM   16  C   UNL     1       7.577  24.780  52.076  1.00  0.00     0.150 C 
BRANCH  16  17
HETATM   17  C   UNL     1       7.520  24.508  53.603  1.00  0.00     0.254 C 
BRANCH  17  18
HETATM   18  N   UNL     1       7.501  23.033  53.947  1.00  0.00    -0.070 N 
HETATM   19  H   UNL     1       6.496  22.768  53.985  1.00  0.00     0.279 HD
HETATM   20  C   UNL     1       8.152  22.132  52.925  1.00  0.00     0.235 C 
HETATM   21  C   UNL     1       7.844  20.681  53.271  1.00  0.00     0.028 C 
HETATM   22  C   UNL     1       8.291  20.330  54.686  1.00  0.00     0.003 C 
HETATM   23  C   UNL     1       7.737  21.315  55.709  1.00  0.00     0.028 C 
HETATM   24  C   UNL     1       8.042  22.759  55.333  1.00  0.00     0.235 C 
ENDBRANCH  17  18
ENDBRANCH  16  17
ENDBRANCH  13  16
ENDBRANCH  11  12
ENDBRANCH   6  11
BRANCH   7  25
HETATM   25  C   UNL     1       4.732  31.053  48.856  1.00  0.00    -0.030 C 
HETATM   26  C   UNL     1       4.353  32.044  47.926  1.00  0.00     0.010 C 
HETATM   27  C   UNL     1       5.259  33.035  47.534  1.00  0.00     0.008 C 
HETATM   28  C   UNL     1       6.540  33.095  48.093  1.00  0.00    -0.055 C 
HETATM   29  C   UNL     1       6.840  32.237  49.156  1.00  0.00     0.008 C 
HETATM   30  C   UNL     1       5.942  31.241  49.544  1.00  0.00     0.010 C 
BRANCH  28  31
HETATM   31  C   UNL     1       7.596  34.011  47.495  1.00  0.00     0.010 C 
HETATM   32  C   UNL     1       7.613  33.985  45.968  1.00  0.00     0.015 C 
HETATM   33  C   UNL     1       7.399  35.445  48.009  1.00  0.00     0.015 C 
ENDBRANCH  28  31
ENDBRANCH   7  25
BRANCH  10  34
HETATM   34  C   UNL     1       1.986  29.416  47.440  1.00  0.00     0.293 C 
HETATM   35  O   UNL     1       1.659  30.195  46.562  1.00  0.00    -0.259 OA
BRANCH  34  36
HETATM   36  O   UNL     1       2.208  28.090  47.303  1.00  0.00    -0.323 OA
HETATM   37  C   UNL     1       1.199  27.260  47.894  1.00  0.00     0.213 C 
ENDBRANCH  34  36
ENDBRANCH  10  34
TORSDOF 9
ENDMDL
MODEL 9
REMARK VINA RESULT:      -7.2      3.087      9.703
REMARK  9 active torsions:
REMARK  status: ('A' for Active; 'I' for Inactive)
REMARK    1  A    between atoms: C_6  and  C_7 
REMARK    2  A    between atoms: C_7  and  C_8 
REMARK       I    between atoms: C_8  and  N_9 
REMARK    3  A    between atoms: N_9  and  C_10 
REMARK    4  A    between atoms: C_10  and  C_11 
REMARK    5  A    between atoms: C_11  and  N_12 
REMARK    6  A    between atoms: C_20  and  C_21 
REMARK    7  A    between atoms: C_24  and  C_25 
REMARK    8  A    between atoms: C_32  and  C_33 
REMARK    9  A    between atoms: C_33  and  O_34 
ROOT
HETATM    1  C   UNL     1      10.436  31.437  58.229  1.00  0.00     0.071 C 
HETATM    2  C   UNL     1       9.187  30.730  57.770  1.00  0.00     0.048 C 
HETATM    3  N   UNL     1       9.229  30.348  56.432  1.00  0.00    -0.229 NA
HETATM    4  C   UNL     1       8.366  29.468  56.049  1.00  0.00     0.170 C 
HETATM    5  N   UNL     1       7.298  28.888  57.007  1.00  0.00    -0.319 N 
HETATM    6  C   UNL     1       7.116  27.637  56.759  1.00  0.00     0.011 C 
HETATM    7  C   UNL     1       6.839  29.919  57.966  1.00  0.00     0.166 C 
HETATM    8  S   UNL     1       8.427  28.589  54.569  1.00  0.00    -0.086 SA
HETATM    9  C   UNL     1       7.540  27.202  55.362  1.00  0.00     0.135 C 
HETATM   10  C   UNL     1       8.104  30.496  58.554  1.00  0.00     0.069 C 
ENDROOT
BRANCH   6  11
HETATM   11  C   UNL     1       6.622  26.687  57.814  1.00  0.00     0.156 C 
BRANCH  11  12
HETATM   12  C   UNL     1       6.967  25.263  57.397  1.00  0.00     0.223 C 
HETATM   13  N   UNL     1       8.224  24.814  57.704  1.00  0.00    -0.359 N 
HETATM   14  H   UNL     1       8.783  25.319  58.387  1.00  0.00     0.162 HD
HETATM   15  O   UNL     1       6.210  24.623  56.672  1.00  0.00    -0.273 OA
BRANCH  13  16
HETATM   16  C   UNL     1       8.921  23.734  56.982  1.00  0.00     0.150 C 
BRANCH  16  17
HETATM   17  C   UNL     1       8.288  22.317  56.989  1.00  0.00     0.254 C 
BRANCH  17  18
HETATM   18  N   UNL     1       8.110  21.735  55.602  1.00  0.00    -0.070 N 
HETATM   19  H   UNL     1       7.155  21.325  55.592  1.00  0.00     0.279 HD
HETATM   20  C   UNL     1       8.165  22.743  54.477  1.00  0.00     0.235 C 
HETATM   21  C   UNL     1       7.728  22.069  53.183  1.00  0.00     0.028 C 
HETATM   22  C   UNL     1       8.576  20.841  52.871  1.00  0.00     0.003 C 
HETATM   23  C   UNL     1       8.626  19.880  54.053  1.00  0.00     0.028 C 
HETATM   24  C   UNL     1       9.049  20.579  55.339  1.00  0.00     0.235 C 
ENDBRANCH  17  18
ENDBRANCH  16  17
ENDBRANCH  13  16
ENDBRANCH  11  12
ENDBRANCH   6  11
BRANCH   7  25
HETATM   25  C   UNL     1       5.999  30.934  57.158  1.00  0.00    -0.030 C 
HETATM   26  C   UNL     1       5.733  32.216  57.680  1.00  0.00     0.010 C 
HETATM   27  C   UNL     1       4.667  32.977  57.192  1.00  0.00     0.008 C 
HETATM   28  C   UNL     1       3.873  32.504  56.140  1.00  0.00    -0.055 C 
HETATM   29  C   UNL     1       4.262  31.327  55.495  1.00  0.00     0.008 C 
HETATM   30  C   UNL     1       5.321  30.560  55.985  1.00  0.00     0.010 C 
BRANCH  28  31
HETATM   31  C   UNL     1       2.579  33.214  55.778  1.00  0.00     0.010 C 
HETATM   32  C   UNL     1       2.724  34.734  55.731  1.00  0.00     0.015 C 
HETATM   33  C   UNL     1       2.043  32.681  54.440  1.00  0.00     0.015 C 
ENDBRANCH  28  31
ENDBRANCH   7  25
BRANCH  10  34
HETATM   34  C   UNL     1       8.013  30.729  60.009  1.00  0.00     0.293 C 
HETATM   35  O   UNL     1       7.155  31.445  60.494  1.00  0.00    -0.259 OA
BRANCH  34  36
HETATM   36  O   UNL     1       8.826  29.877  60.671  1.00  0.00    -0.323 OA
HETATM   37  C   UNL     1       9.356  30.401  61.896  1.00  0.00     0.213 C 
ENDBRANCH  34  36
ENDBRANCH  10  34
TORSDOF 9
ENDMDL
MODEL 10
REMARK VINA RESULT:      -7.1      4.323      8.767
REMARK  9 active torsions:
REMARK  status: ('A' for Active; 'I' for Inactive)
REMARK    1  A    between atoms: C_6  and  C_7 
REMARK    2  A    between atoms: C_7  and  C_8 
REMARK       I    between atoms: C_8  and  N_9 
REMARK    3  A    between atoms: N_9  and  C_10 
REMARK    4  A    between atoms: C_10  and  C_11 
REMARK    5  A    between atoms: C_11  and  N_12 
REMARK    6  A    between atoms: C_20  and  C_21 
REMARK    7  A    between atoms: C_24  and  C_25 
REMARK    8  A    between atoms: C_32  and  C_33 
REMARK    9  A    between atoms: C_33  and  O_34 
ROOT
HETATM    1  C   UNL     1       9.131  29.009  54.707  1.00  0.00     0.071 C 
HETATM    2  C   UNL     1       7.863  28.297  54.309  1.00  0.00     0.048 C 
HETATM    3  N   UNL     1       8.038  27.407  53.253  1.00  0.00    -0.229 NA
HETATM    4  C   UNL     1       7.106  26.533  53.067  1.00  0.00     0.170 C 
HETATM    5  N   UNL     1       5.829  26.490  53.938  1.00  0.00    -0.319 N 
HETATM    6  C   UNL     1       5.481  25.268  54.151  1.00  0.00     0.011 C 
HETATM    7  C   UNL     1       5.410  27.857  54.324  1.00  0.00     0.166 C 
HETATM    8  S   UNL     1       7.238  25.132  52.074  1.00  0.00    -0.086 SA
HETATM    9  C   UNL     1       6.028  24.271  53.138  1.00  0.00     0.135 C 
HETATM   10  C   UNL     1       6.654  28.500  54.890  1.00  0.00     0.069 C 
ENDROOT
BRANCH   6  11
HETATM   11  C   UNL     1       4.688  24.873  55.366  1.00  0.00     0.156 C 
BRANCH  11  12
HETATM   12  C   UNL     1       5.503  25.191  56.613  1.00  0.00     0.223 C 
HETATM   13  N   UNL     1       6.860  25.292  56.458  1.00  0.00    -0.359 N 
HETATM   14  H   UNL     1       7.251  25.397  55.525  1.00  0.00     0.162 HD
HETATM   15  O   UNL     1       4.977  25.183  57.722  1.00  0.00    -0.273 OA
BRANCH  13  16
HETATM   16  C   UNL     1       7.839  25.079  57.538  1.00  0.00     0.150 C 
BRANCH  16  17
HETATM   17  C   UNL     1       8.864  23.924  57.386  1.00  0.00     0.254 C 
BRANCH  17  18
HETATM   18  N   UNL     1       8.417  22.853  56.412  1.00  0.00    -0.070 N 
HETATM   19  H   UNL     1       7.429  23.078  56.183  1.00  0.00     0.279 HD
HETATM   20  C   UNL     1       9.174  22.827  55.105  1.00  0.00     0.235 C 
HETATM   21  C   UNL     1       8.468  21.883  54.140  1.00  0.00     0.028 C 
HETATM   22  C   UNL     1       8.320  20.483  54.725  1.00  0.00     0.003 C 
HETATM   23  C   UNL     1       7.671  20.518  56.104  1.00  0.00     0.028 C 
HETATM   24  C   UNL     1       8.383  21.480  57.045  1.00  0.00     0.235 C 
ENDBRANCH  17  18
ENDBRANCH  16  17
ENDBRANCH  13  16
ENDBRANCH  11  12
ENDBRANCH   6  11
BRANCH   7  25
HETATM   25  C   UNL     1       4.877  28.535  53.041  1.00  0.00    -0.030 C 
HETATM   26  C   UNL     1       4.028  27.831  52.162  1.00  0.00     0.010 C 
HETATM   27  C   UNL     1       3.877  28.244  50.835  1.00  0.00     0.008 C 
HETATM   28  C   UNL     1       4.523  29.393  50.365  1.00  0.00    -0.055 C 
HETATM   29  C   UNL     1       5.199  30.196  51.288  1.00  0.00     0.008 C 
HETATM   30  C   UNL     1       5.360  29.783  52.611  1.00  0.00     0.010 C 
BRANCH  28  31
HETATM   31  C   UNL     1       4.554  29.700  48.877  1.00  0.00     0.010 C 
HETATM   32  C   UNL     1       5.180  31.057  48.560  1.00  0.00     0.015 C 
HETATM   33  C   UNL     1       5.284  28.578  48.123  1.00  0.00     0.015 C 
ENDBRANCH  28  31
ENDBRANCH   7  25
BRANCH  10  34
HETATM   34  C   UNL     1       6.389  29.306  56.098  1.00  0.00     0.293 C 
HETATM   35  O   UNL     1       5.863  30.404  56.039  1.00  0.00    -0.259 OA
BRANCH  34  36
HETATM   36  O   UNL     1       6.588  28.563  57.209  1.00  0.00    -0.323 OA
HETATM   37  C   UNL     1       7.564  29.101  58.111  1.00  0.00     0.213 C 
ENDBRANCH  34  36
ENDBRANCH  10  34
TORSDOF 9
ENDMDL
