MODEL 1
REMARK VINA RESULT:     -10.3      0.000      0.000
REMARK  9 active torsions:
REMARK  status: ('A' for Active; 'I' for Inactive)
REMARK    1  A    between atoms: C_4  and  C_5 
REMARK    2  A    between atoms: C_13  and  C_14 
REMARK    3  A    between atoms: C_14  and  N_15 
REMARK    4  A    between atoms: C_19  and  C_20 
REMARK       I    between atoms: C_20  and  N_21 
REMARK    5  A    between atoms: N_21  and  C_22 
REMARK    6  A    between atoms: C_22  and  C_23 
REMARK    7  A    between atoms: C_23  and  C_24 
REMARK    8  A    between atoms: C_24  and  N_25 
REMARK    9  A    between atoms: N_29  and  C_30 
ROOT
HETATM    1  N   UNL     1       7.294  27.326  56.864  1.00  0.00    -0.066 N 
HETATM    2  H   UNL     1       6.861  27.530  57.778  1.00  0.00     0.280 HD
HETATM    3  C   UNL     1       6.174  26.934  55.934  1.00  0.00     0.236 C 
HETATM    4  C   UNL     1       5.596  25.578  56.334  1.00  0.00     0.042 C 
HETATM    5  C   UNL     1       6.667  24.487  56.368  1.00  0.00     0.081 C 
HETATM    6  C   UNL     1       7.794  24.905  57.312  1.00  0.00     0.042 C 
HETATM    7  C   UNL     1       8.369  26.285  57.025  1.00  0.00     0.236 C 
ENDROOT
BRANCH   5   8
HETATM    8  C   UNL     1       7.154  24.228  54.943  1.00  0.00     0.221 C 
HETATM    9  N   UNL     1       6.181  24.320  53.975  1.00  0.00    -0.361 N 
HETATM   10  H   UNL     1       5.222  24.505  54.256  1.00  0.00     0.162 HD
HETATM   11  O   UNL     1       8.344  24.077  54.677  1.00  0.00    -0.273 OA
BRANCH   9  12
HETATM   12  C   UNL     1       6.505  24.454  52.565  1.00  0.00     0.124 C 
BRANCH  12  13
HETATM   13  C   UNL     1       6.590  25.904  52.073  1.00  0.00     0.047 C 
BRANCH  13  14
HETATM   14  C   UNL     1       5.252  26.326  51.469  1.00  0.00     0.236 C 
BRANCH  14  15
HETATM   15  N   UNL     1       5.372  26.686  50.005  1.00  0.00    -0.068 N 
HETATM   16  H   UNL     1       6.272  26.340  49.645  1.00  0.00     0.280 HD
HETATM   17  C   UNL     1       4.272  25.971  49.189  1.00  0.00     0.254 C 
HETATM   18  C   UNL     1       4.344  26.348  47.694  1.00  0.00     0.150 C 
HETATM   19  N   UNL     1       4.332  27.808  47.507  1.00  0.00    -0.378 N 
HETATM   20  C   UNL     1       5.410  28.507  48.232  1.00  0.00     0.150 C 
HETATM   21  C   UNL     1       5.326  28.203  49.744  1.00  0.00     0.254 C 
BRANCH  19  22
HETATM   22  C   UNL     1       3.132  28.501  47.327  1.00  0.00     0.031 A 
HETATM   23  C   UNL     1       1.930  27.881  46.954  1.00  0.00     0.053 A 
HETATM   24  C   UNL     1       0.747  28.616  46.795  1.00  0.00     0.036 A 
HETATM   25 CL   UNL     1      -0.707  27.792  46.381  1.00  0.00    -0.084 Cl
HETATM   26  C   UNL     1       0.732  29.991  46.980  1.00  0.00     0.024 A 
HETATM   27  C   UNL     1       1.915  30.638  47.316  1.00  0.00     0.004 A 
HETATM   28  C   UNL     1       3.093  29.900  47.482  1.00  0.00     0.029 A 
ENDBRANCH  19  22
ENDBRANCH  14  15
ENDBRANCH  13  14
ENDBRANCH  12  13
ENDBRANCH   9  12
ENDBRANCH   5   8
BRANCH   1  29
HETATM   29  C   UNL     1       7.936  28.649  56.453  1.00  0.00     0.296 C 
BRANCH  29  30
HETATM   30  C   UNL     1       8.435  29.483  57.573  1.00  0.00     0.092 A 
HETATM   31  C   UNL     1       9.715  29.937  57.801  1.00  0.00     0.078 A 
HETATM   32  C   UNL     1      11.012  29.809  57.110  1.00  0.00     0.079 C 
HETATM   33  O   UNL     1       9.694  30.673  58.946  1.00  0.00    -0.294 OA
HETATM   34  C   UNL     1       8.394  30.624  59.376  1.00  0.00     0.180 A 
HETATM   35  N   UNL     1       7.598  29.921  58.582  1.00  0.00    -0.224 NA
BRANCH  34  36
HETATM   36  C   UNL     1       8.089  31.358  60.602  1.00  0.00     0.017 A 
HETATM   37  C   UNL     1       8.750  31.077  61.811  1.00  0.00     0.017 A 
HETATM   38  C   UNL     1       8.454  31.794  62.974  1.00  0.00     0.025 A 
HETATM   39  C   UNL     1       7.492  32.800  62.940  1.00  0.00     0.034 A 
HETATM   40 CL   UNL     1       7.129  33.685  64.367  1.00  0.00    -0.084 Cl
HETATM   41  C   UNL     1       6.825  33.093  61.753  1.00  0.00     0.025 A 
HETATM   42  C   UNL     1       7.123  32.374  60.589  1.00  0.00     0.017 A 
ENDBRANCH  34  36
ENDBRANCH  29  30
ENDBRANCH   1  29
TORSDOF 9
ENDMDL
MODEL 2
REMARK VINA RESULT:     -10.2      4.252      6.774
REMARK  9 active torsions:
REMARK  status: ('A' for Active; 'I' for Inactive)
REMARK    1  A    between atoms: C_4  and  C_5 
REMARK    2  A    between atoms: C_13  and  C_14 
REMARK    3  A    between atoms: C_14  and  N_15 
REMARK    4  A    between atoms: C_19  and  C_20 
REMARK       I    between atoms: C_20  and  N_21 
REMARK    5  A    between atoms: N_21  and  C_22 
REMARK    6  A    between atoms: C_22  and  C_23 
REMARK    7  A    between atoms: C_23  and  C_24 
REMARK    8  A    between atoms: C_24  and  N_25 
REMARK    9  A    between atoms: N_29  and  C_30 
ROOT
HETATM    1  N   UNL     1       5.882  30.389  58.108  1.00  0.00    -0.066 N 
HETATM    2  H   UNL     1       5.708  30.097  59.083  1.00  0.00     0.280 HD
HETATM    3  C   UNL     1       4.708  31.242  57.697  1.00  0.00     0.236 C 
HETATM    4  C   UNL     1       3.448  30.389  57.564  1.00  0.00     0.042 C 
HETATM    5  C   UNL     1       3.639  29.235  56.579  1.00  0.00     0.081 C 
HETATM    6  C   UNL     1       4.835  28.386  57.011  1.00  0.00     0.042 C 
HETATM    7  C   UNL     1       6.113  29.181  57.242  1.00  0.00     0.236 C 
ENDROOT
BRANCH   5   8
HETATM    8  C   UNL     1       3.798  29.808  55.172  1.00  0.00     0.221 C 
HETATM    9  N   UNL     1       3.955  28.867  54.180  1.00  0.00    -0.361 N 
HETATM   10  H   UNL     1       3.998  27.884  54.436  1.00  0.00     0.162 HD
HETATM   11  O   UNL     1       3.668  31.007  54.935  1.00  0.00    -0.273 OA
BRANCH   9  12
HETATM   12  C   UNL     1       3.771  29.188  52.776  1.00  0.00     0.124 C 
BRANCH  12  13
HETATM   13  C   UNL     1       4.346  28.146  51.809  1.00  0.00     0.047 C 
BRANCH  13  14
HETATM   14  C   UNL     1       4.539  26.816  52.537  1.00  0.00     0.236 C 
BRANCH  14  15
HETATM   15  N   UNL     1       6.000  26.506  52.783  1.00  0.00    -0.068 N 
HETATM   16  H   UNL     1       6.557  27.355  52.616  1.00  0.00     0.280 HD
HETATM   17  C   UNL     1       6.219  26.124  54.264  1.00  0.00     0.254 C 
HETATM   18  C   UNL     1       7.695  25.765  54.540  1.00  0.00     0.150 C 
HETATM   19  N   UNL     1       8.180  24.733  53.609  1.00  0.00    -0.378 N 
HETATM   20  C   UNL     1       8.033  25.101  52.188  1.00  0.00     0.150 C 
HETATM   21  C   UNL     1       6.553  25.403  51.862  1.00  0.00     0.254 C 
BRANCH  19  22
HETATM   22  C   UNL     1       8.090  23.375  53.928  1.00  0.00     0.031 A 
HETATM   23  C   UNL     1       8.217  22.878  55.234  1.00  0.00     0.053 A 
HETATM   24  C   UNL     1       8.109  21.508  55.508  1.00  0.00     0.036 A 
HETATM   25 CL   UNL     1       8.228  20.963  57.137  1.00  0.00    -0.084 Cl
HETATM   26  C   UNL     1       7.896  20.591  54.488  1.00  0.00     0.024 A 
HETATM   27  C   UNL     1       7.801  21.051  53.180  1.00  0.00     0.004 A 
HETATM   28  C   UNL     1       7.900  22.421  52.911  1.00  0.00     0.029 A 
ENDBRANCH  19  22
ENDBRANCH  14  15
ENDBRANCH  13  14
ENDBRANCH  12  13
ENDBRANCH   9  12
ENDBRANCH   5   8
BRANCH   1  29
HETATM   29  C   UNL     1       7.172  31.202  58.189  1.00  0.00     0.296 C 
BRANCH  29  30
HETATM   30  C   UNL     1       7.515  31.710  59.539  1.00  0.00     0.092 A 
HETATM   31  C   UNL     1       8.758  31.990  60.062  1.00  0.00     0.078 A 
HETATM   32  C   UNL     1      10.145  31.915  59.565  1.00  0.00     0.079 C 
HETATM   33  O   UNL     1       8.580  32.441  61.333  1.00  0.00    -0.294 OA
HETATM   34  C   UNL     1       7.225  32.404  61.536  1.00  0.00     0.180 A 
HETATM   35  N   UNL     1       6.542  31.973  60.486  1.00  0.00    -0.224 NA
BRANCH  34  36
HETATM   36  C   UNL     1       6.754  32.860  62.842  1.00  0.00     0.017 A 
HETATM   37  C   UNL     1       5.394  33.121  63.082  1.00  0.00     0.017 A 
HETATM   38  C   UNL     1       4.956  33.548  64.339  1.00  0.00     0.025 A 
HETATM   39  C   UNL     1       5.876  33.719  65.370  1.00  0.00     0.034 A 
HETATM   40 CL   UNL     1       5.340  34.241  66.917  1.00  0.00    -0.084 Cl
HETATM   41  C   UNL     1       7.228  33.467  65.153  1.00  0.00     0.025 A 
HETATM   42  C   UNL     1       7.665  33.040  63.893  1.00  0.00     0.017 A 
ENDBRANCH  34  36
ENDBRANCH  29  30
ENDBRANCH   1  29
TORSDOF 9
ENDMDL
MODEL 3
REMARK VINA RESULT:     -10.0      1.684      2.086
REMARK  9 active torsions:
REMARK  status: ('A' for Active; 'I' for Inactive)
REMARK    1  A    between atoms: C_4  and  C_5 
REMARK    2  A    between atoms: C_13  and  C_14 
REMARK    3  A    between atoms: C_14  and  N_15 
REMARK    4  A    between atoms: C_19  and  C_20 
REMARK       I    between atoms: C_20  and  N_21 
REMARK    5  A    between atoms: N_21  and  C_22 
REMARK    6  A    between atoms: C_22  and  C_23 
REMARK    7  A    between atoms: C_23  and  C_24 
REMARK    8  A    between atoms: C_24  and  N_25 
REMARK    9  A    between atoms: N_29  and  C_30 
ROOT
HETATM    1  N   UNL     1       7.167  27.576  57.062  1.00  0.00    -0.066 N 
HETATM    2  H   UNL     1       7.054  27.680  58.083  1.00  0.00     0.280 HD
HETATM    3  C   UNL     1       5.779  27.571  56.473  1.00  0.00     0.236 C 
HETATM    4  C   UNL     1       5.041  26.289  56.853  1.00  0.00     0.042 C 
HETATM    5  C   UNL     1       5.807  25.038  56.422  1.00  0.00     0.081 C 
HETATM    6  C   UNL     1       7.211  25.064  57.026  1.00  0.00     0.042 C 
HETATM    7  C   UNL     1       7.982  26.349  56.757  1.00  0.00     0.236 C 
ENDROOT
BRANCH   5   8
HETATM    8  C   UNL     1       5.821  24.968  54.896  1.00  0.00     0.221 C 
HETATM    9  N   UNL     1       4.854  25.726  54.275  1.00  0.00    -0.361 N 
HETATM   10  H   UNL     1       4.184  26.234  54.846  1.00  0.00     0.162 HD
HETATM   11  O   UNL     1       6.706  24.383  54.277  1.00  0.00    -0.273 OA
BRANCH   9  12
HETATM   12  C   UNL     1       4.925  26.061  52.863  1.00  0.00     0.124 C 
BRANCH  12  13
HETATM   13  C   UNL     1       5.814  27.270  52.547  1.00  0.00     0.047 C 
BRANCH  13  14
HETATM   14  C   UNL     1       5.173  28.543  53.097  1.00  0.00     0.236 C 
BRANCH  14  15
HETATM   15  N   UNL     1       4.558  29.392  52.006  1.00  0.00    -0.068 N 
HETATM   16  H   UNL     1       4.704  30.386  52.230  1.00  0.00     0.280 HD
HETATM   17  C   UNL     1       5.280  29.137  50.663  1.00  0.00     0.254 C 
HETATM   18  C   UNL     1       4.652  29.961  49.520  1.00  0.00     0.150 C 
HETATM   19  N   UNL     1       3.198  29.742  49.435  1.00  0.00    -0.378 N 
HETATM   20  C   UNL     1       2.481  30.035  50.690  1.00  0.00     0.150 C 
HETATM   21  C   UNL     1       3.043  29.175  51.843  1.00  0.00     0.254 C 
BRANCH  19  22
HETATM   22  C   UNL     1       2.668  28.740  48.616  1.00  0.00     0.031 A 
HETATM   23  C   UNL     1       3.059  27.395  48.689  1.00  0.00     0.053 A 
HETATM   24  C   UNL     1       2.492  26.423  47.854  1.00  0.00     0.036 A 
HETATM   25 CL   UNL     1       2.979  24.780  48.023  1.00  0.00    -0.084 Cl
HETATM   26  C   UNL     1       1.538  26.766  46.907  1.00  0.00     0.024 A 
HETATM   27  C   UNL     1       1.156  28.097  46.788  1.00  0.00     0.004 A 
HETATM   28  C   UNL     1       1.718  29.063  47.629  1.00  0.00     0.029 A 
ENDBRANCH  19  22
ENDBRANCH  14  15
ENDBRANCH  13  14
ENDBRANCH  12  13
ENDBRANCH   9  12
ENDBRANCH   5   8
BRANCH   1  29
HETATM   29  C   UNL     1       7.955  28.817  56.648  1.00  0.00     0.296 C 
BRANCH  29  30
HETATM   30  C   UNL     1       8.413  29.676  57.766  1.00  0.00     0.092 A 
HETATM   31  C   UNL     1       9.681  30.148  58.023  1.00  0.00     0.078 A 
HETATM   32  C   UNL     1      10.999  30.021  57.372  1.00  0.00     0.079 C 
HETATM   33  O   UNL     1       9.619  30.904  59.153  1.00  0.00    -0.294 OA
HETATM   34  C   UNL     1       8.308  30.848  59.546  1.00  0.00     0.180 A 
HETATM   35  N   UNL     1       7.542  30.123  58.743  1.00  0.00    -0.224 NA
BRANCH  34  36
HETATM   36  C   UNL     1       7.961  31.602  60.749  1.00  0.00     0.017 A 
HETATM   37  C   UNL     1       8.753  31.540  61.909  1.00  0.00     0.017 A 
HETATM   38  C   UNL     1       8.412  32.273  63.050  1.00  0.00     0.025 A 
HETATM   39  C   UNL     1       7.275  33.075  63.042  1.00  0.00     0.034 A 
HETATM   40 CL   UNL     1       6.856  33.980  64.442  1.00  0.00    -0.084 Cl
HETATM   41  C   UNL     1       6.476  33.148  61.904  1.00  0.00     0.025 A 
HETATM   42  C   UNL     1       6.818  32.414  60.763  1.00  0.00     0.017 A 
ENDBRANCH  34  36
ENDBRANCH  29  30
ENDBRANCH   1  29
TORSDOF 9
ENDMDL
MODEL 4
REMARK VINA RESULT:     -10.0      5.916     12.238
REMARK  9 active torsions:
REMARK  status: ('A' for Active; 'I' for Inactive)
REMARK    1  A    between atoms: C_4  and  C_5 
REMARK    2  A    between atoms: C_13  and  C_14 
REMARK    3  A    between atoms: C_14  and  N_15 
REMARK    4  A    between atoms: C_19  and  C_20 
REMARK       I    between atoms: C_20  and  N_21 
REMARK    5  A    between atoms: N_21  and  C_22 
REMARK    6  A    between atoms: C_22  and  C_23 
REMARK    7  A    between atoms: C_23  and  C_24 
REMARK    8  A    between atoms: C_24  and  N_25 
REMARK    9  A    between atoms: N_29  and  C_30 
ROOT
HETATM    1  N   UNL     1       5.866  30.921  58.332  1.00  0.00    -0.066 N 
HETATM    2  H   UNL     1       5.439  30.009  58.558  1.00  0.00     0.280 HD
HETATM    3  C   UNL     1       5.241  31.931  59.261  1.00  0.00     0.236 C 
HETATM    4  C   UNL     1       3.774  32.156  58.899  1.00  0.00     0.042 C 
HETATM    5  C   UNL     1       3.605  32.594  57.444  1.00  0.00     0.081 C 
HETATM    6  C   UNL     1       4.247  31.560  56.519  1.00  0.00     0.042 C 
HETATM    7  C   UNL     1       5.690  31.223  56.868  1.00  0.00     0.236 C 
ENDROOT
BRANCH   5   8
HETATM    8  C   UNL     1       4.202  33.991  57.275  1.00  0.00     0.221 C 
HETATM    9  N   UNL     1       3.589  34.974  58.018  1.00  0.00    -0.361 N 
HETATM   10  H   UNL     1       2.778  34.732  58.580  1.00  0.00     0.162 HD
HETATM   11  O   UNL     1       5.226  34.189  56.627  1.00  0.00    -0.273 OA
BRANCH   9  12
HETATM   12  C   UNL     1       4.216  36.262  58.260  1.00  0.00     0.124 C 
BRANCH  12  13
HETATM   13  C   UNL     1       4.095  36.761  59.704  1.00  0.00     0.047 C 
BRANCH  13  14
HETATM   14  C   UNL     1       2.670  36.543  60.210  1.00  0.00     0.236 C 
BRANCH  14  15
HETATM   15  N   UNL     1       2.641  35.976  61.613  1.00  0.00    -0.068 N 
HETATM   16  H   UNL     1       1.724  36.172  62.037  1.00  0.00     0.280 HD
HETATM   17  C   UNL     1       2.779  34.437  61.566  1.00  0.00     0.254 C 
HETATM   18  C   UNL     1       2.791  33.830  62.985  1.00  0.00     0.150 C 
HETATM   19  N   UNL     1       3.811  34.468  63.834  1.00  0.00    -0.378 N 
HETATM   20  C   UNL     1       3.664  35.932  63.939  1.00  0.00     0.150 C 
HETATM   21  C   UNL     1       3.714  36.578  62.537  1.00  0.00     0.254 C 
BRANCH  19  22
HETATM   22  C   UNL     1       5.107  33.950  63.914  1.00  0.00     0.031 A 
HETATM   23  C   UNL     1       5.590  32.942  63.068  1.00  0.00     0.053 A 
HETATM   24  C   UNL     1       6.902  32.460  63.178  1.00  0.00     0.036 A 
HETATM   25 CL   UNL     1       7.452  31.254  62.079  1.00  0.00    -0.084 Cl
HETATM   26  C   UNL     1       7.762  32.952  64.150  1.00  0.00     0.024 A 
HETATM   27  C   UNL     1       7.300  33.927  65.026  1.00  0.00     0.004 A 
HETATM   28  C   UNL     1       5.992  34.412  64.907  1.00  0.00     0.029 A 
ENDBRANCH  19  22
ENDBRANCH  14  15
ENDBRANCH  13  14
ENDBRANCH  12  13
ENDBRANCH   9  12
ENDBRANCH   5   8
BRANCH   1  29
HETATM   29  C   UNL     1       7.350  30.721  58.628  1.00  0.00     0.296 C 
BRANCH  29  30
HETATM   30  C   UNL     1       7.967  29.534  57.986  1.00  0.00     0.092 A 
HETATM   31  C   UNL     1       9.232  29.403  57.459  1.00  0.00     0.078 A 
HETATM   32  C   UNL     1      10.404  30.287  57.314  1.00  0.00     0.079 C 
HETATM   33  O   UNL     1       9.354  28.132  56.988  1.00  0.00    -0.294 OA
HETATM   34  C   UNL     1       8.143  27.543  57.238  1.00  0.00     0.180 A 
HETATM   35  N   UNL     1       7.276  28.345  57.840  1.00  0.00    -0.224 NA
BRANCH  34  36
HETATM   36  C   UNL     1       8.007  26.145  56.836  1.00  0.00     0.017 A 
HETATM   37  C   UNL     1       8.706  25.119  57.496  1.00  0.00     0.017 A 
HETATM   38  C   UNL     1       8.561  23.785  57.106  1.00  0.00     0.025 A 
HETATM   39  C   UNL     1       7.713  23.463  56.049  1.00  0.00     0.034 A 
HETATM   40 CL   UNL     1       7.529  21.823  55.569  1.00  0.00    -0.084 Cl
HETATM   41  C   UNL     1       7.013  24.464  55.381  1.00  0.00     0.025 A 
HETATM   42  C   UNL     1       7.161  25.799  55.773  1.00  0.00     0.017 A 
ENDBRANCH  34  36
ENDBRANCH  29  30
ENDBRANCH   1  29
TORSDOF 9
ENDMDL
MODEL 5
REMARK VINA RESULT:     -10.0      1.848      2.470
REMARK  9 active torsions:
REMARK  status: ('A' for Active; 'I' for Inactive)
REMARK    1  A    between atoms: C_4  and  C_5 
REMARK    2  A    between atoms: C_13  and  C_14 
REMARK    3  A    between atoms: C_14  and  N_15 
REMARK    4  A    between atoms: C_19  and  C_20 
REMARK       I    between atoms: C_20  and  N_21 
REMARK    5  A    between atoms: N_21  and  C_22 
REMARK    6  A    between atoms: C_22  and  C_23 
REMARK    7  A    between atoms: C_23  and  C_24 
REMARK    8  A    between atoms: C_24  and  N_25 
REMARK    9  A    between atoms: N_29  and  C_30 
ROOT
HETATM    1  N   UNL     1       7.234  27.345  57.062  1.00  0.00    -0.066 N 
HETATM    2  H   UNL     1       6.886  27.493  58.022  1.00  0.00     0.280 HD
HETATM    3  C   UNL     1       6.060  26.870  56.244  1.00  0.00     0.236 C 
HETATM    4  C   UNL     1       5.651  25.460  56.665  1.00  0.00     0.042 C 
HETATM    5  C   UNL     1       6.811  24.471  56.554  1.00  0.00     0.081 C 
HETATM    6  C   UNL     1       7.992  24.972  57.386  1.00  0.00     0.042 C 
HETATM    7  C   UNL     1       8.408  26.404  57.079  1.00  0.00     0.236 C 
ENDROOT
BRANCH   5   8
HETATM    8  C   UNL     1       7.163  24.285  55.079  1.00  0.00     0.221 C 
HETATM    9  N   UNL     1       6.086  24.300  54.223  1.00  0.00    -0.361 N 
HETATM   10  H   UNL     1       5.151  24.387  54.609  1.00  0.00     0.162 HD
HETATM   11  O   UNL     1       8.326  24.253  54.684  1.00  0.00    -0.273 OA
BRANCH   9  12
HETATM   12  C   UNL     1       6.242  24.488  52.791  1.00  0.00     0.124 C 
BRANCH  12  13
HETATM   13  C   UNL     1       4.994  25.033  52.087  1.00  0.00     0.047 C 
BRANCH  13  14
HETATM   14  C   UNL     1       5.404  26.023  50.997  1.00  0.00     0.236 C 
BRANCH  14  15
HETATM   15  N   UNL     1       4.223  26.794  50.450  1.00  0.00    -0.068 N 
HETATM   16  H   UNL     1       3.352  26.348  50.770  1.00  0.00     0.280 HD
HETATM   17  C   UNL     1       4.213  28.229  51.023  1.00  0.00     0.254 C 
HETATM   18  C   UNL     1       3.040  29.055  50.454  1.00  0.00     0.150 C 
HETATM   19  N   UNL     1       3.029  29.030  48.982  1.00  0.00    -0.378 N 
HETATM   20  C   UNL     1       2.980  27.669  48.413  1.00  0.00     0.150 C 
HETATM   21  C   UNL     1       4.181  26.835  48.912  1.00  0.00     0.254 C 
BRANCH  19  22
HETATM   22  C   UNL     1       3.698  30.007  48.240  1.00  0.00     0.031 A 
HETATM   23  C   UNL     1       4.516  30.990  48.817  1.00  0.00     0.053 A 
HETATM   24  C   UNL     1       5.177  31.944  48.031  1.00  0.00     0.036 A 
HETATM   25 CL   UNL     1       6.204  33.097  48.793  1.00  0.00    -0.084 Cl
HETATM   26  C   UNL     1       5.022  31.963  46.653  1.00  0.00     0.024 A 
HETATM   27  C   UNL     1       4.190  31.023  46.056  1.00  0.00     0.004 A 
HETATM   28  C   UNL     1       3.539  30.066  46.843  1.00  0.00     0.029 A 
ENDBRANCH  19  22
ENDBRANCH  14  15
ENDBRANCH  13  14
ENDBRANCH  12  13
ENDBRANCH   9  12
ENDBRANCH   5   8
BRANCH   1  29
HETATM   29  C   UNL     1       7.709  28.729  56.623  1.00  0.00     0.296 C 
BRANCH  29  30
HETATM   30  C   UNL     1       8.252  29.583  57.707  1.00  0.00     0.092 A 
HETATM   31  C   UNL     1       9.535  30.056  57.865  1.00  0.00     0.078 A 
HETATM   32  C   UNL     1      10.798  29.936  57.112  1.00  0.00     0.079 C 
HETATM   33  O   UNL     1       9.562  30.806  59.001  1.00  0.00    -0.294 OA
HETATM   34  C   UNL     1       8.286  30.745  59.496  1.00  0.00     0.180 A 
HETATM   35  N   UNL     1       7.460  30.023  58.752  1.00  0.00    -0.224 NA
BRANCH  34  36
HETATM   36  C   UNL     1       8.033  31.490  60.727  1.00  0.00     0.017 A 
HETATM   37  C   UNL     1       7.186  32.612  60.746  1.00  0.00     0.017 A 
HETATM   38  C   UNL     1       6.947  33.311  61.933  1.00  0.00     0.025 A 
HETATM   39  C   UNL     1       7.553  32.894  63.115  1.00  0.00     0.034 A 
HETATM   40 CL   UNL     1       7.258  33.748  64.576  1.00  0.00    -0.084 Cl
HETATM   41  C   UNL     1       8.397  31.786  63.118  1.00  0.00     0.025 A 
HETATM   42  C   UNL     1       8.635  31.088  61.928  1.00  0.00     0.017 A 
ENDBRANCH  34  36
ENDBRANCH  29  30
ENDBRANCH   1  29
TORSDOF 9
ENDMDL
MODEL 6
REMARK VINA RESULT:      -9.8      5.339      8.239
REMARK  9 active torsions:
REMARK  status: ('A' for Active; 'I' for Inactive)
REMARK    1  A    between atoms: C_4  and  C_5 
REMARK    2  A    between atoms: C_13  and  C_14 
REMARK    3  A    between atoms: C_14  and  N_15 
REMARK    4  A    between atoms: C_19  and  C_20 
REMARK       I    between atoms: C_20  and  N_21 
REMARK    5  A    between atoms: N_21  and  C_22 
REMARK    6  A    between atoms: C_22  and  C_23 
REMARK    7  A    between atoms: C_23  and  C_24 
REMARK    8  A    between atoms: C_24  and  N_25 
REMARK    9  A    between atoms: N_29  and  C_30 
ROOT
HETATM    1  N   UNL     1       3.286  33.160  58.665  1.00  0.00    -0.066 N 
HETATM    2  H   UNL     1       2.256  33.198  58.714  1.00  0.00     0.280 HD
HETATM    3  C   UNL     1       3.647  33.147  57.201  1.00  0.00     0.236 C 
HETATM    4  C   UNL     1       3.239  31.822  56.561  1.00  0.00     0.042 C 
HETATM    5  C   UNL     1       3.865  30.623  57.275  1.00  0.00     0.081 C 
HETATM    6  C   UNL     1       3.490  30.657  58.757  1.00  0.00     0.042 C 
HETATM    7  C   UNL     1       3.795  31.979  59.447  1.00  0.00     0.236 C 
ENDROOT
BRANCH   5   8
HETATM    8  C   UNL     1       5.376  30.646  57.047  1.00  0.00     0.221 C 
HETATM    9  N   UNL     1       6.133  30.594  58.195  1.00  0.00    -0.361 N 
HETATM   10  H   UNL     1       5.664  30.588  59.095  1.00  0.00     0.162 HD
HETATM   11  O   UNL     1       5.868  30.588  55.923  1.00  0.00    -0.273 OA
BRANCH   9  12
HETATM   12  C   UNL     1       7.547  30.258  58.171  1.00  0.00     0.124 C 
BRANCH  12  13
HETATM   13  C   UNL     1       7.836  28.753  58.149  1.00  0.00     0.047 C 
BRANCH  13  14
HETATM   14  C   UNL     1       8.179  28.312  56.727  1.00  0.00     0.236 C 
BRANCH  14  15
HETATM   15  N   UNL     1       7.090  27.460  56.113  1.00  0.00    -0.068 N 
HETATM   16  H   UNL     1       6.204  27.985  56.127  1.00  0.00     0.280 HD
HETATM   17  C   UNL     1       7.407  27.181  54.627  1.00  0.00     0.254 C 
HETATM   18  C   UNL     1       6.332  26.281  53.980  1.00  0.00     0.150 C 
HETATM   19  N   UNL     1       6.123  25.049  54.759  1.00  0.00    -0.378 N 
HETATM   20  C   UNL     1       5.762  25.294  56.169  1.00  0.00     0.150 C 
HETATM   21  C   UNL     1       6.853  26.137  56.864  1.00  0.00     0.254 C 
BRANCH  19  22
HETATM   22  C   UNL     1       6.850  23.889  54.479  1.00  0.00     0.031 A 
HETATM   23  C   UNL     1       7.206  22.946  55.455  1.00  0.00     0.053 A 
HETATM   24  C   UNL     1       7.927  21.790  55.126  1.00  0.00     0.036 A 
HETATM   25 CL   UNL     1       8.294  20.647  56.360  1.00  0.00    -0.084 Cl
HETATM   26  C   UNL     1       8.335  21.552  53.821  1.00  0.00     0.024 A 
HETATM   27  C   UNL     1       8.028  22.486  52.839  1.00  0.00     0.004 A 
HETATM   28  C   UNL     1       7.299  23.634  53.170  1.00  0.00     0.029 A 
ENDBRANCH  19  22
ENDBRANCH  14  15
ENDBRANCH  13  14
ENDBRANCH  12  13
ENDBRANCH   9  12
ENDBRANCH   5   8
BRANCH   1  29
HETATM   29  C   UNL     1       3.738  34.447  59.350  1.00  0.00     0.296 C 
BRANCH  29  30
HETATM   30  C   UNL     1       3.543  34.482  60.820  1.00  0.00     0.092 A 
HETATM   31  C   UNL     1       2.367  34.595  61.527  1.00  0.00     0.078 A 
HETATM   32  C   UNL     1       0.939  34.717  61.175  1.00  0.00     0.079 C 
HETATM   33  O   UNL     1       2.678  34.574  62.852  1.00  0.00    -0.294 OA
HETATM   34  C   UNL     1       4.043  34.463  62.894  1.00  0.00     0.180 A 
HETATM   35  N   UNL     1       4.609  34.402  61.697  1.00  0.00    -0.224 NA
BRANCH  34  36
HETATM   36  C   UNL     1       4.647  34.404  64.223  1.00  0.00     0.017 A 
HETATM   37  C   UNL     1       3.897  34.664  65.384  1.00  0.00     0.017 A 
HETATM   38  C   UNL     1       4.486  34.596  66.650  1.00  0.00     0.025 A 
HETATM   39  C   UNL     1       5.833  34.267  66.768  1.00  0.00     0.034 A 
HETATM   40 CL   UNL     1       6.559  34.179  68.323  1.00  0.00    -0.084 Cl
HETATM   41  C   UNL     1       6.595  34.008  65.631  1.00  0.00     0.025 A 
HETATM   42  C   UNL     1       6.003  34.077  64.364  1.00  0.00     0.017 A 
ENDBRANCH  34  36
ENDBRANCH  29  30
ENDBRANCH   1  29
TORSDOF 9
ENDMDL
MODEL 7
REMARK VINA RESULT:      -9.6      2.046      2.918
REMARK  9 active torsions:
REMARK  status: ('A' for Active; 'I' for Inactive)
REMARK    1  A    between atoms: C_4  and  C_5 
REMARK    2  A    between atoms: C_13  and  C_14 
REMARK    3  A    between atoms: C_14  and  N_15 
REMARK    4  A    between atoms: C_19  and  C_20 
REMARK       I    between atoms: C_20  and  N_21 
REMARK    5  A    between atoms: N_21  and  C_22 
REMARK    6  A    between atoms: C_22  and  C_23 
REMARK    7  A    between atoms: C_23  and  C_24 
REMARK    8  A    between atoms: C_24  and  N_25 
REMARK    9  A    between atoms: N_29  and  C_30 
ROOT
HETATM    1  N   UNL     1       6.650  29.766  58.053  1.00  0.00    -0.066 N 
HETATM    2  H   UNL     1       6.544  29.411  59.016  1.00  0.00     0.280 HD
HETATM    3  C   UNL     1       5.420  29.335  57.296  1.00  0.00     0.236 C 
HETATM    4  C   UNL     1       5.422  27.821  57.090  1.00  0.00     0.042 C 
HETATM    5  C   UNL     1       6.684  27.343  56.372  1.00  0.00     0.081 C 
HETATM    6  C   UNL     1       7.919  27.794  57.152  1.00  0.00     0.042 C 
HETATM    7  C   UNL     1       7.949  29.283  57.467  1.00  0.00     0.236 C 
ENDROOT
BRANCH   5   8
HETATM    8  C   UNL     1       6.666  27.870  54.937  1.00  0.00     0.221 C 
HETATM    9  N   UNL     1       5.424  27.888  54.345  1.00  0.00    -0.361 N 
HETATM   10  H   UNL     1       4.628  27.523  54.859  1.00  0.00     0.162 HD
HETATM   11  O   UNL     1       7.663  28.356  54.407  1.00  0.00    -0.273 OA
BRANCH   9  12
HETATM   12  C   UNL     1       5.153  28.662  53.146  1.00  0.00     0.124 C 
BRANCH  12  13
HETATM   13  C   UNL     1       4.585  27.842  51.982  1.00  0.00     0.047 C 
BRANCH  13  14
HETATM   14  C   UNL     1       5.708  27.066  51.297  1.00  0.00     0.236 C 
BRANCH  14  15
HETATM   15  N   UNL     1       5.504  26.964  49.801  1.00  0.00    -0.068 N 
HETATM   16  H   UNL     1       6.315  26.487  49.382  1.00  0.00     0.280 HD
HETATM   17  C   UNL     1       4.273  26.082  49.491  1.00  0.00     0.254 C 
HETATM   18  C   UNL     1       4.015  25.989  47.973  1.00  0.00     0.150 C 
HETATM   19  N   UNL     1       3.928  27.324  47.359  1.00  0.00    -0.378 N 
HETATM   20  C   UNL     1       5.119  28.163  47.594  1.00  0.00     0.150 C 
HETATM   21  C   UNL     1       5.366  28.332  49.109  1.00  0.00     0.254 C 
BRANCH  19  22
HETATM   22  C   UNL     1       2.700  27.981  47.235  1.00  0.00     0.031 A 
HETATM   23  C   UNL     1       2.528  29.351  47.479  1.00  0.00     0.053 A 
HETATM   24  C   UNL     1       1.279  29.969  47.332  1.00  0.00     0.036 A 
HETATM   25 CL   UNL     1       1.141  31.664  47.600  1.00  0.00    -0.084 Cl
HETATM   26  C   UNL     1       0.161  29.236  46.961  1.00  0.00     0.024 A 
HETATM   27  C   UNL     1       0.292  27.870  46.747  1.00  0.00     0.004 A 
HETATM   28  C   UNL     1       1.544  27.257  46.886  1.00  0.00     0.029 A 
ENDBRANCH  19  22
ENDBRANCH  14  15
ENDBRANCH  13  14
ENDBRANCH  12  13
ENDBRANCH   9  12
ENDBRANCH   5   8
BRANCH   1  29
HETATM   29  C   UNL     1       6.710  31.283  58.221  1.00  0.00     0.296 C 
BRANCH  29  30
HETATM   30  C   UNL     1       7.162  31.753  59.553  1.00  0.00     0.092 A 
HETATM   31  C   UNL     1       8.448  31.975  59.994  1.00  0.00     0.078 A 
HETATM   32  C   UNL     1       9.795  31.856  59.404  1.00  0.00     0.079 C 
HETATM   33  O   UNL     1       8.373  32.409  61.282  1.00  0.00    -0.294 OA
HETATM   34  C   UNL     1       7.035  32.420  61.576  1.00  0.00     0.180 A 
HETATM   35  N   UNL     1       6.266  32.035  60.567  1.00  0.00    -0.224 NA
BRANCH  34  36
HETATM   36  C   UNL     1       6.671  32.869  62.918  1.00  0.00     0.017 A 
HETATM   37  C   UNL     1       5.328  32.939  63.330  1.00  0.00     0.017 A 
HETATM   38  C   UNL     1       4.995  33.363  64.620  1.00  0.00     0.025 A 
HETATM   39  C   UNL     1       6.002  33.721  65.512  1.00  0.00     0.034 A 
HETATM   40 CL   UNL     1       5.596  34.238  67.099  1.00  0.00    -0.084 Cl
HETATM   41  C   UNL     1       7.338  33.661  65.123  1.00  0.00     0.025 A 
HETATM   42  C   UNL     1       7.670  33.237  63.830  1.00  0.00     0.017 A 
ENDBRANCH  34  36
ENDBRANCH  29  30
ENDBRANCH   1  29
TORSDOF 9
ENDMDL
MODEL 8
REMARK VINA RESULT:      -9.6      4.518      9.683
REMARK  9 active torsions:
REMARK  status: ('A' for Active; 'I' for Inactive)
REMARK    1  A    between atoms: C_4  and  C_5 
REMARK    2  A    between atoms: C_13  and  C_14 
REMARK    3  A    between atoms: C_14  and  N_15 
REMARK    4  A    between atoms: C_19  and  C_20 
REMARK       I    between atoms: C_20  and  N_21 
REMARK    5  A    between atoms: N_21  and  C_22 
REMARK    6  A    between atoms: C_22  and  C_23 
REMARK    7  A    between atoms: C_23  and  C_24 
REMARK    8  A    between atoms: C_24  and  N_25 
REMARK    9  A    between atoms: N_29  and  C_30 
ROOT
HETATM    1  N   UNL     1       4.022  27.801  51.724  1.00  0.00    -0.066 N 
HETATM    2  H   UNL     1       3.424  27.034  51.380  1.00  0.00     0.280 HD
HETATM    3  C   UNL     1       3.242  29.077  51.530  1.00  0.00     0.236 C 
HETATM    4  C   UNL     1       3.111  29.404  50.044  1.00  0.00     0.042 C 
HETATM    5  C   UNL     1       4.474  29.504  49.358  1.00  0.00     0.081 C 
HETATM    6  C   UNL     1       5.250  28.204  49.569  1.00  0.00     0.042 C 
HETATM    7  C   UNL     1       5.354  27.769  51.024  1.00  0.00     0.236 C 
ENDROOT
BRANCH   5   8
HETATM    8  C   UNL     1       5.211  30.728  49.900  1.00  0.00     0.221 C 
HETATM    9  N   UNL     1       4.413  31.640  50.551  1.00  0.00    -0.361 N 
HETATM   10  H   UNL     1       3.412  31.476  50.595  1.00  0.00     0.162 HD
HETATM   11  O   UNL     1       6.436  30.821  49.865  1.00  0.00    -0.273 OA
BRANCH   9  12
HETATM   12  C   UNL     1       4.965  32.666  51.419  1.00  0.00     0.124 C 
BRANCH  12  13
HETATM   13  C   UNL     1       3.976  33.217  52.453  1.00  0.00     0.047 C 
BRANCH  13  14
HETATM   14  C   UNL     1       3.255  32.062  53.147  1.00  0.00     0.236 C 
BRANCH  14  15
HETATM   15  N   UNL     1       3.427  32.101  54.650  1.00  0.00    -0.068 N 
HETATM   16  H   UNL     1       2.831  32.844  55.038  1.00  0.00     0.280 HD
HETATM   17  C   UNL     1       2.935  30.776  55.275  1.00  0.00     0.254 C 
HETATM   18  C   UNL     1       3.133  30.769  56.806  1.00  0.00     0.150 C 
HETATM   19  N   UNL     1       4.523  31.088  57.170  1.00  0.00    -0.378 N 
HETATM   20  C   UNL     1       4.995  32.378  56.630  1.00  0.00     0.150 C 
HETATM   21  C   UNL     1       4.873  32.393  55.091  1.00  0.00     0.254 C 
BRANCH  19  22
HETATM   22  C   UNL     1       5.476  30.078  57.332  1.00  0.00     0.031 A 
HETATM   23  C   UNL     1       5.189  28.714  57.177  1.00  0.00     0.053 A 
HETATM   24  C   UNL     1       6.180  27.736  57.339  1.00  0.00     0.036 A 
HETATM   25 CL   UNL     1       5.778  26.081  57.090  1.00  0.00    -0.084 Cl
HETATM   26  C   UNL     1       7.478  28.086  57.684  1.00  0.00     0.024 A 
HETATM   27  C   UNL     1       7.784  29.428  57.879  1.00  0.00     0.004 A 
HETATM   28  C   UNL     1       6.793  30.403  57.707  1.00  0.00     0.029 A 
ENDBRANCH  19  22
ENDBRANCH  14  15
ENDBRANCH  13  14
ENDBRANCH  12  13
ENDBRANCH   9  12
ENDBRANCH   5   8
BRANCH   1  29
HETATM   29  C   UNL     1       4.226  27.479  53.203  1.00  0.00     0.296 C 
BRANCH  29  30
HETATM   30  C   UNL     1       5.426  26.665  53.512  1.00  0.00     0.092 A 
HETATM   31  C   UNL     1       6.703  27.093  53.799  1.00  0.00     0.078 A 
HETATM   32  C   UNL     1       7.369  28.405  53.913  1.00  0.00     0.079 C 
HETATM   33  O   UNL     1       7.467  25.990  54.024  1.00  0.00    -0.294 OA
HETATM   34  C   UNL     1       6.619  24.928  53.850  1.00  0.00     0.180 A 
HETATM   35  N   UNL     1       5.380  25.283  53.542  1.00  0.00    -0.224 NA
BRANCH  34  36
HETATM   36  C   UNL     1       7.194  23.600  54.050  1.00  0.00     0.017 A 
HETATM   37  C   UNL     1       7.673  22.836  52.972  1.00  0.00     0.017 A 
HETATM   38  C   UNL     1       8.228  21.569  53.180  1.00  0.00     0.025 A 
HETATM   39  C   UNL     1       8.309  21.054  54.470  1.00  0.00     0.034 A 
HETATM   40 CL   UNL     1       8.994  19.500  54.730  1.00  0.00    -0.084 Cl
HETATM   41  C   UNL     1       7.839  21.794  55.552  1.00  0.00     0.025 A 
HETATM   42  C   UNL     1       7.283  23.062  55.342  1.00  0.00     0.017 A 
ENDBRANCH  34  36
ENDBRANCH  29  30
ENDBRANCH   1  29
TORSDOF 9
ENDMDL
MODEL 9
REMARK VINA RESULT:      -9.6      5.069     12.248
REMARK  9 active torsions:
REMARK  status: ('A' for Active; 'I' for Inactive)
REMARK    1  A    between atoms: C_4  and  C_5 
REMARK    2  A    between atoms: C_13  and  C_14 
REMARK    3  A    between atoms: C_14  and  N_15 
REMARK    4  A    between atoms: C_19  and  C_20 
REMARK       I    between atoms: C_20  and  N_21 
REMARK    5  A    between atoms: N_21  and  C_22 
REMARK    6  A    between atoms: C_22  and  C_23 
REMARK    7  A    between atoms: C_23  and  C_24 
REMARK    8  A    between atoms: C_24  and  N_25 
REMARK    9  A    between atoms: N_29  and  C_30 
ROOT
HETATM    1  N   UNL     1       5.218  29.665  55.811  1.00  0.00    -0.066 N 
HETATM    2  H   UNL     1       4.707  28.770  55.861  1.00  0.00     0.280 HD
HETATM    3  C   UNL     1       5.331  30.178  57.225  1.00  0.00     0.236 C 
HETATM    4  C   UNL     1       3.963  30.610  57.748  1.00  0.00     0.042 C 
HETATM    5  C   UNL     1       3.313  31.663  56.850  1.00  0.00     0.081 C 
HETATM    6  C   UNL     1       3.212  31.126  55.422  1.00  0.00     0.042 C 
HETATM    7  C   UNL     1       4.524  30.601  54.858  1.00  0.00     0.236 C 
ENDROOT
BRANCH   5   8
HETATM    8  C   UNL     1       4.122  32.956  56.939  1.00  0.00     0.221 C 
HETATM    9  N   UNL     1       3.368  34.106  56.983  1.00  0.00    -0.361 N 
HETATM   10  H   UNL     1       2.357  34.036  56.912  1.00  0.00     0.162 HD
HETATM   11  O   UNL     1       5.342  32.955  57.088  1.00  0.00    -0.273 OA
BRANCH   9  12
HETATM   12  C   UNL     1       3.925  35.377  57.413  1.00  0.00     0.124 C 
BRANCH  12  13
HETATM   13  C   UNL     1       4.018  35.542  58.934  1.00  0.00     0.047 C 
BRANCH  13  14
HETATM   14  C   UNL     1       2.627  35.428  59.555  1.00  0.00     0.236 C 
BRANCH  14  15
HETATM   15  N   UNL     1       2.590  34.440  60.700  1.00  0.00    -0.068 N 
HETATM   16  H   UNL     1       1.637  34.063  60.790  1.00  0.00     0.280 HD
HETATM   17  C   UNL     1       3.507  33.235  60.392  1.00  0.00     0.254 C 
HETATM   18  C   UNL     1       3.522  32.225  61.559  1.00  0.00     0.150 C 
HETATM   19  N   UNL     1       3.854  32.881  62.834  1.00  0.00    -0.378 N 
HETATM   20  C   UNL     1       2.955  34.000  63.176  1.00  0.00     0.150 C 
HETATM   21  C   UNL     1       2.969  35.063  62.056  1.00  0.00     0.254 C 
BRANCH  19  22
HETATM   22  C   UNL     1       5.178  32.970  63.274  1.00  0.00     0.031 A 
HETATM   23  C   UNL     1       6.268  32.463  62.552  1.00  0.00     0.053 A 
HETATM   24  C   UNL     1       7.581  32.584  63.028  1.00  0.00     0.036 A 
HETATM   25 CL   UNL     1       8.882  31.982  62.074  1.00  0.00    -0.084 Cl
HETATM   26  C   UNL     1       7.843  33.191  64.248  1.00  0.00     0.024 A 
HETATM   27  C   UNL     1       6.780  33.673  65.002  1.00  0.00     0.004 A 
HETATM   28  C   UNL     1       5.471  33.558  64.519  1.00  0.00     0.029 A 
ENDBRANCH  19  22
ENDBRANCH  14  15
ENDBRANCH  13  14
ENDBRANCH  12  13
ENDBRANCH   9  12
ENDBRANCH   5   8
BRANCH   1  29
HETATM   29  C   UNL     1       6.580  29.284  55.235  1.00  0.00     0.296 C 
BRANCH  29  30
HETATM   30  C   UNL     1       7.002  27.884  55.487  1.00  0.00     0.092 A 
HETATM   31  C   UNL     1       7.455  27.321  56.659  1.00  0.00     0.078 A 
HETATM   32  C   UNL     1       7.695  27.808  58.032  1.00  0.00     0.079 C 
HETATM   33  O   UNL     1       7.713  26.008  56.414  1.00  0.00    -0.294 OA
HETATM   34  C   UNL     1       7.417  25.829  55.089  1.00  0.00     0.180 A 
HETATM   35  N   UNL     1       6.984  26.928  54.488  1.00  0.00    -0.224 NA
BRANCH  34  36
HETATM   36  C   UNL     1       7.598  24.478  54.562  1.00  0.00     0.017 A 
HETATM   37  C   UNL     1       7.743  23.370  55.415  1.00  0.00     0.017 A 
HETATM   38  C   UNL     1       7.907  22.082  54.896  1.00  0.00     0.025 A 
HETATM   39  C   UNL     1       7.927  21.890  53.517  1.00  0.00     0.034 A 
HETATM   40 CL   UNL     1       8.123  20.307  52.877  1.00  0.00    -0.084 Cl
HETATM   41  C   UNL     1       7.785  22.974  52.655  1.00  0.00     0.025 A 
HETATM   42  C   UNL     1       7.623  24.263  53.176  1.00  0.00     0.017 A 
ENDBRANCH  34  36
ENDBRANCH  29  30
ENDBRANCH   1  29
TORSDOF 9
ENDMDL
MODEL 10
REMARK VINA RESULT:      -9.6      2.570     12.442
REMARK  9 active torsions:
REMARK  status: ('A' for Active; 'I' for Inactive)
REMARK    1  A    between atoms: C_4  and  C_5 
REMARK    2  A    between atoms: C_13  and  C_14 
REMARK    3  A    between atoms: C_14  and  N_15 
REMARK    4  A    between atoms: C_19  and  C_20 
REMARK       I    between atoms: C_20  and  N_21 
REMARK    5  A    between atoms: N_21  and  C_22 
REMARK    6  A    between atoms: C_22  and  C_23 
REMARK    7  A    between atoms: C_23  and  C_24 
REMARK    8  A    between atoms: C_24  and  N_25 
REMARK    9  A    between atoms: N_29  and  C_30 
ROOT
HETATM    1  N   UNL     1       6.320  27.732  54.463  1.00  0.00    -0.066 N 
HETATM    2  H   UNL     1       5.929  26.788  54.319  1.00  0.00     0.280 HD
HETATM    3  C   UNL     1       7.589  27.557  55.258  1.00  0.00     0.236 C 
HETATM    4  C   UNL     1       7.271  27.114  56.684  1.00  0.00     0.042 C 
HETATM    5  C   UNL     1       6.330  28.091  57.390  1.00  0.00     0.081 C 
HETATM    6  C   UNL     1       5.052  28.257  56.568  1.00  0.00     0.042 C 
HETATM    7  C   UNL     1       5.293  28.622  55.109  1.00  0.00     0.236 C 
ENDROOT
BRANCH   5   8
HETATM    8  C   UNL     1       7.066  29.411  57.614  1.00  0.00     0.221 C 
HETATM    9  N   UNL     1       8.251  29.301  58.305  1.00  0.00    -0.361 N 
HETATM   10  H   UNL     1       8.537  28.390  58.651  1.00  0.00     0.162 HD
HETATM   11  O   UNL     1       6.688  30.464  57.105  1.00  0.00    -0.273 OA
BRANCH   9  12
HETATM   12  C   UNL     1       9.243  30.363  58.308  1.00  0.00     0.124 C 
BRANCH  12  13
HETATM   13  C   UNL     1       8.980  31.467  59.338  1.00  0.00     0.047 C 
BRANCH  13  14
HETATM   14  C   UNL     1       8.584  30.845  60.676  1.00  0.00     0.236 C 
BRANCH  14  15
HETATM   15  N   UNL     1       7.148  31.146  61.045  1.00  0.00    -0.068 N 
HETATM   16  H   UNL     1       6.592  30.284  60.966  1.00  0.00     0.280 HD
HETATM   17  C   UNL     1       7.060  31.587  62.523  1.00  0.00     0.254 C 
HETATM   18  C   UNL     1       5.611  31.939  62.921  1.00  0.00     0.150 C 
HETATM   19  N   UNL     1       5.023  32.924  61.997  1.00  0.00    -0.378 N 
HETATM   20  C   UNL     1       5.045  32.497  60.585  1.00  0.00     0.150 C 
HETATM   21  C   UNL     1       6.493  32.201  60.135  1.00  0.00     0.254 C 
BRANCH  19  22
HETATM   22  C   UNL     1       5.119  34.295  62.250  1.00  0.00     0.031 A 
HETATM   23  C   UNL     1       4.742  35.280  61.325  1.00  0.00     0.053 A 
HETATM   24  C   UNL     1       4.846  36.645  61.627  1.00  0.00     0.036 A 
HETATM   25 CL   UNL     1       4.324  37.806  60.469  1.00  0.00    -0.084 Cl
HETATM   26  C   UNL     1       5.352  37.068  62.848  1.00  0.00     0.024 A 
HETATM   27  C   UNL     1       5.766  36.115  63.772  1.00  0.00     0.004 A 
HETATM   28  C   UNL     1       5.652  34.753  63.470  1.00  0.00     0.029 A 
ENDBRANCH  19  22
ENDBRANCH  14  15
ENDBRANCH  13  14
ENDBRANCH  12  13
ENDBRANCH   9  12
ENDBRANCH   5   8
BRANCH   1  29
HETATM   29  C   UNL     1       6.601  28.237  53.049  1.00  0.00     0.296 C 
BRANCH  29  30
HETATM   30  C   UNL     1       5.914  27.493  51.965  1.00  0.00     0.092 A 
HETATM   31  C   UNL     1       6.100  26.188  51.568  1.00  0.00     0.078 A 
HETATM   32  C   UNL     1       6.969  25.075  51.997  1.00  0.00     0.079 C 
HETATM   33  O   UNL     1       5.242  25.942  50.542  1.00  0.00    -0.294 OA
HETATM   34  C   UNL     1       4.573  27.122  50.347  1.00  0.00     0.180 A 
HETATM   35  N   UNL     1       4.941  28.085  51.181  1.00  0.00    -0.224 NA
BRANCH  34  36
HETATM   36  C   UNL     1       3.563  27.128  49.292  1.00  0.00     0.017 A 
HETATM   37  C   UNL     1       3.546  26.146  48.286  1.00  0.00     0.017 A 
HETATM   38  C   UNL     1       2.568  26.159  47.286  1.00  0.00     0.025 A 
HETATM   39  C   UNL     1       1.597  27.156  47.283  1.00  0.00     0.034 A 
HETATM   40 CL   UNL     1       0.391  27.173  46.059  1.00  0.00    -0.084 Cl
HETATM   41  C   UNL     1       1.597  28.139  48.270  1.00  0.00     0.025 A 
HETATM   42  C   UNL     1       2.577  28.124  49.269  1.00  0.00     0.017 A 
ENDBRANCH  34  36
ENDBRANCH  29  30
ENDBRANCH   1  29
TORSDOF 9
ENDMDL
