MODEL 1
REMARK VINA RESULT:      -8.6      0.000      0.000
REMARK  6 active torsions:
REMARK  status: ('A' for Active; 'I' for Inactive)
REMARK    1  A    between atoms: C_3  and  C_4 
REMARK    2  A    between atoms: C_4  and  O_5 
REMARK    3  A    between atoms: O_5  and  C_6 
REMARK    4  A    between atoms: C_9  and  C_10 
REMARK    5  A    between atoms: C_15  and  N_16 
REMARK       I    between atoms: N_16  and  C_17 
REMARK       I    between atoms: C_17  and  N_18 
REMARK    6  A    between atoms: N_18  and  C_19 
ROOT
HETATM    1  C   UNL     1       6.848  29.991  57.744  1.00  0.00     0.147 C 
HETATM    2  C   UNL     1       7.873  30.209  58.845  1.00  0.00    -0.016 C 
HETATM    3  N   UNL     1       8.723  30.390  59.758  1.00  0.00    -0.101 N 
ENDROOT
BRANCH   1   4
HETATM    4  C   UNL     1       6.749  28.529  57.378  1.00  0.00    -0.046 A 
HETATM    5  C   UNL     1       5.537  27.990  56.918  1.00  0.00     0.011 A 
HETATM    6  C   UNL     1       5.428  26.625  56.647  1.00  0.00     0.037 A 
HETATM    7  C   UNL     1       6.531  25.795  56.820  1.00  0.00     0.069 A 
HETATM    8  C   UNL     1       7.735  26.308  57.300  1.00  0.00     0.037 A 
HETATM    9  C   UNL     1       7.845  27.674  57.571  1.00  0.00     0.011 A 
BRANCH   7  10
HETATM   10  O   UNL     1       6.367  24.453  56.606  1.00  0.00    -0.347 OA
BRANCH  10  11
HETATM   11  C   UNL     1       7.616  23.757  56.689  1.00  0.00     0.216 C 
BRANCH  11  12
HETATM   12  C   UNL     1       7.802  22.902  55.451  1.00  0.00    -0.007 A 
HETATM   13  C   UNL     1       7.679  21.505  55.569  1.00  0.00     0.011 A 
HETATM   14  C   UNL     1       7.758  20.684  54.445  1.00  0.00     0.001 A 
HETATM   15  C   UNL     1       7.962  21.245  53.188  1.00  0.00     0.002 A 
HETATM   16  C   UNL     1       8.074  22.629  53.052  1.00  0.00     0.030 A 
HETATM   17  C   UNL     1       7.980  23.466  54.171  1.00  0.00     0.044 A 
BRANCH  17  18
HETATM   18  N   UNL     1       8.133  24.861  54.061  1.00  0.00    -0.308 N 
HETATM   19  C   UNL     1       7.489  25.785  53.281  1.00  0.00     0.325 C 
HETATM   20  N   UNL     1       6.260  25.411  52.803  1.00  0.00    -0.306 N 
HETATM   21  O   UNL     1       7.987  26.901  53.152  1.00  0.00    -0.247 OA
HETATM   22  H   UNL     1       5.869  24.548  53.150  1.00  0.00     0.171 HD
HETATM   23  H   UNL     1       8.869  25.276  54.627  1.00  0.00     0.170 HD
BRANCH  20  24
HETATM   24  C   UNL     1       5.416  26.237  52.088  1.00  0.00     0.072 A 
HETATM   25  C   UNL     1       5.221  26.404  50.699  1.00  0.00     0.169 A 
HETATM   26  N   UNL     1       4.305  27.340  50.425  1.00  0.00    -0.185 NA
HETATM   27  N   UNL     1       3.919  27.768  51.636  1.00  0.00    -0.287 N 
HETATM   28  H   UNL     1       3.222  28.504  51.683  1.00  0.00     0.188 HD
HETATM   29  C   UNL     1       4.548  27.131  52.667  1.00  0.00     0.140 A 
ENDBRANCH  20  24
ENDBRANCH  17  18
ENDBRANCH  11  12
ENDBRANCH  10  11
ENDBRANCH   7  10
ENDBRANCH   1   4
TORSDOF 6
ENDMDL
MODEL 2
REMARK VINA RESULT:      -8.4      2.259      6.082
REMARK  6 active torsions:
REMARK  status: ('A' for Active; 'I' for Inactive)
REMARK    1  A    between atoms: C_3  and  C_4 
REMARK    2  A    between atoms: C_4  and  O_5 
REMARK    3  A    between atoms: O_5  and  C_6 
REMARK    4  A    between atoms: C_9  and  C_10 
REMARK    5  A    between atoms: C_15  and  N_16 
REMARK       I    between atoms: N_16  and  C_17 
REMARK       I    between atoms: C_17  and  N_18 
REMARK    6  A    between atoms: N_18  and  C_19 
ROOT
HETATM    1  C   UNL     1       8.460  21.318  53.595  1.00  0.00     0.147 C 
HETATM    2  C   UNL     1       9.016  20.720  54.877  1.00  0.00    -0.016 C 
HETATM    3  N   UNL     1       9.477  20.225  55.940  1.00  0.00    -0.101 N 
ENDROOT
BRANCH   1   4
HETATM    4  C   UNL     1       7.797  22.648  53.860  1.00  0.00    -0.046 A 
HETATM    5  C   UNL     1       7.348  22.977  55.149  1.00  0.00     0.011 A 
HETATM    6  C   UNL     1       6.672  24.177  55.378  1.00  0.00     0.037 A 
HETATM    7  C   UNL     1       6.454  25.060  54.326  1.00  0.00     0.069 A 
HETATM    8  C   UNL     1       6.870  24.740  53.036  1.00  0.00     0.037 A 
HETATM    9  C   UNL     1       7.546  23.540  52.805  1.00  0.00     0.011 A 
BRANCH   7  10
HETATM   10  O   UNL     1       5.732  26.195  54.578  1.00  0.00    -0.347 OA
BRANCH  10  11
HETATM   11  C   UNL     1       5.476  26.347  55.980  1.00  0.00     0.216 C 
BRANCH  11  12
HETATM   12  C   UNL     1       6.137  27.617  56.479  1.00  0.00    -0.007 A 
HETATM   13  C   UNL     1       7.258  27.509  57.322  1.00  0.00     0.011 A 
HETATM   14  C   UNL     1       7.950  28.645  57.740  1.00  0.00     0.001 A 
HETATM   15  C   UNL     1       7.532  29.904  57.322  1.00  0.00     0.002 A 
HETATM   16  C   UNL     1       6.429  30.029  56.476  1.00  0.00     0.030 A 
HETATM   17  C   UNL     1       5.736  28.894  56.037  1.00  0.00     0.044 A 
BRANCH  17  18
HETATM   18  N   UNL     1       4.596  29.000  55.218  1.00  0.00    -0.308 N 
HETATM   19  C   UNL     1       4.462  29.142  53.863  1.00  0.00     0.325 C 
HETATM   20  N   UNL     1       5.540  28.751  53.112  1.00  0.00    -0.306 N 
HETATM   21  O   UNL     1       3.377  29.497  53.408  1.00  0.00    -0.247 OA
HETATM   22  H   UNL     1       6.295  28.282  53.591  1.00  0.00     0.171 HD
HETATM   23  H   UNL     1       3.699  29.008  55.700  1.00  0.00     0.170 HD
BRANCH  20  24
HETATM   24  C   UNL     1       5.562  28.722  51.733  1.00  0.00     0.072 A 
HETATM   25  C   UNL     1       5.613  29.755  50.772  1.00  0.00     0.169 A 
HETATM   26  N   UNL     1       5.597  29.285  49.520  1.00  0.00    -0.185 NA
HETATM   27  N   UNL     1       5.534  27.956  49.683  1.00  0.00    -0.287 N 
HETATM   28  H   UNL     1       5.499  27.373  48.853  1.00  0.00     0.188 HD
HETATM   29  C   UNL     1       5.522  27.565  50.991  1.00  0.00     0.140 A 
ENDBRANCH  20  24
ENDBRANCH  17  18
ENDBRANCH  11  12
ENDBRANCH  10  11
ENDBRANCH   7  10
ENDBRANCH   1   4
TORSDOF 6
ENDMDL
MODEL 3
REMARK VINA RESULT:      -8.3      2.857      7.439
REMARK  6 active torsions:
REMARK  status: ('A' for Active; 'I' for Inactive)
REMARK    1  A    between atoms: C_3  and  C_4 
REMARK    2  A    between atoms: C_4  and  O_5 
REMARK    3  A    between atoms: O_5  and  C_6 
REMARK    4  A    between atoms: C_9  and  C_10 
REMARK    5  A    between atoms: C_15  and  N_16 
REMARK       I    between atoms: N_16  and  C_17 
REMARK       I    between atoms: C_17  and  N_18 
REMARK    6  A    between atoms: N_18  and  C_19 
ROOT
HETATM    1  C   UNL     1       8.324  21.575  53.858  1.00  0.00     0.147 C 
HETATM    2  C   UNL     1       8.700  20.991  55.210  1.00  0.00    -0.016 C 
HETATM    3  N   UNL     1       9.012  20.506  56.330  1.00  0.00    -0.101 N 
ENDROOT
BRANCH   1   4
HETATM    4  C   UNL     1       7.938  23.030  53.985  1.00  0.00    -0.046 A 
HETATM    5  C   UNL     1       7.430  23.530  55.194  1.00  0.00     0.011 A 
HETATM    6  C   UNL     1       7.008  24.857  55.290  1.00  0.00     0.037 A 
HETATM    7  C   UNL     1       7.105  25.695  54.184  1.00  0.00     0.069 A 
HETATM    8  C   UNL     1       7.583  25.210  52.968  1.00  0.00     0.037 A 
HETATM    9  C   UNL     1       8.005  23.882  52.872  1.00  0.00     0.011 A 
BRANCH   7  10
HETATM   10  O   UNL     1       6.621  26.970  54.299  1.00  0.00    -0.347 OA
BRANCH  10  11
HETATM   11  C   UNL     1       5.237  26.969  54.668  1.00  0.00     0.216 C 
BRANCH  11  12
HETATM   12  C   UNL     1       4.804  28.380  55.013  1.00  0.00    -0.007 A 
HETATM   13  C   UNL     1       3.984  29.077  54.107  1.00  0.00     0.011 A 
HETATM   14  C   UNL     1       3.493  30.344  54.417  1.00  0.00     0.001 A 
HETATM   15  C   UNL     1       3.813  30.934  55.636  1.00  0.00     0.002 A 
HETATM   16  C   UNL     1       4.617  30.252  56.551  1.00  0.00     0.030 A 
HETATM   17  C   UNL     1       5.103  28.971  56.258  1.00  0.00     0.044 A 
BRANCH  17  18
HETATM   18  N   UNL     1       5.949  28.284  57.148  1.00  0.00    -0.308 N 
HETATM   19  C   UNL     1       7.300  28.360  57.357  1.00  0.00     0.325 C 
HETATM   20  N   UNL     1       7.905  29.516  56.937  1.00  0.00    -0.306 N 
HETATM   21  O   UNL     1       7.853  27.463  57.989  1.00  0.00    -0.247 OA
HETATM   22  H   UNL     1       7.308  30.265  56.620  1.00  0.00     0.171 HD
HETATM   23  H   UNL     1       5.505  27.576  57.729  1.00  0.00     0.170 HD
BRANCH  20  24
HETATM   24  C   UNL     1       9.234  29.823  57.148  1.00  0.00     0.072 A 
HETATM   25  C   UNL     1      10.415  29.361  56.527  1.00  0.00     0.169 A 
HETATM   26  N   UNL     1      11.515  29.909  57.057  1.00  0.00    -0.185 NA
HETATM   27  N   UNL     1      11.035  30.716  58.015  1.00  0.00    -0.287 N 
HETATM   28  H   UNL     1      11.698  31.241  58.574  1.00  0.00     0.188 HD
HETATM   29  C   UNL     1       9.672  30.709  58.104  1.00  0.00     0.140 A 
ENDBRANCH  20  24
ENDBRANCH  17  18
ENDBRANCH  11  12
ENDBRANCH  10  11
ENDBRANCH   7  10
ENDBRANCH   1   4
TORSDOF 6
ENDMDL
MODEL 4
REMARK VINA RESULT:      -8.1      4.246      7.091
REMARK  6 active torsions:
REMARK  status: ('A' for Active; 'I' for Inactive)
REMARK    1  A    between atoms: C_3  and  C_4 
REMARK    2  A    between atoms: C_4  and  O_5 
REMARK    3  A    between atoms: O_5  and  C_6 
REMARK    4  A    between atoms: C_9  and  C_10 
REMARK    5  A    between atoms: C_15  and  N_16 
REMARK       I    between atoms: N_16  and  C_17 
REMARK       I    between atoms: C_17  and  N_18 
REMARK    6  A    between atoms: N_18  and  C_19 
ROOT
HETATM    1  C   UNL     1       7.153  33.464  65.043  1.00  0.00     0.147 C 
HETATM    2  C   UNL     1       5.681  33.643  65.379  1.00  0.00    -0.016 C 
HETATM    3  N   UNL     1       4.461  33.792  65.657  1.00  0.00    -0.101 N 
ENDROOT
BRANCH   1   4
HETATM    4  C   UNL     1       7.345  33.212  63.567  1.00  0.00    -0.046 A 
HETATM    5  C   UNL     1       6.451  33.753  62.629  1.00  0.00     0.011 A 
HETATM    6  C   UNL     1       6.589  33.462  61.271  1.00  0.00     0.037 A 
HETATM    7  C   UNL     1       7.627  32.642  60.841  1.00  0.00     0.069 A 
HETATM    8  C   UNL     1       8.509  32.076  61.759  1.00  0.00     0.037 A 
HETATM    9  C   UNL     1       8.372  32.367  63.119  1.00  0.00     0.011 A 
BRANCH   7  10
HETATM   10  O   UNL     1       7.691  32.329  59.510  1.00  0.00    -0.347 OA
BRANCH  10  11
HETATM   11  C   UNL     1       7.543  30.919  59.301  1.00  0.00     0.216 C 
BRANCH  11  12
HETATM   12  C   UNL     1       8.642  30.426  58.380  1.00  0.00    -0.007 A 
HETATM   13  C   UNL     1       9.838  31.163  58.301  1.00  0.00     0.011 A 
HETATM   14  C   UNL     1      10.908  30.706  57.533  1.00  0.00     0.001 A 
HETATM   15  C   UNL     1      10.800  29.508  56.834  1.00  0.00     0.002 A 
HETATM   16  C   UNL     1       9.624  28.759  56.911  1.00  0.00     0.030 A 
HETATM   17  C   UNL     1       8.548  29.200  57.692  1.00  0.00     0.044 A 
BRANCH  17  18
HETATM   18  N   UNL     1       7.339  28.481  57.750  1.00  0.00    -0.308 N 
HETATM   19  C   UNL     1       6.297  28.387  56.866  1.00  0.00     0.325 C 
HETATM   20  N   UNL     1       6.585  28.712  55.566  1.00  0.00    -0.306 N 
HETATM   21  O   UNL     1       5.228  27.925  57.258  1.00  0.00    -0.247 OA
HETATM   22  H   UNL     1       7.552  28.878  55.331  1.00  0.00     0.171 HD
HETATM   23  H   UNL     1       7.172  27.956  58.605  1.00  0.00     0.170 HD
BRANCH  20  24
HETATM   24  C   UNL     1       5.700  28.584  54.515  1.00  0.00     0.072 A 
HETATM   25  C   UNL     1       4.521  29.290  54.189  1.00  0.00     0.169 A 
HETATM   26  N   UNL     1       3.944  28.826  53.074  1.00  0.00    -0.185 NA
HETATM   27  N   UNL     1       4.752  27.825  52.694  1.00  0.00    -0.287 N 
HETATM   28  H   UNL     1       4.505  27.302  51.861  1.00  0.00     0.188 HD
HETATM   29  C   UNL     1       5.826  27.646  53.519  1.00  0.00     0.140 A 
ENDBRANCH  20  24
ENDBRANCH  17  18
ENDBRANCH  11  12
ENDBRANCH  10  11
ENDBRANCH   7  10
ENDBRANCH   1   4
TORSDOF 6
ENDMDL
MODEL 5
REMARK VINA RESULT:      -7.9      2.258      7.184
REMARK  6 active torsions:
REMARK  status: ('A' for Active; 'I' for Inactive)
REMARK    1  A    between atoms: C_3  and  C_4 
REMARK    2  A    between atoms: C_4  and  O_5 
REMARK    3  A    between atoms: O_5  and  C_6 
REMARK    4  A    between atoms: C_9  and  C_10 
REMARK    5  A    between atoms: C_15  and  N_16 
REMARK       I    between atoms: N_16  and  C_17 
REMARK       I    between atoms: C_17  and  N_18 
REMARK    6  A    between atoms: N_18  and  C_19 
ROOT
HETATM    1  C   UNL     1       8.682  21.178  53.640  1.00  0.00     0.147 C 
HETATM    2  C   UNL     1       8.613  20.512  55.005  1.00  0.00    -0.016 C 
HETATM    3  N   UNL     1       8.557  19.959  56.136  1.00  0.00    -0.101 N 
ENDROOT
BRANCH   1   4
HETATM    4  C   UNL     1       8.092  22.567  53.686  1.00  0.00    -0.046 A 
HETATM    5  C   UNL     1       7.464  23.038  54.850  1.00  0.00     0.011 A 
HETATM    6  C   UNL     1       6.858  24.295  54.867  1.00  0.00     0.037 A 
HETATM    7  C   UNL     1       6.888  25.094  53.729  1.00  0.00     0.069 A 
HETATM    8  C   UNL     1       7.484  24.633  52.557  1.00  0.00     0.037 A 
HETATM    9  C   UNL     1       8.091  23.376  52.538  1.00  0.00     0.011 A 
BRANCH   7  10
HETATM   10  O   UNL     1       6.227  26.292  53.766  1.00  0.00    -0.347 OA
BRANCH  10  11
HETATM   11  C   UNL     1       5.049  26.261  52.951  1.00  0.00     0.216 C 
BRANCH  11  12
HETATM   12  C   UNL     1       4.518  27.670  52.775  1.00  0.00    -0.007 A 
HETATM   13  C   UNL     1       4.418  28.196  51.474  1.00  0.00     0.011 A 
HETATM   14  C   UNL     1       3.859  29.454  51.254  1.00  0.00     0.001 A 
HETATM   15  C   UNL     1       3.393  30.204  52.329  1.00  0.00     0.002 A 
HETATM   16  C   UNL     1       3.474  29.692  53.625  1.00  0.00     0.030 A 
HETATM   17  C   UNL     1       4.019  28.422  53.857  1.00  0.00     0.044 A 
BRANCH  17  18
HETATM   18  N   UNL     1       4.149  27.905  55.159  1.00  0.00    -0.308 N 
HETATM   19  C   UNL     1       5.195  27.925  56.043  1.00  0.00     0.325 C 
HETATM   20  N   UNL     1       6.137  28.898  55.831  1.00  0.00    -0.306 N 
HETATM   21  O   UNL     1       5.170  27.165  57.009  1.00  0.00    -0.247 OA
HETATM   22  H   UNL     1       5.938  29.593  55.128  1.00  0.00     0.171 HD
HETATM   23  H   UNL     1       3.347  27.392  55.519  1.00  0.00     0.170 HD
BRANCH  20  24
HETATM   24  C   UNL     1       7.207  29.144  56.668  1.00  0.00     0.072 A 
HETATM   25  C   UNL     1       7.324  29.925  57.838  1.00  0.00     0.169 A 
HETATM   26  N   UNL     1       8.566  29.907  58.337  1.00  0.00    -0.185 NA
HETATM   27  N   UNL     1       9.237  29.118  57.485  1.00  0.00    -0.287 N 
HETATM   28  H   UNL     1      10.225  28.963  57.656  1.00  0.00     0.188 HD
HETATM   29  C   UNL     1       8.466  28.626  56.472  1.00  0.00     0.140 A 
ENDBRANCH  20  24
ENDBRANCH  17  18
ENDBRANCH  11  12
ENDBRANCH  10  11
ENDBRANCH   7  10
ENDBRANCH   1   4
TORSDOF 6
ENDMDL
MODEL 6
REMARK VINA RESULT:      -7.9      1.966      5.683
REMARK  6 active torsions:
REMARK  status: ('A' for Active; 'I' for Inactive)
REMARK    1  A    between atoms: C_3  and  C_4 
REMARK    2  A    between atoms: C_4  and  O_5 
REMARK    3  A    between atoms: O_5  and  C_6 
REMARK    4  A    between atoms: C_9  and  C_10 
REMARK    5  A    between atoms: C_15  and  N_16 
REMARK       I    between atoms: N_16  and  C_17 
REMARK       I    between atoms: C_17  and  N_18 
REMARK    6  A    between atoms: N_18  and  C_19 
ROOT
HETATM    1  C   UNL     1       2.706  29.221  51.356  1.00  0.00     0.147 C 
HETATM    2  C   UNL     1       2.344  28.939  49.907  1.00  0.00    -0.016 C 
HETATM    3  N   UNL     1       2.044  28.705  48.705  1.00  0.00    -0.101 N 
ENDROOT
BRANCH   1   4
HETATM    4  C   UNL     1       3.825  28.319  51.821  1.00  0.00    -0.046 A 
HETATM    5  C   UNL     1       4.724  27.764  50.896  1.00  0.00     0.011 A 
HETATM    6  C   UNL     1       5.713  26.875  51.318  1.00  0.00     0.037 A 
HETATM    7  C   UNL     1       5.820  26.547  52.666  1.00  0.00     0.069 A 
HETATM    8  C   UNL     1       4.920  27.067  53.594  1.00  0.00     0.037 A 
HETATM    9  C   UNL     1       3.930  27.957  53.173  1.00  0.00     0.011 A 
BRANCH   7  10
HETATM   10  O   UNL     1       6.761  25.622  53.031  1.00  0.00    -0.347 OA
BRANCH  10  11
HETATM   11  C   UNL     1       6.222  24.295  53.008  1.00  0.00     0.216 C 
BRANCH  11  12
HETATM   12  C   UNL     1       7.154  23.358  53.751  1.00  0.00    -0.007 A 
HETATM   13  C   UNL     1       7.999  22.516  53.007  1.00  0.00     0.011 A 
HETATM   14  C   UNL     1       8.931  21.697  53.643  1.00  0.00     0.001 A 
HETATM   15  C   UNL     1       9.032  21.708  55.030  1.00  0.00     0.002 A 
HETATM   16  C   UNL     1       8.209  22.547  55.783  1.00  0.00     0.030 A 
HETATM   17  C   UNL     1       7.280  23.386  55.155  1.00  0.00     0.044 A 
BRANCH  17  18
HETATM   18  N   UNL     1       6.412  24.207  55.898  1.00  0.00    -0.308 N 
HETATM   19  C   UNL     1       6.581  25.458  56.431  1.00  0.00     0.325 C 
HETATM   20  N   UNL     1       7.576  26.216  55.870  1.00  0.00    -0.306 N 
HETATM   21  O   UNL     1       5.783  25.854  57.277  1.00  0.00    -0.247 OA
HETATM   22  H   UNL     1       8.025  25.856  55.042  1.00  0.00     0.171 HD
HETATM   23  H   UNL     1       5.501  23.811  56.119  1.00  0.00     0.170 HD
BRANCH  20  24
HETATM   24  C   UNL     1       7.833  27.532  56.199  1.00  0.00     0.072 A 
HETATM   25  C   UNL     1       8.206  28.140  57.418  1.00  0.00     0.169 A 
HETATM   26  N   UNL     1       8.338  29.466  57.303  1.00  0.00    -0.185 NA
HETATM   27  N   UNL     1       8.048  29.702  56.015  1.00  0.00    -0.287 N 
HETATM   28  H   UNL     1       8.071  30.662  55.688  1.00  0.00     0.188 HD
HETATM   29  C   UNL     1       7.749  28.574  55.306  1.00  0.00     0.140 A 
ENDBRANCH  20  24
ENDBRANCH  17  18
ENDBRANCH  11  12
ENDBRANCH  10  11
ENDBRANCH   7  10
ENDBRANCH   1   4
TORSDOF 6
ENDMDL
MODEL 7
REMARK VINA RESULT:      -7.9      2.948      6.748
REMARK  6 active torsions:
REMARK  status: ('A' for Active; 'I' for Inactive)
REMARK    1  A    between atoms: C_3  and  C_4 
REMARK    2  A    between atoms: C_4  and  O_5 
REMARK    3  A    between atoms: O_5  and  C_6 
REMARK    4  A    between atoms: C_9  and  C_10 
REMARK    5  A    between atoms: C_15  and  N_16 
REMARK       I    between atoms: N_16  and  C_17 
REMARK       I    between atoms: C_17  and  N_18 
REMARK    6  A    between atoms: N_18  and  C_19 
ROOT
HETATM    1  C   UNL     1       7.987  21.579  53.220  1.00  0.00     0.147 C 
HETATM    2  C   UNL     1       8.270  20.706  54.432  1.00  0.00    -0.016 C 
HETATM    3  N   UNL     1       8.504  19.982  55.437  1.00  0.00    -0.101 N 
ENDROOT
BRANCH   1   4
HETATM    4  C   UNL     1       7.684  22.999  53.634  1.00  0.00    -0.046 A 
HETATM    5  C   UNL     1       7.828  24.055  52.719  1.00  0.00     0.011 A 
HETATM    6  C   UNL     1       7.615  25.374  53.123  1.00  0.00     0.037 A 
HETATM    7  C   UNL     1       7.245  25.645  54.436  1.00  0.00     0.069 A 
HETATM    8  C   UNL     1       7.123  24.612  55.364  1.00  0.00     0.037 A 
HETATM    9  C   UNL     1       7.335  23.292  54.961  1.00  0.00     0.011 A 
BRANCH   7  10
HETATM   10  O   UNL     1       7.109  26.954  54.809  1.00  0.00    -0.347 OA
BRANCH  10  11
HETATM   11  C   UNL     1       6.560  27.065  56.128  1.00  0.00     0.216 C 
BRANCH  11  12
HETATM   12  C   UNL     1       7.300  28.141  56.896  1.00  0.00    -0.007 A 
HETATM   13  C   UNL     1       8.707  28.115  56.911  1.00  0.00     0.011 A 
HETATM   14  C   UNL     1       9.433  29.129  57.534  1.00  0.00     0.001 A 
HETATM   15  C   UNL     1       8.766  30.183  58.149  1.00  0.00     0.002 A 
HETATM   16  C   UNL     1       7.372  30.232  58.133  1.00  0.00     0.030 A 
HETATM   17  C   UNL     1       6.631  29.227  57.497  1.00  0.00     0.044 A 
BRANCH  17  18
HETATM   18  N   UNL     1       5.224  29.234  57.505  1.00  0.00    -0.308 N 
HETATM   19  C   UNL     1       4.315  29.871  56.702  1.00  0.00     0.325 C 
HETATM   20  N   UNL     1       4.776  30.261  55.471  1.00  0.00    -0.306 N 
HETATM   21  O   UNL     1       3.147  29.952  57.077  1.00  0.00    -0.247 OA
HETATM   22  H   UNL     1       5.697  29.953  55.201  1.00  0.00     0.171 HD
HETATM   23  H   UNL     1       4.778  28.706  58.252  1.00  0.00     0.170 HD
BRANCH  20  24
HETATM   24  C   UNL     1       3.990  30.823  54.486  1.00  0.00     0.072 A 
HETATM   25  C   UNL     1       3.512  32.139  54.303  1.00  0.00     0.169 A 
HETATM   26  N   UNL     1       2.753  32.255  53.207  1.00  0.00    -0.185 NA
HETATM   27  N   UNL     1       2.747  31.015  52.695  1.00  0.00    -0.287 N 
HETATM   28  H   UNL     1       2.214  30.851  51.848  1.00  0.00     0.188 HD
HETATM   29  C   UNL     1       3.483  30.121  53.419  1.00  0.00     0.140 A 
ENDBRANCH  20  24
ENDBRANCH  17  18
ENDBRANCH  11  12
ENDBRANCH  10  11
ENDBRANCH   7  10
ENDBRANCH   1   4
TORSDOF 6
ENDMDL
MODEL 8
REMARK VINA RESULT:      -7.8      3.308      6.590
REMARK  6 active torsions:
REMARK  status: ('A' for Active; 'I' for Inactive)
REMARK    1  A    between atoms: C_3  and  C_4 
REMARK    2  A    between atoms: C_4  and  O_5 
REMARK    3  A    between atoms: O_5  and  C_6 
REMARK    4  A    between atoms: C_9  and  C_10 
REMARK    5  A    between atoms: C_15  and  N_16 
REMARK       I    between atoms: N_16  and  C_17 
REMARK       I    between atoms: C_17  and  N_18 
REMARK    6  A    between atoms: N_18  and  C_19 
ROOT
HETATM    1  C   UNL     1       8.011  21.206  53.557  1.00  0.00     0.147 C 
HETATM    2  C   UNL     1       8.700  20.724  54.824  1.00  0.00    -0.016 C 
HETATM    3  N   UNL     1       9.270  20.324  55.874  1.00  0.00    -0.101 N 
ENDROOT
BRANCH   1   4
HETATM    4  C   UNL     1       7.719  22.686  53.629  1.00  0.00    -0.046 A 
HETATM    5  C   UNL     1       7.971  23.517  52.526  1.00  0.00     0.011 A 
HETATM    6  C   UNL     1       7.768  24.895  52.617  1.00  0.00     0.037 A 
HETATM    7  C   UNL     1       7.298  25.448  53.804  1.00  0.00     0.069 A 
HETATM    8  C   UNL     1       7.067  24.642  54.917  1.00  0.00     0.037 A 
HETATM    9  C   UNL     1       7.270  23.263  54.827  1.00  0.00     0.011 A 
BRANCH   7  10
HETATM   10  O   UNL     1       7.173  26.809  53.874  1.00  0.00    -0.347 OA
BRANCH  10  11
HETATM   11  C   UNL     1       6.581  27.338  52.682  1.00  0.00     0.216 C 
BRANCH  11  12
HETATM   12  C   UNL     1       5.454  28.282  53.054  1.00  0.00    -0.007 A 
HETATM   13  C   UNL     1       4.931  28.231  54.359  1.00  0.00     0.011 A 
HETATM   14  C   UNL     1       3.953  29.134  54.773  1.00  0.00     0.001 A 
HETATM   15  C   UNL     1       3.483  30.101  53.889  1.00  0.00     0.002 A 
HETATM   16  C   UNL     1       3.999  30.173  52.595  1.00  0.00     0.030 A 
HETATM   17  C   UNL     1       4.994  29.282  52.173  1.00  0.00     0.044 A 
BRANCH  17  18
HETATM   18  N   UNL     1       5.498  29.311  50.859  1.00  0.00    -0.308 N 
HETATM   19  C   UNL     1       5.196  28.559  49.755  1.00  0.00     0.325 C 
HETATM   20  N   UNL     1       3.976  27.935  49.773  1.00  0.00    -0.306 N 
HETATM   21  O   UNL     1       5.965  28.578  48.796  1.00  0.00    -0.247 OA
HETATM   22  H   UNL     1       3.347  28.164  50.527  1.00  0.00     0.171 HD
HETATM   23  H   UNL     1       6.243  29.980  50.681  1.00  0.00     0.170 HD
BRANCH  20  24
HETATM   24  C   UNL     1       3.449  27.218  48.717  1.00  0.00     0.072 A 
HETATM   25  C   UNL     1       3.946  26.114  47.991  1.00  0.00     0.169 A 
HETATM   26  N   UNL     1       3.114  25.732  47.016  1.00  0.00    -0.185 NA
HETATM   27  N   UNL     1       2.091  26.593  47.119  1.00  0.00    -0.287 N 
HETATM   28  H   UNL     1       1.324  26.506  46.460  1.00  0.00     0.188 HD
HETATM   29  C   UNL     1       2.238  27.498  48.131  1.00  0.00     0.140 A 
ENDBRANCH  20  24
ENDBRANCH  17  18
ENDBRANCH  11  12
ENDBRANCH  10  11
ENDBRANCH   7  10
ENDBRANCH   1   4
TORSDOF 6
ENDMDL
MODEL 9
REMARK VINA RESULT:      -7.8      4.277      7.660
REMARK  6 active torsions:
REMARK  status: ('A' for Active; 'I' for Inactive)
REMARK    1  A    between atoms: C_3  and  C_4 
REMARK    2  A    between atoms: C_4  and  O_5 
REMARK    3  A    between atoms: O_5  and  C_6 
REMARK    4  A    between atoms: C_9  and  C_10 
REMARK    5  A    between atoms: C_15  and  N_16 
REMARK       I    between atoms: N_16  and  C_17 
REMARK       I    between atoms: C_17  and  N_18 
REMARK    6  A    between atoms: N_18  and  C_19 
ROOT
HETATM    1  C   UNL     1       6.107  34.851  64.156  1.00  0.00     0.147 C 
HETATM    2  C   UNL     1       5.301  34.292  65.317  1.00  0.00    -0.016 C 
HETATM    3  N   UNL     1       4.632  33.828  66.279  1.00  0.00    -0.101 N 
ENDROOT
BRANCH   1   4
HETATM    4  C   UNL     1       6.665  33.740  63.299  1.00  0.00    -0.046 A 
HETATM    5  C   UNL     1       7.677  32.900  63.791  1.00  0.00     0.011 A 
HETATM    6  C   UNL     1       8.241  31.919  62.973  1.00  0.00     0.037 A 
HETATM    7  C   UNL     1       7.789  31.762  61.667  1.00  0.00     0.069 A 
HETATM    8  C   UNL     1       6.804  32.604  61.154  1.00  0.00     0.037 A 
HETATM    9  C   UNL     1       6.239  33.586  61.970  1.00  0.00     0.011 A 
BRANCH   7  10
HETATM   10  O   UNL     1       8.412  30.834  60.878  1.00  0.00    -0.347 OA
BRANCH  10  11
HETATM   11  C   UNL     1       7.736  30.681  59.624  1.00  0.00     0.216 C 
BRANCH  11  12
HETATM   12  C   UNL     1       8.746  30.358  58.541  1.00  0.00    -0.007 A 
HETATM   13  C   UNL     1       9.939  31.100  58.486  1.00  0.00     0.011 A 
HETATM   14  C   UNL     1      10.934  30.786  57.562  1.00  0.00     0.001 A 
HETATM   15  C   UNL     1      10.752  29.726  56.679  1.00  0.00     0.002 A 
HETATM   16  C   UNL     1       9.579  28.971  56.728  1.00  0.00     0.030 A 
HETATM   17  C   UNL     1       8.579  29.267  57.663  1.00  0.00     0.044 A 
BRANCH  17  18
HETATM   18  N   UNL     1       7.371  28.545  57.701  1.00  0.00    -0.308 N 
HETATM   19  C   UNL     1       7.056  27.282  57.277  1.00  0.00     0.325 C 
HETATM   20  N   UNL     1       8.111  26.418  57.138  1.00  0.00    -0.306 N 
HETATM   21  O   UNL     1       5.872  26.974  57.159  1.00  0.00    -0.247 OA
HETATM   22  H   UNL     1       9.014  26.729  57.465  1.00  0.00     0.171 HD
HETATM   23  H   UNL     1       6.566  29.042  58.076  1.00  0.00     0.170 HD
BRANCH  20  24
HETATM   24  C   UNL     1       7.989  25.080  56.821  1.00  0.00     0.072 A 
HETATM   25  C   UNL     1       8.690  23.941  57.271  1.00  0.00     0.169 A 
HETATM   26  N   UNL     1       8.262  22.817  56.685  1.00  0.00    -0.185 NA
HETATM   27  N   UNL     1       7.292  23.241  55.862  1.00  0.00    -0.287 N 
HETATM   28  H   UNL     1       6.816  22.552  55.288  1.00  0.00     0.188 HD
HETATM   29  C   UNL     1       7.082  24.589  55.913  1.00  0.00     0.140 A 
ENDBRANCH  20  24
ENDBRANCH  17  18
ENDBRANCH  11  12
ENDBRANCH  10  11
ENDBRANCH   7  10
ENDBRANCH   1   4
TORSDOF 6
ENDMDL
MODEL 10
REMARK VINA RESULT:      -7.7      6.262      9.823
REMARK  6 active torsions:
REMARK  status: ('A' for Active; 'I' for Inactive)
REMARK    1  A    between atoms: C_3  and  C_4 
REMARK    2  A    between atoms: C_4  and  O_5 
REMARK    3  A    between atoms: O_5  and  C_6 
REMARK    4  A    between atoms: C_9  and  C_10 
REMARK    5  A    between atoms: C_15  and  N_16 
REMARK       I    between atoms: N_16  and  C_17 
REMARK       I    between atoms: C_17  and  N_18 
REMARK    6  A    between atoms: N_18  and  C_19 
ROOT
HETATM    1  C   UNL     1       5.349  34.636  68.098  1.00  0.00     0.147 C 
HETATM    2  C   UNL     1       6.730  34.792  68.714  1.00  0.00    -0.016 C 
HETATM    3  N   UNL     1       7.875  34.921  69.224  1.00  0.00    -0.101 N 
ENDROOT
BRANCH   1   4
HETATM    4  C   UNL     1       5.445  34.265  66.638  1.00  0.00    -0.046 A 
HETATM    5  C   UNL     1       4.295  34.222  65.835  1.00  0.00     0.011 A 
HETATM    6  C   UNL     1       4.376  33.810  64.503  1.00  0.00     0.037 A 
HETATM    7  C   UNL     1       5.607  33.453  63.963  1.00  0.00     0.069 A 
HETATM    8  C   UNL     1       6.756  33.464  64.752  1.00  0.00     0.037 A 
HETATM    9  C   UNL     1       6.676  33.876  66.084  1.00  0.00     0.011 A 
BRANCH   7  10
HETATM   10  O   UNL     1       5.635  32.993  62.674  1.00  0.00    -0.347 OA
BRANCH  10  11
HETATM   11  C   UNL     1       6.307  31.731  62.588  1.00  0.00     0.216 C 
BRANCH  11  12
HETATM   12  C   UNL     1       7.503  31.857  61.665  1.00  0.00    -0.007 A 
HETATM   13  C   UNL     1       8.793  31.854  62.226  1.00  0.00     0.011 A 
HETATM   14  C   UNL     1       9.925  31.884  61.413  1.00  0.00     0.001 A 
HETATM   15  C   UNL     1       9.786  31.917  60.029  1.00  0.00     0.002 A 
HETATM   16  C   UNL     1       8.513  31.908  59.456  1.00  0.00     0.030 A 
HETATM   17  C   UNL     1       7.368  31.862  60.261  1.00  0.00     0.044 A 
BRANCH  17  18
HETATM   18  N   UNL     1       6.076  31.895  59.705  1.00  0.00    -0.308 N 
HETATM   19  C   UNL     1       5.551  31.290  58.594  1.00  0.00     0.325 C 
HETATM   20  N   UNL     1       6.227  30.187  58.139  1.00  0.00    -0.306 N 
HETATM   21  O   UNL     1       4.477  31.692  58.152  1.00  0.00    -0.247 OA
HETATM   22  H   UNL     1       6.979  29.834  58.711  1.00  0.00     0.171 HD
HETATM   23  H   UNL     1       5.402  32.495  60.175  1.00  0.00     0.170 HD
BRANCH  20  24
HETATM   24  C   UNL     1       5.802  29.385  57.100  1.00  0.00     0.072 A 
HETATM   25  C   UNL     1       5.026  28.205  57.081  1.00  0.00     0.169 A 
HETATM   26  N   UNL     1       4.860  27.727  55.842  1.00  0.00    -0.185 NA
HETATM   27  N   UNL     1       5.531  28.600  55.075  1.00  0.00    -0.287 N 
HETATM   28  H   UNL     1       5.558  28.434  54.074  1.00  0.00     0.188 HD
HETATM   29  C   UNL     1       6.105  29.619  55.779  1.00  0.00     0.140 A 
ENDBRANCH  20  24
ENDBRANCH  17  18
ENDBRANCH  11  12
ENDBRANCH  10  11
ENDBRANCH   7  10
ENDBRANCH   1   4
TORSDOF 6
ENDMDL
