MODEL 1
REMARK VINA RESULT:      -8.7      0.000      0.000
REMARK  5 active torsions:
REMARK  status: ('A' for Active; 'I' for Inactive)
REMARK    1  A    between atoms: C_3  and  N_4 
REMARK    2  A    between atoms: N_4  and  C_5 
REMARK    3  A    between atoms: C_5  and  C_6 
REMARK    4  A    between atoms: C_8  and  N_9 
REMARK    5  A    between atoms: C_18  and  C_19 
ROOT
HETATM    1  C   UNL     1       6.584  26.556  54.060  1.00  0.00     0.053 C 
HETATM    2  C   UNL     1       7.021  25.124  54.208  1.00  0.00    -0.005 A 
HETATM    3  C   UNL     1       6.914  24.521  55.602  1.00  0.00     0.151 A 
HETATM    4  N   UNL     1       7.208  23.274  55.862  1.00  0.00    -0.146 NA
HETATM    5  N   UNL     1       7.636  22.559  54.798  1.00  0.00    -0.187 N 
HETATM    6  C   UNL     1       7.788  22.994  53.504  1.00  0.00     0.181 A 
HETATM    7  C   UNL     1       7.461  24.343  53.192  1.00  0.00    -0.003 A 
HETATM    8  C   UNL     1       7.605  24.876  51.786  1.00  0.00     0.053 C 
HETATM    9  C   UNL     1       8.027  21.249  54.790  1.00  0.00     0.258 A 
HETATM   10  N   UNL     1       8.389  20.904  53.566  1.00  0.00    -0.123 NA
HETATM   11  N   UNL     1       8.238  22.005  52.758  1.00  0.00    -0.128 NA
ENDROOT
BRANCH   3  12
HETATM   12  N   UNL     1       6.489  25.296  56.654  1.00  0.00    -0.366 N 
HETATM   13  H   UNL     1       5.612  25.806  56.577  1.00  0.00     0.161 HD
BRANCH  12  14
HETATM   14  C   UNL     1       7.410  25.947  57.584  1.00  0.00     0.201 C 
BRANCH  14  15
HETATM   15  C   UNL     1       7.145  27.442  57.667  1.00  0.00     0.144 A 
HETATM   16  N   UNL     1       8.147  28.236  58.097  1.00  0.00    -0.220 NA
HETATM   17  C   UNL     1       7.904  29.550  58.138  1.00  0.00     0.104 A 
HETATM   18  C   UNL     1       6.696  30.098  57.769  1.00  0.00     0.063 A 
HETATM   19  C   UNL     1       5.737  29.215  57.335  1.00  0.00     0.122 A 
HETATM   20  N   UNL     1       5.929  27.886  57.267  1.00  0.00    -0.244 NA
BRANCH  17  21
HETATM   21  N   UNL     1       8.929  30.358  58.621  1.00  0.00    -0.287 NA
HETATM   22  H   UNL     1       8.716  30.580  59.591  1.00  0.00     0.125 HD
HETATM   23  H   UNL     1       9.838  29.920  58.528  1.00  0.00     0.125 HD
ENDBRANCH  17  21
ENDBRANCH  14  15
ENDBRANCH  12  14
ENDBRANCH   3  12
BRANCH   9  24
HETATM   24  C   UNL     1       8.007  20.442  56.016  1.00  0.00     0.454 C 
HETATM   25  F   UNL     1       8.630  21.055  57.060  1.00  0.00    -0.163 F 
HETATM   26  F   UNL     1       6.744  20.153  56.431  1.00  0.00    -0.163 F 
HETATM   27  F   UNL     1       8.635  19.244  55.860  1.00  0.00    -0.163 F 
ENDBRANCH   9  24
TORSDOF 5
ENDMDL
MODEL 2
REMARK VINA RESULT:      -8.5      3.876      5.015
REMARK  5 active torsions:
REMARK  status: ('A' for Active; 'I' for Inactive)
REMARK    1  A    between atoms: C_3  and  N_4 
REMARK    2  A    between atoms: N_4  and  C_5 
REMARK    3  A    between atoms: C_5  and  C_6 
REMARK    4  A    between atoms: C_8  and  N_9 
REMARK    5  A    between atoms: C_18  and  C_19 
ROOT
HETATM    1  C   UNL     1       8.871  24.193  56.912  1.00  0.00     0.053 C 
HETATM    2  C   UNL     1       7.799  24.779  56.036  1.00  0.00    -0.005 A 
HETATM    3  C   UNL     1       7.379  26.211  56.341  1.00  0.00     0.151 A 
HETATM    4  N   UNL     1       6.498  26.861  55.626  1.00  0.00    -0.146 NA
HETATM    5  N   UNL     1       5.968  26.157  54.601  1.00  0.00    -0.187 N 
HETATM    6  C   UNL     1       6.253  24.863  54.239  1.00  0.00     0.181 A 
HETATM    7  C   UNL     1       7.220  24.139  54.992  1.00  0.00    -0.003 A 
HETATM    8  C   UNL     1       7.576  22.713  54.638  1.00  0.00     0.053 C 
HETATM    9  C   UNL     1       5.018  26.582  53.715  1.00  0.00     0.258 A 
HETATM   10  N   UNL     1       4.745  25.610  52.861  1.00  0.00    -0.123 NA
HETATM   11  N   UNL     1       5.524  24.529  53.194  1.00  0.00    -0.128 NA
ENDROOT
BRANCH   3  12
HETATM   12  N   UNL     1       7.936  26.877  57.405  1.00  0.00    -0.366 N 
HETATM   13  H   UNL     1       8.315  26.345  58.185  1.00  0.00     0.161 HD
BRANCH  12  14
HETATM   14  C   UNL     1       7.505  28.210  57.821  1.00  0.00     0.201 C 
BRANCH  14  15
HETATM   15  C   UNL     1       8.654  29.204  57.765  1.00  0.00     0.144 A 
HETATM   16  N   UNL     1       8.553  30.326  58.507  1.00  0.00    -0.220 NA
HETATM   17  C   UNL     1       9.585  31.175  58.465  1.00  0.00     0.104 A 
HETATM   18  C   UNL     1      10.711  30.946  57.706  1.00  0.00     0.063 A 
HETATM   19  C   UNL     1      10.731  29.773  56.991  1.00  0.00     0.122 A 
HETATM   20  N   UNL     1       9.725  28.881  57.001  1.00  0.00    -0.244 NA
BRANCH  17  21
HETATM   21  N   UNL     1       9.456  32.349  59.201  1.00  0.00    -0.287 NA
HETATM   22  H   UNL     1       8.543  32.333  59.650  1.00  0.00     0.125 HD
HETATM   23  H   UNL     1      10.203  32.461  59.877  1.00  0.00     0.125 HD
ENDBRANCH  17  21
ENDBRANCH  14  15
ENDBRANCH  12  14
ENDBRANCH   3  12
BRANCH   9  24
HETATM   24  C   UNL     1       4.454  27.935  53.794  1.00  0.00     0.454 C 
HETATM   25  F   UNL     1       5.381  28.905  53.563  1.00  0.00    -0.163 F 
HETATM   26  F   UNL     1       3.449  28.135  52.899  1.00  0.00    -0.163 F 
HETATM   27  F   UNL     1       3.928  28.208  55.019  1.00  0.00    -0.163 F 
ENDBRANCH   9  24
TORSDOF 5
ENDMDL
MODEL 3
REMARK VINA RESULT:      -8.3      3.213      5.056
REMARK  5 active torsions:
REMARK  status: ('A' for Active; 'I' for Inactive)
REMARK    1  A    between atoms: C_3  and  N_4 
REMARK    2  A    between atoms: N_4  and  C_5 
REMARK    3  A    between atoms: C_5  and  C_6 
REMARK    4  A    between atoms: C_8  and  N_9 
REMARK    5  A    between atoms: C_18  and  C_19 
ROOT
HETATM    1  C   UNL     1       6.940  27.093  54.827  1.00  0.00     0.053 C 
HETATM    2  C   UNL     1       7.307  25.642  54.976  1.00  0.00    -0.005 A 
HETATM    3  C   UNL     1       7.328  24.812  53.699  1.00  0.00     0.151 A 
HETATM    4  N   UNL     1       7.682  23.553  53.676  1.00  0.00    -0.146 NA
HETATM    5  N   UNL     1       8.010  23.034  54.880  1.00  0.00    -0.187 N 
HETATM    6  C   UNL     1       8.014  23.675  56.095  1.00  0.00     0.181 A 
HETATM    7  C   UNL     1       7.648  25.049  56.145  1.00  0.00    -0.003 A 
HETATM    8  C   UNL     1       7.637  25.807  57.453  1.00  0.00     0.053 C 
HETATM    9  C   UNL     1       8.393  21.748  55.145  1.00  0.00     0.258 A 
HETATM   10  N   UNL     1       8.622  21.615  56.441  1.00  0.00    -0.123 NA
HETATM   11  N   UNL     1       8.383  22.830  57.036  1.00  0.00    -0.128 NA
ENDROOT
BRANCH   3  12
HETATM   12  N   UNL     1       6.969  25.383  52.503  1.00  0.00    -0.366 N 
HETATM   13  H   UNL     1       7.479  26.195  52.164  1.00  0.00     0.161 HD
BRANCH  12  14
HETATM   14  C   UNL     1       5.602  25.352  51.988  1.00  0.00     0.201 C 
BRANCH  14  15
HETATM   15  C   UNL     1       5.331  26.535  51.071  1.00  0.00     0.144 A 
HETATM   16  N   UNL     1       5.707  27.759  51.495  1.00  0.00    -0.220 NA
HETATM   17  C   UNL     1       5.485  28.783  50.664  1.00  0.00     0.104 A 
HETATM   18  C   UNL     1       4.899  28.629  49.429  1.00  0.00     0.063 A 
HETATM   19  C   UNL     1       4.558  27.345  49.076  1.00  0.00     0.122 A 
HETATM   20  N   UNL     1       4.763  26.278  49.868  1.00  0.00    -0.244 NA
BRANCH  17  21
HETATM   21  N   UNL     1       5.839  30.047  51.126  1.00  0.00    -0.287 NA
HETATM   22  H   UNL     1       6.204  30.573  50.335  1.00  0.00     0.125 HD
HETATM   23  H   UNL     1       5.061  30.526  51.566  1.00  0.00     0.125 HD
ENDBRANCH  17  21
ENDBRANCH  14  15
ENDBRANCH  12  14
ENDBRANCH   3  12
BRANCH   9  24
HETATM   24  C   UNL     1       8.498  20.749  54.075  1.00  0.00     0.454 C 
HETATM   25  F   UNL     1       7.295  20.455  53.511  1.00  0.00    -0.163 F 
HETATM   26  F   UNL     1       9.316  21.152  53.064  1.00  0.00    -0.163 F 
HETATM   27  F   UNL     1       9.002  19.565  54.518  1.00  0.00    -0.163 F 
ENDBRANCH   9  24
TORSDOF 5
ENDMDL
MODEL 4
REMARK VINA RESULT:      -8.3      3.980      6.111
REMARK  5 active torsions:
REMARK  status: ('A' for Active; 'I' for Inactive)
REMARK    1  A    between atoms: C_3  and  N_4 
REMARK    2  A    between atoms: N_4  and  C_5 
REMARK    3  A    between atoms: C_5  and  C_6 
REMARK    4  A    between atoms: C_8  and  N_9 
REMARK    5  A    between atoms: C_18  and  C_19 
ROOT
HETATM    1  C   UNL     1       7.879  22.403  52.901  1.00  0.00     0.053 C 
HETATM    2  C   UNL     1       7.933  23.384  54.039  1.00  0.00    -0.005 A 
HETATM    3  C   UNL     1       7.366  24.771  53.768  1.00  0.00     0.151 A 
HETATM    4  N   UNL     1       7.300  25.704  54.682  1.00  0.00    -0.146 NA
HETATM    5  N   UNL     1       7.794  25.350  55.889  1.00  0.00    -0.187 N 
HETATM    6  C   UNL     1       8.342  24.142  56.248  1.00  0.00     0.181 A 
HETATM    7  C   UNL     1       8.411  23.106  55.276  1.00  0.00    -0.003 A 
HETATM    8  C   UNL     1       9.001  21.756  55.614  1.00  0.00     0.053 C 
HETATM    9  C   UNL     1       7.869  26.131  57.009  1.00  0.00     0.258 A 
HETATM   10  N   UNL     1       8.422  25.441  57.992  1.00  0.00    -0.123 NA
HETATM   11  N   UNL     1       8.719  24.189  57.510  1.00  0.00    -0.128 NA
ENDROOT
BRANCH   3  12
HETATM   12  N   UNL     1       6.892  25.086  52.517  1.00  0.00    -0.366 N 
HETATM   13  H   UNL     1       7.491  25.588  51.867  1.00  0.00     0.161 HD
BRANCH  12  14
HETATM   14  C   UNL     1       5.477  25.328  52.244  1.00  0.00     0.201 C 
BRANCH  14  15
HETATM   15  C   UNL     1       5.293  26.486  51.275  1.00  0.00     0.144 A 
HETATM   16  N   UNL     1       5.659  27.717  51.690  1.00  0.00    -0.220 NA
HETATM   17  C   UNL     1       5.515  28.718  50.816  1.00  0.00     0.104 A 
HETATM   18  C   UNL     1       5.016  28.536  49.546  1.00  0.00     0.063 A 
HETATM   19  C   UNL     1       4.679  27.248  49.207  1.00  0.00     0.122 A 
HETATM   20  N   UNL     1       4.808  26.202  50.043  1.00  0.00    -0.244 NA
BRANCH  17  21
HETATM   21  N   UNL     1       5.857  29.991  51.264  1.00  0.00    -0.287 NA
HETATM   22  H   UNL     1       6.848  30.127  51.079  1.00  0.00     0.125 HD
HETATM   23  H   UNL     1       5.293  30.713  50.833  1.00  0.00     0.125 HD
ENDBRANCH  17  21
ENDBRANCH  14  15
ENDBRANCH  12  14
ENDBRANCH   3  12
BRANCH   9  24
HETATM   24  C   UNL     1       7.379  27.515  57.006  1.00  0.00     0.454 C 
HETATM   25  F   UNL     1       7.986  28.285  56.062  1.00  0.00    -0.163 F 
HETATM   26  F   UNL     1       6.040  27.593  56.773  1.00  0.00    -0.163 F 
HETATM   27  F   UNL     1       7.592  28.144  58.194  1.00  0.00    -0.163 F 
ENDBRANCH   9  24
TORSDOF 5
ENDMDL
MODEL 5
REMARK VINA RESULT:      -8.2      3.379      5.628
REMARK  5 active torsions:
REMARK  status: ('A' for Active; 'I' for Inactive)
REMARK    1  A    between atoms: C_3  and  N_4 
REMARK    2  A    between atoms: N_4  and  C_5 
REMARK    3  A    between atoms: C_5  and  C_6 
REMARK    4  A    between atoms: C_8  and  N_9 
REMARK    5  A    between atoms: C_18  and  C_19 
ROOT
HETATM    1  C   UNL     1       6.899  27.124  54.686  1.00  0.00     0.053 C 
HETATM    2  C   UNL     1       7.270  25.678  54.862  1.00  0.00    -0.005 A 
HETATM    3  C   UNL     1       7.267  24.817  53.606  1.00  0.00     0.151 A 
HETATM    4  N   UNL     1       7.622  23.558  53.605  1.00  0.00    -0.146 NA
HETATM    5  N   UNL     1       7.974  23.068  54.814  1.00  0.00    -0.187 N 
HETATM    6  C   UNL     1       8.001  23.738  56.014  1.00  0.00     0.181 A 
HETATM    7  C   UNL     1       7.635  25.112  56.038  1.00  0.00    -0.003 A 
HETATM    8  C   UNL     1       7.649  25.901  57.327  1.00  0.00     0.053 C 
HETATM    9  C   UNL     1       8.363  21.789  55.102  1.00  0.00     0.258 A 
HETATM   10  N   UNL     1       8.618  21.687  56.396  1.00  0.00    -0.123 NA
HETATM   11  N   UNL     1       8.389  22.916  56.967  1.00  0.00    -0.128 NA
ENDROOT
BRANCH   3  12
HETATM   12  N   UNL     1       6.884  25.360  52.404  1.00  0.00    -0.366 N 
HETATM   13  H   UNL     1       7.412  26.137  52.015  1.00  0.00     0.161 HD
BRANCH  12  14
HETATM   14  C   UNL     1       5.497  25.367  51.942  1.00  0.00     0.201 C 
BRANCH  14  15
HETATM   15  C   UNL     1       5.285  26.404  50.851  1.00  0.00     0.144 A 
HETATM   16  N   UNL     1       4.835  25.976  49.653  1.00  0.00    -0.220 NA
HETATM   17  C   UNL     1       4.629  26.906  48.715  1.00  0.00     0.104 A 
HETATM   18  C   UNL     1       4.860  28.246  48.928  1.00  0.00     0.063 A 
HETATM   19  C   UNL     1       5.307  28.592  50.180  1.00  0.00     0.122 A 
HETATM   20  N   UNL     1       5.525  27.700  51.163  1.00  0.00    -0.244 NA
BRANCH  17  21
HETATM   21  N   UNL     1       4.203  26.451  47.470  1.00  0.00    -0.287 NA
HETATM   22  H   UNL     1       4.937  25.856  47.092  1.00  0.00     0.125 HD
HETATM   23  H   UNL     1       3.316  25.963  47.523  1.00  0.00     0.125 HD
ENDBRANCH  17  21
ENDBRANCH  14  15
ENDBRANCH  12  14
ENDBRANCH   3  12
BRANCH   9  24
HETATM   24  C   UNL     1       8.448  20.765  54.054  1.00  0.00     0.454 C 
HETATM   25  F   UNL     1       9.314  21.102  53.059  1.00  0.00    -0.163 F 
HETATM   26  F   UNL     1       8.855  19.559  54.535  1.00  0.00    -0.163 F 
HETATM   27  F   UNL     1       7.251  20.544  53.446  1.00  0.00    -0.163 F 
ENDBRANCH   9  24
TORSDOF 5
ENDMDL
MODEL 6
REMARK VINA RESULT:      -8.1      2.457      3.699
REMARK  5 active torsions:
REMARK  status: ('A' for Active; 'I' for Inactive)
REMARK    1  A    between atoms: C_3  and  N_4 
REMARK    2  A    between atoms: N_4  and  C_5 
REMARK    3  A    between atoms: C_5  and  C_6 
REMARK    4  A    between atoms: C_8  and  N_9 
REMARK    5  A    between atoms: C_18  and  C_19 
ROOT
HETATM    1  C   UNL     1       5.502  29.494  55.917  1.00  0.00     0.053 C 
HETATM    2  C   UNL     1       5.713  28.150  55.277  1.00  0.00    -0.005 A 
HETATM    3  C   UNL     1       6.726  27.230  55.946  1.00  0.00     0.151 A 
HETATM    4  N   UNL     1       6.968  26.014  55.526  1.00  0.00    -0.146 NA
HETATM    5  N   UNL     1       6.263  25.640  54.436  1.00  0.00    -0.187 N 
HETATM    6  C   UNL     1       5.339  26.383  53.740  1.00  0.00     0.181 A 
HETATM    7  C   UNL     1       5.047  27.702  54.185  1.00  0.00    -0.003 A 
HETATM    8  C   UNL     1       4.038  28.564  53.462  1.00  0.00     0.053 C 
HETATM    9  C   UNL     1       6.334  24.442  53.781  1.00  0.00     0.258 A 
HETATM   10  N   UNL     1       5.502  24.450  52.754  1.00  0.00    -0.123 NA
HETATM   11  N   UNL     1       4.877  25.674  52.731  1.00  0.00    -0.128 NA
ENDROOT
BRANCH   3  12
HETATM   12  N   UNL     1       7.428  27.665  57.042  1.00  0.00    -0.366 N 
HETATM   13  H   UNL     1       6.934  28.127  57.802  1.00  0.00     0.161 HD
BRANCH  12  14
HETATM   14  C   UNL     1       8.825  28.089  56.973  1.00  0.00     0.201 C 
BRANCH  14  15
HETATM   15  C   UNL     1       9.062  29.346  57.795  1.00  0.00     0.144 A 
HETATM   16  N   UNL     1       8.308  29.527  58.899  1.00  0.00    -0.220 NA
HETATM   17  C   UNL     1       8.548  30.625  59.623  1.00  0.00     0.104 A 
HETATM   18  C   UNL     1       9.509  31.549  59.283  1.00  0.00     0.063 A 
HETATM   19  C   UNL     1      10.236  31.278  58.149  1.00  0.00     0.122 A 
HETATM   20  N   UNL     1      10.041  30.188  57.386  1.00  0.00    -0.244 NA
BRANCH  17  21
HETATM   21  N   UNL     1       7.739  30.825  60.738  1.00  0.00    -0.287 NA
HETATM   22  H   UNL     1       7.789  31.812  60.983  1.00  0.00     0.125 HD
HETATM   23  H   UNL     1       6.783  30.528  60.576  1.00  0.00     0.125 HD
ENDBRANCH  17  21
ENDBRANCH  14  15
ENDBRANCH  12  14
ENDBRANCH   3  12
BRANCH   9  24
HETATM   24  C   UNL     1       7.237  23.378  54.238  1.00  0.00     0.454 C 
HETATM   25  F   UNL     1       6.912  22.908  55.474  1.00  0.00    -0.163 F 
HETATM   26  F   UNL     1       7.243  22.305  53.401  1.00  0.00    -0.163 F 
HETATM   27  F   UNL     1       8.529  23.795  54.326  1.00  0.00    -0.163 F 
ENDBRANCH   9  24
TORSDOF 5
ENDMDL
MODEL 7
REMARK VINA RESULT:      -8.0      7.902     10.435
REMARK  5 active torsions:
REMARK  status: ('A' for Active; 'I' for Inactive)
REMARK    1  A    between atoms: C_3  and  N_4 
REMARK    2  A    between atoms: N_4  and  C_5 
REMARK    3  A    between atoms: C_5  and  C_6 
REMARK    4  A    between atoms: C_8  and  N_9 
REMARK    5  A    between atoms: C_18  and  C_19 
ROOT
HETATM    1  C   UNL     1       3.838  33.373  59.031  1.00  0.00     0.053 C 
HETATM    2  C   UNL     1       5.126  32.684  59.389  1.00  0.00    -0.005 A 
HETATM    3  C   UNL     1       5.642  32.901  60.805  1.00  0.00     0.151 A 
HETATM    4  N   UNL     1       6.719  32.320  61.266  1.00  0.00    -0.146 NA
HETATM    5  N   UNL     1       7.357  31.523  60.380  1.00  0.00    -0.187 N 
HETATM    6  C   UNL     1       6.999  31.263  59.079  1.00  0.00     0.181 A 
HETATM    7  C   UNL     1       5.822  31.871  58.559  1.00  0.00    -0.003 A 
HETATM    8  C   UNL     1       5.378  31.620  57.136  1.00  0.00     0.053 C 
HETATM    9  C   UNL     1       8.509  30.817  60.589  1.00  0.00     0.258 A 
HETATM   10  N   UNL     1       8.831  30.162  59.486  1.00  0.00    -0.123 NA
HETATM   11  N   UNL     1       7.878  30.445  58.537  1.00  0.00    -0.128 NA
ENDROOT
BRANCH   3  12
HETATM   12  N   UNL     1       4.965  33.735  61.661  1.00  0.00    -0.366 N 
HETATM   13  H   UNL     1       5.402  34.602  61.965  1.00  0.00     0.161 HD
BRANCH  12  14
HETATM   14  C   UNL     1       3.995  33.249  62.640  1.00  0.00     0.201 C 
BRANCH  14  15
HETATM   15  C   UNL     1       4.339  33.729  64.042  1.00  0.00     0.144 A 
HETATM   16  N   UNL     1       3.366  34.330  64.758  1.00  0.00    -0.220 NA
HETATM   17  C   UNL     1       3.680  34.721  65.998  1.00  0.00     0.104 A 
HETATM   18  C   UNL     1       4.929  34.537  66.545  1.00  0.00     0.063 A 
HETATM   19  C   UNL     1       5.854  33.907  65.747  1.00  0.00     0.122 A 
HETATM   20  N   UNL     1       5.591  33.487  64.497  1.00  0.00    -0.244 NA
BRANCH  17  21
HETATM   21  N   UNL     1       2.684  35.377  66.715  1.00  0.00    -0.287 NA
HETATM   22  H   UNL     1       2.902  35.281  67.704  1.00  0.00     0.125 HD
HETATM   23  H   UNL     1       2.594  36.349  66.444  1.00  0.00     0.125 HD
ENDBRANCH  17  21
ENDBRANCH  14  15
ENDBRANCH  12  14
ENDBRANCH   3  12
BRANCH   9  24
HETATM   24  C   UNL     1       9.201  30.855  61.883  1.00  0.00     0.454 C 
HETATM   25  F   UNL     1      10.123  29.863  62.015  1.00  0.00    -0.163 F 
HETATM   26  F   UNL     1       9.857  32.029  62.089  1.00  0.00    -0.163 F 
HETATM   27  F   UNL     1       8.347  30.711  62.933  1.00  0.00    -0.163 F 
ENDBRANCH   9  24
TORSDOF 5
ENDMDL
MODEL 8
REMARK VINA RESULT:      -8.0      1.946      2.728
REMARK  5 active torsions:
REMARK  status: ('A' for Active; 'I' for Inactive)
REMARK    1  A    between atoms: C_3  and  N_4 
REMARK    2  A    between atoms: N_4  and  C_5 
REMARK    3  A    between atoms: C_5  and  C_6 
REMARK    4  A    between atoms: C_8  and  N_9 
REMARK    5  A    between atoms: C_18  and  C_19 
ROOT
HETATM    1  C   UNL     1       5.941  28.322  53.087  1.00  0.00     0.053 C 
HETATM    2  C   UNL     1       6.495  26.995  53.526  1.00  0.00    -0.005 A 
HETATM    3  C   UNL     1       7.154  26.953  54.898  1.00  0.00     0.151 A 
HETATM    4  N   UNL     1       7.629  25.855  55.426  1.00  0.00    -0.146 NA
HETATM    5  N   UNL     1       7.509  24.755  54.649  1.00  0.00    -0.187 N 
HETATM    6  C   UNL     1       6.952  24.672  53.396  1.00  0.00     0.181 A 
HETATM    7  C   UNL     1       6.414  25.850  52.806  1.00  0.00    -0.003 A 
HETATM    8  C   UNL     1       5.787  25.818  51.432  1.00  0.00     0.053 C 
HETATM    9  C   UNL     1       7.936  23.490  54.943  1.00  0.00     0.258 A 
HETATM   10  N   UNL     1       7.651  22.683  53.935  1.00  0.00    -0.123 NA
HETATM   11  N   UNL     1       7.032  23.431  52.962  1.00  0.00    -0.128 NA
ENDROOT
BRANCH   3  12
HETATM   12  N   UNL     1       7.265  28.103  55.640  1.00  0.00    -0.366 N 
HETATM   13  H   UNL     1       7.673  28.934  55.218  1.00  0.00     0.161 HD
BRANCH  12  14
HETATM   14  C   UNL     1       7.436  28.098  57.092  1.00  0.00     0.201 C 
BRANCH  14  15
HETATM   15  C   UNL     1       8.440  29.152  57.532  1.00  0.00     0.144 A 
HETATM   16  N   UNL     1       9.712  29.031  57.100  1.00  0.00    -0.220 NA
HETATM   17  C   UNL     1      10.573  29.982  57.476  1.00  0.00     0.104 A 
HETATM   18  C   UNL     1      10.211  31.046  58.270  1.00  0.00     0.063 A 
HETATM   19  C   UNL     1       8.893  31.094  58.655  1.00  0.00     0.122 A 
HETATM   20  N   UNL     1       7.983  30.169  58.302  1.00  0.00    -0.244 NA
BRANCH  17  21
HETATM   21  N   UNL     1      11.892  29.827  57.059  1.00  0.00    -0.287 NA
HETATM   22  H   UNL     1      12.480  30.366  57.691  1.00  0.00     0.125 HD
HETATM   23  H   UNL     1      12.172  28.854  57.026  1.00  0.00     0.125 HD
ENDBRANCH  17  21
ENDBRANCH  14  15
ENDBRANCH  12  14
ENDBRANCH   3  12
BRANCH   9  24
HETATM   24  C   UNL     1       8.600  23.187  56.217  1.00  0.00     0.454 C 
HETATM   25  F   UNL     1       7.790  23.388  57.293  1.00  0.00    -0.163 F 
HETATM   26  F   UNL     1       9.031  21.899  56.287  1.00  0.00    -0.163 F 
HETATM   27  F   UNL     1       9.698  23.964  56.428  1.00  0.00    -0.163 F 
ENDBRANCH   9  24
TORSDOF 5
ENDMDL
MODEL 9
REMARK VINA RESULT:      -8.0      3.248      7.217
REMARK  5 active torsions:
REMARK  status: ('A' for Active; 'I' for Inactive)
REMARK    1  A    between atoms: C_3  and  N_4 
REMARK    2  A    between atoms: N_4  and  C_5 
REMARK    3  A    between atoms: C_5  and  C_6 
REMARK    4  A    between atoms: C_8  and  N_9 
REMARK    5  A    between atoms: C_18  and  C_19 
ROOT
HETATM    1  C   UNL     1       4.786  25.291  52.898  1.00  0.00     0.053 C 
HETATM    2  C   UNL     1       5.260  26.301  53.906  1.00  0.00    -0.005 A 
HETATM    3  C   UNL     1       6.314  25.828  54.899  1.00  0.00     0.151 A 
HETATM    4  N   UNL     1       6.853  26.615  55.793  1.00  0.00    -0.146 NA
HETATM    5  N   UNL     1       6.387  27.884  55.786  1.00  0.00    -0.187 N 
HETATM    6  C   UNL     1       5.434  28.421  54.955  1.00  0.00     0.181 A 
HETATM    7  C   UNL     1       4.843  27.589  53.963  1.00  0.00    -0.003 A 
HETATM    8  C   UNL     1       3.791  28.125  53.020  1.00  0.00     0.053 C 
HETATM    9  C   UNL     1       6.759  28.902  56.620  1.00  0.00     0.258 A 
HETATM   10  N   UNL     1       6.078  29.993  56.314  1.00  0.00    -0.123 NA
HETATM   11  N   UNL     1       5.244  29.687  55.265  1.00  0.00    -0.128 NA
ENDROOT
BRANCH   3  12
HETATM   12  N   UNL     1       6.741  24.523  54.875  1.00  0.00    -0.366 N 
HETATM   13  H   UNL     1       6.107  23.783  55.168  1.00  0.00     0.161 HD
BRANCH  12  14
HETATM   14  C   UNL     1       8.139  24.141  55.068  1.00  0.00     0.201 C 
BRANCH  14  15
HETATM   15  C   UNL     1       8.304  22.629  55.058  1.00  0.00     0.144 A 
HETATM   16  N   UNL     1       8.213  21.994  53.871  1.00  0.00    -0.220 NA
HETATM   17  C   UNL     1       8.387  20.669  53.878  1.00  0.00     0.104 A 
HETATM   18  C   UNL     1       8.645  19.955  55.026  1.00  0.00     0.063 A 
HETATM   19  C   UNL     1       8.730  20.686  56.187  1.00  0.00     0.122 A 
HETATM   20  N   UNL     1       8.570  22.020  56.238  1.00  0.00    -0.244 NA
BRANCH  17  21
HETATM   21  N   UNL     1       8.252  20.016  52.656  1.00  0.00    -0.287 NA
HETATM   22  H   UNL     1       8.307  20.720  51.923  1.00  0.00     0.125 HD
HETATM   23  H   UNL     1       8.948  19.290  52.531  1.00  0.00     0.125 HD
ENDBRANCH  17  21
ENDBRANCH  14  15
ENDBRANCH  12  14
ENDBRANCH   3  12
BRANCH   9  24
HETATM   24  C   UNL     1       7.770  28.699  57.665  1.00  0.00     0.454 C 
HETATM   25  F   UNL     1       7.814  29.724  58.560  1.00  0.00    -0.163 F 
HETATM   26  F   UNL     1       7.558  27.562  58.382  1.00  0.00    -0.163 F 
HETATM   27  F   UNL     1       9.028  28.595  57.156  1.00  0.00    -0.163 F 
ENDBRANCH   9  24
TORSDOF 5
ENDMDL
MODEL 10
REMARK VINA RESULT:      -7.7      7.187     11.196
REMARK  5 active torsions:
REMARK  status: ('A' for Active; 'I' for Inactive)
REMARK    1  A    between atoms: C_3  and  N_4 
REMARK    2  A    between atoms: N_4  and  C_5 
REMARK    3  A    between atoms: C_5  and  C_6 
REMARK    4  A    between atoms: C_8  and  N_9 
REMARK    5  A    between atoms: C_18  and  C_19 
ROOT
HETATM    1  C   UNL     1       5.382  32.158  58.640  1.00  0.00     0.053 C 
HETATM    2  C   UNL     1       5.438  32.416  60.120  1.00  0.00    -0.005 A 
HETATM    3  C   UNL     1       6.825  32.546  60.735  1.00  0.00     0.151 A 
HETATM    4  N   UNL     1       7.019  32.824  61.999  1.00  0.00    -0.146 NA
HETATM    5  N   UNL     1       5.891  32.968  62.728  1.00  0.00    -0.187 N 
HETATM    6  C   UNL     1       4.592  32.859  62.291  1.00  0.00     0.181 A 
HETATM    7  C   UNL     1       4.354  32.573  60.918  1.00  0.00    -0.003 A 
HETATM    8  C   UNL     1       2.947  32.444  60.380  1.00  0.00     0.053 C 
HETATM    9  C   UNL     1       5.803  33.237  64.065  1.00  0.00     0.258 A 
HETATM   10  N   UNL     1       4.531  33.295  64.421  1.00  0.00    -0.123 NA
HETATM   11  N   UNL     1       3.771  33.056  63.302  1.00  0.00    -0.128 NA
ENDROOT
BRANCH   3  12
HETATM   12  N   UNL     1       7.941  32.374  59.953  1.00  0.00    -0.366 N 
HETATM   13  H   UNL     1       7.900  32.611  58.965  1.00  0.00     0.161 HD
BRANCH  12  14
HETATM   14  C   UNL     1       8.946  31.348  60.220  1.00  0.00     0.201 C 
BRANCH  14  15
HETATM   15  C   UNL     1       9.320  30.598  58.950  1.00  0.00     0.144 A 
HETATM   16  N   UNL     1       8.577  29.525  58.611  1.00  0.00    -0.220 NA
HETATM   17  C   UNL     1       8.903  28.895  57.478  1.00  0.00     0.104 A 
HETATM   18  C   UNL     1       9.946  29.296  56.675  1.00  0.00     0.063 A 
HETATM   19  C   UNL     1      10.642  30.405  57.093  1.00  0.00     0.122 A 
HETATM   20  N   UNL     1      10.353  31.080  58.219  1.00  0.00    -0.244 NA
BRANCH  17  21
HETATM   21  N   UNL     1       8.158  27.764  57.157  1.00  0.00    -0.287 NA
HETATM   22  H   UNL     1       8.706  27.209  56.503  1.00  0.00     0.125 HD
HETATM   23  H   UNL     1       7.901  27.229  57.978  1.00  0.00     0.125 HD
ENDBRANCH  17  21
ENDBRANCH  14  15
ENDBRANCH  12  14
ENDBRANCH   3  12
BRANCH   9  24
HETATM   24  C   UNL     1       7.008  33.414  64.886  1.00  0.00     0.454 C 
HETATM   25  F   UNL     1       6.729  33.508  66.215  1.00  0.00    -0.163 F 
HETATM   26  F   UNL     1       7.892  32.390  64.742  1.00  0.00    -0.163 F 
HETATM   27  F   UNL     1       7.691  34.548  64.568  1.00  0.00    -0.163 F 
ENDBRANCH   9  24
TORSDOF 5
ENDMDL
