MODEL 1
REMARK VINA RESULT:     -10.6      0.000      0.000
REMARK  5 active torsions:
REMARK  status: ('A' for Active; 'I' for Inactive)
REMARK    1  A    between atoms: C_5  and  C_6 
REMARK    2  A    between atoms: C_14  and  C_15 
REMARK       I    between atoms: C_15  and  N_16 
REMARK    3  A    between atoms: N_16  and  C_17 
REMARK    4  A    between atoms: C_20  and  C_21 
REMARK    5  A    between atoms: C_23  and  N_24 
ROOT
HETATM    1  C   UNL     1       8.242  29.120  57.858  1.00  0.00     0.262 C 
HETATM    2  N   UNL     1       8.243  28.741  56.535  1.00  0.00    -0.301 N 
HETATM    3  O   UNL     1       7.698  28.489  58.757  1.00  0.00    -0.267 OA
HETATM    4  H   UNL     1       8.942  29.098  55.903  1.00  0.00     0.171 HD
ENDROOT
BRANCH   1   5
HETATM    5  C   UNL     1       9.003  30.324  58.172  1.00  0.00     0.095 A 
HETATM    6  C   UNL     1      10.319  30.649  57.891  1.00  0.00     0.093 A 
HETATM    7  C   UNL     1      11.450  30.002  57.198  1.00  0.00     0.080 C 
HETATM    8  O   UNL     1      10.587  31.893  58.368  1.00  0.00    -0.217 OA
HETATM    9  N   UNL     1       9.461  32.431  58.943  1.00  0.00    -0.127 NA
HETATM   10  C   UNL     1       8.501  31.504  58.817  1.00  0.00     0.117 A 
BRANCH  10  11
HETATM   11  C   UNL     1       7.154  31.766  59.300  1.00  0.00     0.056 A 
HETATM   12  C   UNL     1       6.876  32.032  60.647  1.00  0.00     0.049 A 
HETATM   13 CL   UNL     1       8.114  32.078  61.856  1.00  0.00    -0.083 Cl
HETATM   14  C   UNL     1       5.556  32.244  61.068  1.00  0.00     0.025 A 
HETATM   15  C   UNL     1       4.504  32.183  60.153  1.00  0.00     0.005 A 
HETATM   16  C   UNL     1       4.771  31.920  58.813  1.00  0.00     0.043 A 
HETATM   17  C   UNL     1       6.086  31.723  58.396  1.00  0.00     0.130 A 
HETATM   18  F   UNL     1       6.310  31.473  57.095  1.00  0.00    -0.205 F 
ENDBRANCH  10  11
ENDBRANCH   1   5
BRANCH   2  19
HETATM   19  C   UNL     1       7.471  27.746  55.987  1.00  0.00     0.173 A 
HETATM   20  S   UNL     1       5.836  27.985  55.565  1.00  0.00    -0.061 SA
HETATM   21  C   UNL     1       5.759  26.385  54.970  1.00  0.00     0.085 A 
HETATM   22  C   UNL     1       6.992  25.777  55.106  1.00  0.00     0.076 A 
HETATM   23  N   UNL     1       7.976  26.575  55.677  1.00  0.00    -0.223 NA
BRANCH  22  24
HETATM   24  C   UNL     1       7.257  24.394  54.724  1.00  0.00    -0.004 A 
HETATM   25  C   UNL     1       7.539  23.409  55.682  1.00  0.00     0.050 A 
HETATM   26  C   UNL     1       7.825  22.098  55.272  1.00  0.00     0.103 A 
HETATM   27  C   UNL     1       7.829  21.755  53.915  1.00  0.00     0.036 A 
HETATM   28  C   UNL     1       7.534  22.731  52.964  1.00  0.00     0.003 A 
HETATM   29  C   UNL     1       7.247  24.038  53.367  1.00  0.00     0.014 A 
BRANCH  26  30
HETATM   30  N   UNL     1       8.131  21.075  56.281  1.00  0.00    -0.116 N 
HETATM   31  O   UNL     1       8.272  21.449  57.455  1.00  0.00    -0.532 OA
HETATM   32  O   UNL     1       8.234  19.901  55.899  1.00  0.00    -0.532 OA
ENDBRANCH  26  30
ENDBRANCH  22  24
ENDBRANCH   2  19
TORSDOF 5
ENDMDL
MODEL 2
REMARK VINA RESULT:     -10.1      5.494      8.482
REMARK  5 active torsions:
REMARK  status: ('A' for Active; 'I' for Inactive)
REMARK    1  A    between atoms: C_5  and  C_6 
REMARK    2  A    between atoms: C_14  and  C_15 
REMARK       I    between atoms: C_15  and  N_16 
REMARK    3  A    between atoms: N_16  and  C_17 
REMARK    4  A    between atoms: C_20  and  C_21 
REMARK    5  A    between atoms: C_23  and  N_24 
ROOT
HETATM    1  C   UNL     1       6.424  25.580  55.057  1.00  0.00     0.262 C 
HETATM    2  N   UNL     1       6.671  26.640  54.214  1.00  0.00    -0.301 N 
HETATM    3  O   UNL     1       5.426  24.871  55.001  1.00  0.00    -0.267 OA
HETATM    4  H   UNL     1       7.609  26.983  54.088  1.00  0.00     0.171 HD
ENDROOT
BRANCH   1   5
HETATM    5  C   UNL     1       7.476  25.281  56.022  1.00  0.00     0.095 A 
HETATM    6  C   UNL     1       7.931  26.015  57.104  1.00  0.00     0.093 A 
HETATM    7  C   UNL     1       7.588  27.304  57.736  1.00  0.00     0.080 C 
HETATM    8  O   UNL     1       8.924  25.328  57.728  1.00  0.00    -0.217 OA
HETATM    9  N   UNL     1       9.130  24.123  57.101  1.00  0.00    -0.127 NA
HETATM   10  C   UNL     1       8.256  24.079  56.086  1.00  0.00     0.117 A 
BRANCH  10  11
HETATM   11  C   UNL     1       8.184  22.908  55.224  1.00  0.00     0.056 A 
HETATM   12  C   UNL     1       8.048  21.609  55.730  1.00  0.00     0.049 A 
HETATM   13 CL   UNL     1       7.945  21.282  57.426  1.00  0.00    -0.083 Cl
HETATM   14  C   UNL     1       8.019  20.511  54.859  1.00  0.00     0.025 A 
HETATM   15  C   UNL     1       8.135  20.699  53.481  1.00  0.00     0.005 A 
HETATM   16  C   UNL     1       8.271  21.987  52.970  1.00  0.00     0.043 A 
HETATM   17  C   UNL     1       8.286  23.077  53.838  1.00  0.00     0.130 A 
HETATM   18  F   UNL     1       8.417  24.305  53.313  1.00  0.00    -0.205 F 
ENDBRANCH  10  11
ENDBRANCH   1   5
BRANCH   2  19
HETATM   19  C   UNL     1       5.765  27.200  53.346  1.00  0.00     0.173 A 
HETATM   20  S   UNL     1       4.615  28.356  53.844  1.00  0.00    -0.061 SA
HETATM   21  C   UNL     1       4.056  28.488  52.235  1.00  0.00     0.085 A 
HETATM   22  C   UNL     1       4.798  27.662  51.413  1.00  0.00     0.076 A 
HETATM   23  N   UNL     1       5.791  26.936  52.060  1.00  0.00    -0.223 NA
BRANCH  22  24
HETATM   24  C   UNL     1       4.553  27.513  49.983  1.00  0.00    -0.004 A 
HETATM   25  C   UNL     1       3.917  26.378  49.461  1.00  0.00     0.050 A 
HETATM   26  C   UNL     1       3.733  26.256  48.075  1.00  0.00     0.103 A 
HETATM   27  C   UNL     1       4.173  27.257  47.202  1.00  0.00     0.036 A 
HETATM   28  C   UNL     1       4.792  28.392  47.722  1.00  0.00     0.003 A 
HETATM   29  C   UNL     1       4.976  28.520  49.102  1.00  0.00     0.014 A 
BRANCH  26  30
HETATM   30  N   UNL     1       3.075  25.058  47.536  1.00  0.00    -0.116 N 
HETATM   31  O   UNL     1       2.747  25.070  46.340  1.00  0.00    -0.532 OA
HETATM   32  O   UNL     1       2.884  24.109  48.308  1.00  0.00    -0.532 OA
ENDBRANCH  26  30
ENDBRANCH  22  24
ENDBRANCH   2  19
TORSDOF 5
ENDMDL
MODEL 3
REMARK VINA RESULT:     -10.0      6.646      8.995
REMARK  5 active torsions:
REMARK  status: ('A' for Active; 'I' for Inactive)
REMARK    1  A    between atoms: C_5  and  C_6 
REMARK    2  A    between atoms: C_14  and  C_15 
REMARK       I    between atoms: C_15  and  N_16 
REMARK    3  A    between atoms: N_16  and  C_17 
REMARK    4  A    between atoms: C_20  and  C_21 
REMARK    5  A    between atoms: C_23  and  N_24 
ROOT
HETATM    1  C   UNL     1       4.652  26.906  49.823  1.00  0.00     0.262 C 
HETATM    2  N   UNL     1       4.423  25.930  50.767  1.00  0.00    -0.301 N 
HETATM    3  O   UNL     1       5.589  27.696  49.858  1.00  0.00    -0.267 OA
HETATM    4  H   UNL     1       3.855  25.130  50.544  1.00  0.00     0.171 HD
ENDROOT
BRANCH   1   5
HETATM    5  C   UNL     1       3.728  26.922  48.694  1.00  0.00     0.095 A 
HETATM    6  C   UNL     1       3.127  25.876  48.015  1.00  0.00     0.093 A 
HETATM    7  C   UNL     1       3.127  24.403  48.116  1.00  0.00     0.080 C 
HETATM    8  O   UNL     1       2.327  26.375  47.036  1.00  0.00    -0.217 OA
HETATM    9  N   UNL     1       2.353  27.748  47.060  1.00  0.00    -0.127 NA
HETATM   10  C   UNL     1       3.178  28.086  48.061  1.00  0.00     0.117 A 
BRANCH  10  11
HETATM   11  C   UNL     1       3.410  29.486  48.385  1.00  0.00     0.056 A 
HETATM   12  C   UNL     1       2.690  30.156  49.382  1.00  0.00     0.049 A 
HETATM   13 CL   UNL     1       1.463  29.376  50.322  1.00  0.00    -0.083 Cl
HETATM   14  C   UNL     1       2.926  31.516  49.632  1.00  0.00     0.025 A 
HETATM   15  C   UNL     1       3.874  32.216  48.885  1.00  0.00     0.005 A 
HETATM   16  C   UNL     1       4.595  31.558  47.893  1.00  0.00     0.043 A 
HETATM   17  C   UNL     1       4.365  30.204  47.656  1.00  0.00     0.130 A 
HETATM   18  F   UNL     1       5.079  29.598  46.693  1.00  0.00    -0.205 F 
ENDBRANCH  10  11
ENDBRANCH   1   5
BRANCH   2  19
HETATM   19  C   UNL     1       5.057  25.829  51.981  1.00  0.00     0.173 A 
HETATM   20  S   UNL     1       4.785  26.935  53.250  1.00  0.00    -0.061 SA
HETATM   21  C   UNL     1       5.845  26.043  54.250  1.00  0.00     0.085 A 
HETATM   22  C   UNL     1       6.320  24.943  53.564  1.00  0.00     0.076 A 
HETATM   23  N   UNL     1       5.847  24.819  52.263  1.00  0.00    -0.223 NA
BRANCH  22  24
HETATM   24  C   UNL     1       7.275  23.992  54.123  1.00  0.00    -0.004 A 
HETATM   25  C   UNL     1       7.432  22.707  53.584  1.00  0.00     0.050 A 
HETATM   26  C   UNL     1       8.335  21.808  54.173  1.00  0.00     0.103 A 
HETATM   27  C   UNL     1       9.088  22.179  55.294  1.00  0.00     0.036 A 
HETATM   28  C   UNL     1       8.942  23.461  55.820  1.00  0.00     0.003 A 
HETATM   29  C   UNL     1       8.045  24.361  55.235  1.00  0.00     0.014 A 
BRANCH  26  30
HETATM   30  N   UNL     1       8.485  20.460  53.610  1.00  0.00    -0.116 N 
HETATM   31  O   UNL     1       8.792  19.543  54.385  1.00  0.00    -0.532 OA
HETATM   32  O   UNL     1       8.301  20.321  52.392  1.00  0.00    -0.532 OA
ENDBRANCH  26  30
ENDBRANCH  22  24
ENDBRANCH   2  19
TORSDOF 5
ENDMDL
MODEL 4
REMARK VINA RESULT:      -9.9      3.977      9.335
REMARK  5 active torsions:
REMARK  status: ('A' for Active; 'I' for Inactive)
REMARK    1  A    between atoms: C_5  and  C_6 
REMARK    2  A    between atoms: C_14  and  C_15 
REMARK       I    between atoms: C_15  and  N_16 
REMARK    3  A    between atoms: N_16  and  C_17 
REMARK    4  A    between atoms: C_20  and  C_21 
REMARK    5  A    between atoms: C_23  and  N_24 
ROOT
HETATM    1  C   UNL     1       7.165  27.841  54.944  1.00  0.00     0.262 C 
HETATM    2  N   UNL     1       7.127  27.923  56.317  1.00  0.00    -0.301 N 
HETATM    3  O   UNL     1       8.051  28.323  54.247  1.00  0.00    -0.267 OA
HETATM    4  H   UNL     1       6.579  27.269  56.852  1.00  0.00     0.171 HD
ENDROOT
BRANCH   1   5
HETATM    5  C   UNL     1       6.093  27.069  54.327  1.00  0.00     0.095 A 
HETATM    6  C   UNL     1       4.954  27.491  53.662  1.00  0.00     0.093 A 
HETATM    7  C   UNL     1       4.360  28.790  53.289  1.00  0.00     0.080 C 
HETATM    8  O   UNL     1       4.249  26.407  53.243  1.00  0.00    -0.217 OA
HETATM    9  N   UNL     1       4.910  25.253  53.588  1.00  0.00    -0.127 NA
HETATM   10  C   UNL     1       6.024  25.639  54.225  1.00  0.00     0.117 A 
BRANCH  10  11
HETATM   11  C   UNL     1       6.980  24.652  54.704  1.00  0.00     0.056 A 
HETATM   12  C   UNL     1       7.900  24.023  53.856  1.00  0.00     0.049 A 
HETATM   13 CL   UNL     1       7.986  24.369  52.163  1.00  0.00    -0.083 Cl
HETATM   14  C   UNL     1       8.777  23.052  54.361  1.00  0.00     0.025 A 
HETATM   15  C   UNL     1       8.736  22.696  55.710  1.00  0.00     0.005 A 
HETATM   16  C   UNL     1       7.825  23.317  56.559  1.00  0.00     0.043 A 
HETATM   17  C   UNL     1       6.964  24.290  56.056  1.00  0.00     0.130 A 
HETATM   18  F   UNL     1       6.098  24.870  56.903  1.00  0.00    -0.205 F 
ENDBRANCH  10  11
ENDBRANCH   1   5
BRANCH   2  19
HETATM   19  C   UNL     1       7.929  28.724  57.093  1.00  0.00     0.173 A 
HETATM   20  S   UNL     1       9.538  29.094  56.667  1.00  0.00    -0.061 SA
HETATM   21  C   UNL     1       9.672  30.088  58.051  1.00  0.00     0.085 A 
HETATM   22  C   UNL     1       8.474  30.097  58.737  1.00  0.00     0.076 A 
HETATM   23  N   UNL     1       7.470  29.321  58.169  1.00  0.00    -0.223 NA
BRANCH  22  24
HETATM   24  C   UNL     1       8.263  30.822  59.986  1.00  0.00    -0.004 A 
HETATM   25  C   UNL     1       7.239  31.770  60.120  1.00  0.00     0.050 A 
HETATM   26  C   UNL     1       7.092  32.474  61.325  1.00  0.00     0.103 A 
HETATM   27  C   UNL     1       7.955  32.239  62.403  1.00  0.00     0.036 A 
HETATM   28  C   UNL     1       8.964  31.286  62.274  1.00  0.00     0.003 A 
HETATM   29  C   UNL     1       9.113  30.581  61.076  1.00  0.00     0.014 A 
BRANCH  26  30
HETATM   30  N   UNL     1       6.024  33.473  61.454  1.00  0.00    -0.116 N 
HETATM   31  O   UNL     1       6.192  34.395  62.265  1.00  0.00    -0.532 OA
HETATM   32  O   UNL     1       5.016  33.333  60.747  1.00  0.00    -0.532 OA
ENDBRANCH  26  30
ENDBRANCH  22  24
ENDBRANCH   2  19
TORSDOF 5
ENDMDL
MODEL 5
REMARK VINA RESULT:      -9.8      1.675      2.120
REMARK  5 active torsions:
REMARK  status: ('A' for Active; 'I' for Inactive)
REMARK    1  A    between atoms: C_5  and  C_6 
REMARK    2  A    between atoms: C_14  and  C_15 
REMARK       I    between atoms: C_15  and  N_16 
REMARK    3  A    between atoms: N_16  and  C_17 
REMARK    4  A    between atoms: C_20  and  C_21 
REMARK    5  A    between atoms: C_23  and  N_24 
ROOT
HETATM    1  C   UNL     1       7.573  29.731  58.249  1.00  0.00     0.262 C 
HETATM    2  N   UNL     1       8.131  28.496  58.008  1.00  0.00    -0.301 N 
HETATM    3  O   UNL     1       6.370  29.963  58.217  1.00  0.00    -0.267 OA
HETATM    4  H   UNL     1       9.056  28.280  58.343  1.00  0.00     0.171 HD
ENDROOT
BRANCH   1   5
HETATM    5  C   UNL     1       8.509  30.785  58.623  1.00  0.00     0.095 A 
HETATM    6  C   UNL     1       9.748  31.109  58.097  1.00  0.00     0.093 A 
HETATM    7  C   UNL     1      10.609  30.601  57.010  1.00  0.00     0.080 C 
HETATM    8  O   UNL     1      10.251  32.184  58.759  1.00  0.00    -0.217 OA
HETATM    9  N   UNL     1       9.356  32.614  59.709  1.00  0.00    -0.127 NA
HETATM   10  C   UNL     1       8.301  31.791  59.624  1.00  0.00     0.117 A 
BRANCH  10  11
HETATM   11  C   UNL     1       7.142  31.988  60.482  1.00  0.00     0.056 A 
HETATM   12  C   UNL     1       7.116  31.571  61.819  1.00  0.00     0.049 A 
HETATM   13 CL   UNL     1       8.465  30.791  62.572  1.00  0.00    -0.083 Cl
HETATM   14  C   UNL     1       5.962  31.752  62.593  1.00  0.00     0.025 A 
HETATM   15  C   UNL     1       4.824  32.339  62.038  1.00  0.00     0.005 A 
HETATM   16  C   UNL     1       4.841  32.756  60.710  1.00  0.00     0.043 A 
HETATM   17  C   UNL     1       5.995  32.586  59.948  1.00  0.00     0.130 A 
HETATM   18  F   UNL     1       5.979  33.001  58.671  1.00  0.00    -0.205 F 
ENDBRANCH  10  11
ENDBRANCH   1   5
BRANCH   2  19
HETATM   19  C   UNL     1       7.472  27.408  57.488  1.00  0.00     0.173 A 
HETATM   20  S   UNL     1       5.818  27.453  57.075  1.00  0.00    -0.061 SA
HETATM   21  C   UNL     1       5.919  25.840  56.516  1.00  0.00     0.085 A 
HETATM   22  C   UNL     1       7.212  25.377  56.655  1.00  0.00     0.076 A 
HETATM   23  N   UNL     1       8.104  26.294  57.201  1.00  0.00    -0.223 NA
BRANCH  22  24
HETATM   24  C   UNL     1       7.628  24.024  56.303  1.00  0.00    -0.004 A 
HETATM   25  C   UNL     1       7.545  23.550  54.986  1.00  0.00     0.050 A 
HETATM   26  C   UNL     1       7.920  22.229  54.694  1.00  0.00     0.103 A 
HETATM   27  C   UNL     1       8.383  21.376  55.702  1.00  0.00     0.036 A 
HETATM   28  C   UNL     1       8.480  21.852  57.009  1.00  0.00     0.003 A 
HETATM   29  C   UNL     1       8.109  23.167  57.304  1.00  0.00     0.014 A 
BRANCH  26  30
HETATM   30  N   UNL     1       7.819  21.737  53.314  1.00  0.00    -0.116 N 
HETATM   31  O   UNL     1       7.771  20.510  53.143  1.00  0.00    -0.532 OA
HETATM   32  O   UNL     1       7.793  22.577  52.404  1.00  0.00    -0.532 OA
ENDBRANCH  26  30
ENDBRANCH  22  24
ENDBRANCH   2  19
TORSDOF 5
ENDMDL
MODEL 6
REMARK VINA RESULT:      -9.6      6.004      8.920
REMARK  5 active torsions:
REMARK  status: ('A' for Active; 'I' for Inactive)
REMARK    1  A    between atoms: C_5  and  C_6 
REMARK    2  A    between atoms: C_14  and  C_15 
REMARK       I    between atoms: C_15  and  N_16 
REMARK    3  A    between atoms: N_16  and  C_17 
REMARK    4  A    between atoms: C_20  and  C_21 
REMARK    5  A    between atoms: C_23  and  N_24 
ROOT
HETATM    1  C   UNL     1       6.136  25.888  54.889  1.00  0.00     0.262 C 
HETATM    2  N   UNL     1       6.263  27.023  54.121  1.00  0.00    -0.301 N 
HETATM    3  O   UNL     1       5.222  25.078  54.781  1.00  0.00    -0.267 OA
HETATM    4  H   UNL     1       7.157  27.475  54.023  1.00  0.00     0.171 HD
ENDROOT
BRANCH   1   5
HETATM    5  C   UNL     1       7.216  25.644  55.839  1.00  0.00     0.095 A 
HETATM    6  C   UNL     1       7.659  26.407  56.905  1.00  0.00     0.093 A 
HETATM    7  C   UNL     1       7.274  27.689  57.529  1.00  0.00     0.080 C 
HETATM    8  O   UNL     1       8.691  25.769  57.518  1.00  0.00    -0.217 OA
HETATM    9  N   UNL     1       8.935  24.567  56.900  1.00  0.00    -0.127 NA
HETATM   10  C   UNL     1       8.046  24.475  55.901  1.00  0.00     0.117 A 
BRANCH  10  11
HETATM   11  C   UNL     1       8.008  23.293  55.053  1.00  0.00     0.056 A 
HETATM   12  C   UNL     1       8.109  23.365  53.658  1.00  0.00     0.049 A 
HETATM   13 CL   UNL     1       8.296  24.868  52.819  1.00  0.00    -0.083 Cl
HETATM   14  C   UNL     1       8.032  22.200  52.882  1.00  0.00     0.025 A 
HETATM   15  C   UNL     1       7.844  20.958  53.491  1.00  0.00     0.005 A 
HETATM   16  C   UNL     1       7.743  20.877  54.876  1.00  0.00     0.043 A 
HETATM   17  C   UNL     1       7.833  22.037  55.644  1.00  0.00     0.130 A 
HETATM   18  F   UNL     1       7.733  21.924  56.979  1.00  0.00    -0.205 F 
ENDBRANCH  10  11
ENDBRANCH   1   5
BRANCH   2  19
HETATM   19  C   UNL     1       5.299  27.535  53.287  1.00  0.00     0.173 A 
HETATM   20  S   UNL     1       4.140  28.669  53.816  1.00  0.00    -0.061 SA
HETATM   21  C   UNL     1       3.499  28.747  52.234  1.00  0.00     0.085 A 
HETATM   22  C   UNL     1       4.225  27.925  51.395  1.00  0.00     0.076 A 
HETATM   23  N   UNL     1       5.270  27.244  52.007  1.00  0.00    -0.223 NA
BRANCH  22  24
HETATM   24  C   UNL     1       3.915  27.736  49.981  1.00  0.00    -0.004 A 
HETATM   25  C   UNL     1       2.654  28.054  49.458  1.00  0.00     0.050 A 
HETATM   26  C   UNL     1       2.383  27.823  48.100  1.00  0.00     0.103 A 
HETATM   27  C   UNL     1       3.359  27.281  47.256  1.00  0.00     0.036 A 
HETATM   28  C   UNL     1       4.617  26.978  47.774  1.00  0.00     0.003 A 
HETATM   29  C   UNL     1       4.893  27.208  49.125  1.00  0.00     0.014 A 
BRANCH  26  30
HETATM   30  N   UNL     1       1.056  28.149  47.562  1.00  0.00    -0.116 N 
HETATM   31  O   UNL     1       0.258  27.216  47.393  1.00  0.00    -0.532 OA
HETATM   32  O   UNL     1       0.814  29.337  47.304  1.00  0.00    -0.532 OA
ENDBRANCH  26  30
ENDBRANCH  22  24
ENDBRANCH   2  19
TORSDOF 5
ENDMDL
MODEL 7
REMARK VINA RESULT:      -9.5      6.686      8.820
REMARK  5 active torsions:
REMARK  status: ('A' for Active; 'I' for Inactive)
REMARK    1  A    between atoms: C_5  and  C_6 
REMARK    2  A    between atoms: C_14  and  C_15 
REMARK       I    between atoms: C_15  and  N_16 
REMARK    3  A    between atoms: N_16  and  C_17 
REMARK    4  A    between atoms: C_20  and  C_21 
REMARK    5  A    between atoms: C_23  and  N_24 
ROOT
HETATM    1  C   UNL     1       4.514  27.225  49.583  1.00  0.00     0.262 C 
HETATM    2  N   UNL     1       4.304  26.310  50.590  1.00  0.00    -0.301 N 
HETATM    3  O   UNL     1       5.541  27.880  49.447  1.00  0.00    -0.267 OA
HETATM    4  H   UNL     1       3.607  25.590  50.487  1.00  0.00     0.171 HD
ENDROOT
BRANCH   1   5
HETATM    5  C   UNL     1       3.440  27.343  48.603  1.00  0.00     0.095 A 
HETATM    6  C   UNL     1       2.882  26.390  47.768  1.00  0.00     0.093 A 
HETATM    7  C   UNL     1       3.080  24.949  47.517  1.00  0.00     0.080 C 
HETATM    8  O   UNL     1       1.892  26.960  47.032  1.00  0.00    -0.217 OA
HETATM    9  N   UNL     1       1.749  28.282  47.378  1.00  0.00    -0.127 NA
HETATM   10  C   UNL     1       2.663  28.518  48.330  1.00  0.00     0.117 A 
BRANCH  10  11
HETATM   11  C   UNL     1       2.763  29.832  48.947  1.00  0.00     0.056 A 
HETATM   12  C   UNL     1       3.597  30.838  48.443  1.00  0.00     0.049 A 
HETATM   13 CL   UNL     1       4.577  30.610  47.034  1.00  0.00    -0.083 Cl
HETATM   14  C   UNL     1       3.684  32.076  49.095  1.00  0.00     0.025 A 
HETATM   15  C   UNL     1       2.950  32.315  50.257  1.00  0.00     0.005 A 
HETATM   16  C   UNL     1       2.120  31.321  50.765  1.00  0.00     0.043 A 
HETATM   17  C   UNL     1       2.026  30.096  50.107  1.00  0.00     0.130 A 
HETATM   18  F   UNL     1       1.214  29.159  50.622  1.00  0.00    -0.205 F 
ENDBRANCH  10  11
ENDBRANCH   1   5
BRANCH   2  19
HETATM   19  C   UNL     1       5.095  26.148  51.701  1.00  0.00     0.173 A 
HETATM   20  S   UNL     1       5.327  27.390  52.847  1.00  0.00    -0.061 SA
HETATM   21  C   UNL     1       6.294  26.339  53.785  1.00  0.00     0.085 A 
HETATM   22  C   UNL     1       6.358  25.099  53.180  1.00  0.00     0.076 A 
HETATM   23  N   UNL     1       5.650  24.994  51.989  1.00  0.00    -0.223 NA
BRANCH  22  24
HETATM   24  C   UNL     1       7.134  23.981  53.708  1.00  0.00    -0.004 A 
HETATM   25  C   UNL     1       7.374  23.839  55.082  1.00  0.00     0.050 A 
HETATM   26  C   UNL     1       8.157  22.770  55.547  1.00  0.00     0.103 A 
HETATM   27  C   UNL     1       8.699  21.837  54.655  1.00  0.00     0.036 A 
HETATM   28  C   UNL     1       8.448  21.971  53.291  1.00  0.00     0.003 A 
HETATM   29  C   UNL     1       7.668  23.033  52.823  1.00  0.00     0.014 A 
BRANCH  26  30
HETATM   30  N   UNL     1       8.413  22.635  56.987  1.00  0.00    -0.116 N 
HETATM   31  O   UNL     1       8.697  23.662  57.620  1.00  0.00    -0.532 OA
HETATM   32  O   UNL     1       8.334  21.502  57.482  1.00  0.00    -0.532 OA
ENDBRANCH  26  30
ENDBRANCH  22  24
ENDBRANCH   2  19
TORSDOF 5
ENDMDL
MODEL 8
REMARK VINA RESULT:      -9.3      3.391      8.583
REMARK  5 active torsions:
REMARK  status: ('A' for Active; 'I' for Inactive)
REMARK    1  A    between atoms: C_5  and  C_6 
REMARK    2  A    between atoms: C_14  and  C_15 
REMARK       I    between atoms: C_15  and  N_16 
REMARK    3  A    between atoms: N_16  and  C_17 
REMARK    4  A    between atoms: C_20  and  C_21 
REMARK    5  A    between atoms: C_23  and  N_24 
ROOT
HETATM    1  C   UNL     1       7.908  26.444  57.075  1.00  0.00     0.262 C 
HETATM    2  N   UNL     1       8.108  27.736  56.644  1.00  0.00    -0.301 N 
HETATM    3  O   UNL     1       8.053  26.072  58.234  1.00  0.00    -0.267 OA
HETATM    4  H   UNL     1       7.687  28.059  55.789  1.00  0.00     0.171 HD
ENDROOT
BRANCH   1   5
HETATM    5  C   UNL     1       7.433  25.507  56.063  1.00  0.00     0.095 A 
HETATM    6  C   UNL     1       7.817  24.203  55.801  1.00  0.00     0.093 A 
HETATM    7  C   UNL     1       8.778  23.241  56.376  1.00  0.00     0.080 C 
HETATM    8  O   UNL     1       7.083  23.717  54.765  1.00  0.00    -0.217 OA
HETATM    9  N   UNL     1       6.184  24.665  54.339  1.00  0.00    -0.127 NA
HETATM   10  C   UNL     1       6.375  25.736  55.121  1.00  0.00     0.117 A 
BRANCH  10  11
HETATM   11  C   UNL     1       5.553  26.926  54.957  1.00  0.00     0.056 A 
HETATM   12  C   UNL     1       5.566  27.692  53.784  1.00  0.00     0.049 A 
HETATM   13 CL   UNL     1       6.555  27.286  52.423  1.00  0.00    -0.083 Cl
HETATM   14  C   UNL     1       4.781  28.850  53.687  1.00  0.00     0.025 A 
HETATM   15  C   UNL     1       3.989  29.257  54.762  1.00  0.00     0.005 A 
HETATM   16  C   UNL     1       3.970  28.502  55.930  1.00  0.00     0.043 A 
HETATM   17  C   UNL     1       4.741  27.344  56.017  1.00  0.00     0.130 A 
HETATM   18  F   UNL     1       4.700  26.638  57.158  1.00  0.00    -0.205 F 
ENDBRANCH  10  11
ENDBRANCH   1   5
BRANCH   2  19
HETATM   19  C   UNL     1       8.702  28.739  57.372  1.00  0.00     0.173 A 
HETATM   20  S   UNL     1      10.203  29.420  56.936  1.00  0.00    -0.061 SA
HETATM   21  C   UNL     1      10.088  30.505  58.252  1.00  0.00     0.085 A 
HETATM   22  C   UNL     1       8.901  30.298  58.926  1.00  0.00     0.076 A 
HETATM   23  N   UNL     1       8.101  29.289  58.402  1.00  0.00    -0.223 NA
BRANCH  22  24
HETATM   24  C   UNL     1       8.511  31.037  60.122  1.00  0.00    -0.004 A 
HETATM   25  C   UNL     1       7.289  31.721  60.196  1.00  0.00     0.050 A 
HETATM   26  C   UNL     1       6.967  32.452  61.350  1.00  0.00     0.103 A 
HETATM   27  C   UNL     1       7.850  32.506  62.435  1.00  0.00     0.036 A 
HETATM   28  C   UNL     1       9.058  31.815  62.366  1.00  0.00     0.003 A 
HETATM   29  C   UNL     1       9.383  31.083  61.220  1.00  0.00     0.014 A 
BRANCH  26  30
HETATM   30  N   UNL     1       5.690  33.174  61.415  1.00  0.00    -0.116 N 
HETATM   31  O   UNL     1       4.661  32.553  61.110  1.00  0.00    -0.532 OA
HETATM   32  O   UNL     1       5.716  34.362  61.766  1.00  0.00    -0.532 OA
ENDBRANCH  26  30
ENDBRANCH  22  24
ENDBRANCH   2  19
TORSDOF 5
ENDMDL
MODEL 9
REMARK VINA RESULT:      -9.3      2.406      3.130
REMARK  5 active torsions:
REMARK  status: ('A' for Active; 'I' for Inactive)
REMARK    1  A    between atoms: C_5  and  C_6 
REMARK    2  A    between atoms: C_14  and  C_15 
REMARK       I    between atoms: C_15  and  N_16 
REMARK    3  A    between atoms: N_16  and  C_17 
REMARK    4  A    between atoms: C_20  and  C_21 
REMARK    5  A    between atoms: C_23  and  N_24 
ROOT
HETATM    1  C   UNL     1       5.711  29.393  56.972  1.00  0.00     0.262 C 
HETATM    2  N   UNL     1       6.892  28.890  56.476  1.00  0.00    -0.301 N 
HETATM    3  O   UNL     1       4.950  28.773  57.706  1.00  0.00    -0.267 OA
HETATM    4  H   UNL     1       7.616  29.511  56.153  1.00  0.00     0.171 HD
ENDROOT
BRANCH   1   5
HETATM    5  C   UNL     1       5.420  30.780  56.626  1.00  0.00     0.095 A 
HETATM    6  C   UNL     1       4.844  31.315  55.487  1.00  0.00     0.093 A 
HETATM    7  C   UNL     1       4.294  30.786  54.223  1.00  0.00     0.080 C 
HETATM    8  O   UNL     1       4.759  32.665  55.617  1.00  0.00    -0.217 OA
HETATM    9  N   UNL     1       5.244  33.052  56.843  1.00  0.00    -0.127 NA
HETATM   10  C   UNL     1       5.629  31.927  57.462  1.00  0.00     0.117 A 
BRANCH  10  11
HETATM   11  C   UNL     1       6.168  31.976  58.813  1.00  0.00     0.056 A 
HETATM   12  C   UNL     1       5.385  32.319  59.923  1.00  0.00     0.049 A 
HETATM   13 CL   UNL     1       3.704  32.709  59.786  1.00  0.00    -0.083 Cl
HETATM   14  C   UNL     1       5.961  32.385  61.200  1.00  0.00     0.025 A 
HETATM   15  C   UNL     1       7.320  32.120  61.376  1.00  0.00     0.005 A 
HETATM   16  C   UNL     1       8.104  31.778  60.279  1.00  0.00     0.043 A 
HETATM   17  C   UNL     1       7.525  31.701  59.013  1.00  0.00     0.130 A 
HETATM   18  F   UNL     1       8.310  31.367  57.976  1.00  0.00    -0.205 F 
ENDBRANCH  10  11
ENDBRANCH   1   5
BRANCH   2  19
HETATM   19  C   UNL     1       7.289  27.576  56.535  1.00  0.00     0.173 A 
HETATM   20  S   UNL     1       7.842  26.852  57.977  1.00  0.00    -0.061 SA
HETATM   21  C   UNL     1       8.015  25.362  57.157  1.00  0.00     0.085 A 
HETATM   22  C   UNL     1       7.616  25.503  55.843  1.00  0.00     0.076 A 
HETATM   23  N   UNL     1       7.184  26.778  55.498  1.00  0.00    -0.223 NA
BRANCH  22  24
HETATM   24  C   UNL     1       7.673  24.424  54.862  1.00  0.00    -0.004 A 
HETATM   25  C   UNL     1       7.767  23.081  55.252  1.00  0.00     0.050 A 
HETATM   26  C   UNL     1       7.856  22.075  54.277  1.00  0.00     0.103 A 
HETATM   27  C   UNL     1       7.848  22.394  52.914  1.00  0.00     0.036 A 
HETATM   28  C   UNL     1       7.740  23.729  52.526  1.00  0.00     0.003 A 
HETATM   29  C   UNL     1       7.649  24.734  53.494  1.00  0.00     0.014 A 
BRANCH  26  30
HETATM   30  N   UNL     1       7.966  20.671  54.694  1.00  0.00    -0.116 N 
HETATM   31  O   UNL     1       7.490  20.359  55.796  1.00  0.00    -0.532 OA
HETATM   32  O   UNL     1       8.531  19.883  53.923  1.00  0.00    -0.532 OA
ENDBRANCH  26  30
ENDBRANCH  22  24
ENDBRANCH   2  19
TORSDOF 5
ENDMDL
MODEL 10
REMARK VINA RESULT:      -9.2      5.791      7.899
REMARK  5 active torsions:
REMARK  status: ('A' for Active; 'I' for Inactive)
REMARK    1  A    between atoms: C_5  and  C_6 
REMARK    2  A    between atoms: C_14  and  C_15 
REMARK       I    between atoms: C_15  and  N_16 
REMARK    3  A    between atoms: N_16  and  C_17 
REMARK    4  A    between atoms: C_20  and  C_21 
REMARK    5  A    between atoms: C_23  and  N_24 
ROOT
HETATM    1  C   UNL     1       5.057  28.804  55.119  1.00  0.00     0.262 C 
HETATM    2  N   UNL     1       5.360  29.249  53.852  1.00  0.00    -0.301 N 
HETATM    3  O   UNL     1       3.925  28.537  55.506  1.00  0.00    -0.267 OA
HETATM    4  H   UNL     1       6.294  29.154  53.489  1.00  0.00     0.171 HD
ENDROOT
BRANCH   1   5
HETATM    5  C   UNL     1       6.197  28.593  56.004  1.00  0.00     0.095 A 
HETATM    6  C   UNL     1       6.633  29.329  57.092  1.00  0.00     0.093 A 
HETATM    7  C   UNL     1       6.184  30.542  57.806  1.00  0.00     0.080 C 
HETATM    8  O   UNL     1       7.738  28.740  57.622  1.00  0.00    -0.217 OA
HETATM    9  N   UNL     1       8.041  27.595  56.925  1.00  0.00    -0.127 NA
HETATM   10  C   UNL     1       7.114  27.490  55.963  1.00  0.00     0.117 A 
BRANCH  10  11
HETATM   11  C   UNL     1       7.123  26.356  55.051  1.00  0.00     0.056 A 
HETATM   12  C   UNL     1       6.567  25.115  55.388  1.00  0.00     0.049 A 
HETATM   13 CL   UNL     1       5.813  24.823  56.919  1.00  0.00    -0.083 Cl
HETATM   14  C   UNL     1       6.632  24.043  54.487  1.00  0.00     0.025 A 
HETATM   15  C   UNL     1       7.260  24.198  53.250  1.00  0.00     0.005 A 
HETATM   16  C   UNL     1       7.814  25.427  52.907  1.00  0.00     0.043 A 
HETATM   17  C   UNL     1       7.736  26.494  53.800  1.00  0.00     0.130 A 
HETATM   18  F   UNL     1       8.279  27.667  53.438  1.00  0.00    -0.205 F 
ENDBRANCH  10  11
ENDBRANCH   1   5
BRANCH   2  19
HETATM   19  C   UNL     1       4.449  29.668  52.913  1.00  0.00     0.173 A 
HETATM   20  S   UNL     1       3.646  31.168  53.024  1.00  0.00    -0.061 SA
HETATM   21  C   UNL     1       2.864  30.855  51.537  1.00  0.00     0.085 A 
HETATM   22  C   UNL     1       3.284  29.638  51.036  1.00  0.00     0.076 A 
HETATM   23  N   UNL     1       4.210  28.970  51.827  1.00  0.00    -0.223 NA
BRANCH  22  24
HETATM   24  C   UNL     1       2.781  29.058  49.795  1.00  0.00    -0.004 A 
HETATM   25  C   UNL     1       3.440  27.995  49.161  1.00  0.00     0.050 A 
HETATM   26  C   UNL     1       2.945  27.490  47.949  1.00  0.00     0.103 A 
HETATM   27  C   UNL     1       1.795  28.030  47.363  1.00  0.00     0.036 A 
HETATM   28  C   UNL     1       1.131  29.078  48.000  1.00  0.00     0.003 A 
HETATM   29  C   UNL     1       1.620  29.584  49.209  1.00  0.00     0.014 A 
BRANCH  26  30
HETATM   30  N   UNL     1       3.647  26.383  47.286  1.00  0.00    -0.116 N 
HETATM   31  O   UNL     1       2.959  25.510  46.737  1.00  0.00    -0.532 OA
HETATM   32  O   UNL     1       4.886  26.385  47.319  1.00  0.00    -0.532 OA
ENDBRANCH  26  30
ENDBRANCH  22  24
ENDBRANCH   2  19
TORSDOF 5
ENDMDL
