MODEL 1
REMARK VINA RESULT:     -10.8      0.000      0.000
REMARK  6 active torsions:
REMARK  status: ('A' for Active; 'I' for Inactive)
REMARK    1  A    between atoms: C_5  and  C_6 
REMARK    2  A    between atoms: C_6  and  S_7 
REMARK    3  A    between atoms: S_7  and  C_8 
REMARK    4  A    between atoms: C_10  and  N_11 
REMARK       I    between atoms: N_11  and  C_12 
REMARK    5  A    between atoms: C_12  and  C_13 
REMARK    6  A    between atoms: C_14  and  C_15 
ROOT
HETATM    1  C   UNL     1       7.544  28.300  56.667  1.00  0.00     0.160 A 
HETATM    2  S   UNL     1       6.542  29.556  57.251  1.00  0.00    -0.022 SA
HETATM    3  C   UNL     1       7.654  29.761  58.524  1.00  0.00     0.197 A 
HETATM    4  N   UNL     1       8.670  28.924  58.496  1.00  0.00    -0.122 NA
HETATM    5  N   UNL     1       8.604  28.066  57.412  1.00  0.00    -0.133 NA
ENDROOT
BRANCH   3   6
HETATM    6  N   UNL     1       7.535  30.733  59.489  1.00  0.00    -0.301 N 
HETATM    7  C   UNL     1       8.342  31.833  59.637  1.00  0.00     0.247 C 
HETATM    8  O   UNL     1       9.258  32.185  58.904  1.00  0.00    -0.268 OA
HETATM    9  H   UNL     1       6.779  30.560  60.136  1.00  0.00     0.171 HD
BRANCH   7  10
HETATM   10  C   UNL     1       8.000  32.620  60.857  1.00  0.00     0.075 C 
HETATM   11  C   UNL     1       7.276  32.036  61.826  1.00  0.00     0.017 C 
BRANCH  11  12
HETATM   12  C   UNL     1       6.832  32.688  63.068  1.00  0.00    -0.033 A 
HETATM   13  C   UNL     1       5.478  32.836  63.400  1.00  0.00     0.051 A 
HETATM   14  C   UNL     1       5.163  33.401  64.620  1.00  0.00     0.105 A 
HETATM   15  C   UNL     1       6.132  33.807  65.506  1.00  0.00     0.105 A 
HETATM   16  O   UNL     1       3.906  33.606  65.097  1.00  0.00    -0.323 OA
HETATM   17  O   UNL     1       5.608  34.321  66.649  1.00  0.00    -0.323 OA
HETATM   18  C   UNL     1       7.471  33.674  65.222  1.00  0.00     0.040 A 
HETATM   19  C   UNL     1       4.196  34.176  66.391  1.00  0.00     0.352 A 
HETATM   20  C   UNL     1       7.820  33.104  63.992  1.00  0.00     0.014 A 
ENDBRANCH  11  12
ENDBRANCH   7  10
ENDBRANCH   3   6
BRANCH   1  21
HETATM   21  S   UNL     1       7.189  27.428  55.197  1.00  0.00    -0.096 SA
BRANCH  21  22
HETATM   22  C   UNL     1       6.577  25.853  55.870  1.00  0.00     0.123 C 
BRANCH  22  23
HETATM   23  C   UNL     1       7.250  24.681  55.192  1.00  0.00    -0.005 A 
HETATM   24  C   UNL     1       6.781  24.180  53.961  1.00  0.00     0.042 A 
HETATM   25  C   UNL     1       7.383  23.074  53.349  1.00  0.00     0.024 A 
HETATM   26 CL   UNL     1       5.432  24.883  53.134  1.00  0.00    -0.084 Cl
HETATM   27  C   UNL     1       8.462  22.437  53.955  1.00  0.00     0.003 A 
HETATM   28  C   UNL     1       8.937  22.906  55.175  1.00  0.00     0.024 A 
HETATM   29  C   UNL     1       8.338  24.013  55.790  1.00  0.00     0.042 A 
HETATM   30 CL   UNL     1       8.996  24.506  57.313  1.00  0.00    -0.084 Cl
ENDBRANCH  22  23
ENDBRANCH  21  22
ENDBRANCH   1  21
TORSDOF 6
ENDMDL
MODEL 2
REMARK VINA RESULT:     -10.8      0.063      1.701
REMARK  6 active torsions:
REMARK  status: ('A' for Active; 'I' for Inactive)
REMARK    1  A    between atoms: C_5  and  C_6 
REMARK    2  A    between atoms: C_6  and  S_7 
REMARK    3  A    between atoms: S_7  and  C_8 
REMARK    4  A    between atoms: C_10  and  N_11 
REMARK       I    between atoms: N_11  and  C_12 
REMARK    5  A    between atoms: C_12  and  C_13 
REMARK    6  A    between atoms: C_14  and  C_15 
ROOT
HETATM    1  C   UNL     1       7.578  28.282  56.636  1.00  0.00     0.160 A 
HETATM    2  S   UNL     1       6.561  29.506  57.263  1.00  0.00    -0.022 SA
HETATM    3  C   UNL     1       7.714  29.739  58.495  1.00  0.00     0.197 A 
HETATM    4  N   UNL     1       8.752  28.932  58.425  1.00  0.00    -0.122 NA
HETATM    5  N   UNL     1       8.672  28.077  57.340  1.00  0.00    -0.133 NA
ENDROOT
BRANCH   3   6
HETATM    6  N   UNL     1       7.601  30.703  59.469  1.00  0.00    -0.301 N 
HETATM    7  C   UNL     1       8.396  31.813  59.607  1.00  0.00     0.247 C 
HETATM    8  O   UNL     1       9.291  32.182  58.857  1.00  0.00    -0.268 OA
HETATM    9  H   UNL     1       6.862  30.515  60.131  1.00  0.00     0.171 HD
BRANCH   7  10
HETATM   10  C   UNL     1       8.069  32.587  60.840  1.00  0.00     0.075 C 
HETATM   11  C   UNL     1       7.275  32.029  61.767  1.00  0.00     0.017 C 
BRANCH  11  12
HETATM   12  C   UNL     1       6.837  32.675  63.014  1.00  0.00    -0.033 A 
HETATM   13  C   UNL     1       5.484  32.813  63.357  1.00  0.00     0.051 A 
HETATM   14  C   UNL     1       5.175  33.373  64.580  1.00  0.00     0.105 A 
HETATM   15  C   UNL     1       6.148  33.784  65.460  1.00  0.00     0.105 A 
HETATM   16  O   UNL     1       3.920  33.568  65.068  1.00  0.00    -0.323 OA
HETATM   17  O   UNL     1       5.629  34.292  66.609  1.00  0.00    -0.323 OA
HETATM   18  C   UNL     1       7.486  33.661  65.165  1.00  0.00     0.040 A 
HETATM   19  C   UNL     1       4.217  34.137  66.361  1.00  0.00     0.352 A 
HETATM   20  C   UNL     1       7.828  33.096  63.930  1.00  0.00     0.014 A 
ENDBRANCH  11  12
ENDBRANCH   7  10
ENDBRANCH   3   6
BRANCH   1  21
HETATM   21  S   UNL     1       7.194  27.406  55.176  1.00  0.00    -0.096 SA
BRANCH  21  22
HETATM   22  C   UNL     1       6.537  25.857  55.866  1.00  0.00     0.123 C 
BRANCH  22  23
HETATM   23  C   UNL     1       7.180  24.658  55.205  1.00  0.00    -0.005 A 
HETATM   24  C   UNL     1       8.304  24.025  55.773  1.00  0.00     0.042 A 
HETATM   25  C   UNL     1       8.919  22.936  55.145  1.00  0.00     0.024 A 
HETATM   26 CL   UNL     1       9.002  24.553  57.267  1.00  0.00    -0.084 Cl
HETATM   27  C   UNL     1       8.433  22.458  53.932  1.00  0.00     0.003 A 
HETATM   28  C   UNL     1       7.332  23.073  53.346  1.00  0.00     0.024 A 
HETATM   29  C   UNL     1       6.712  24.162  53.972  1.00  0.00     0.042 A 
HETATM   30 CL   UNL     1       5.360  24.864  53.150  1.00  0.00    -0.084 Cl
ENDBRANCH  22  23
ENDBRANCH  21  22
ENDBRANCH   1  21
TORSDOF 6
ENDMDL
MODEL 3
REMARK VINA RESULT:      -9.6      1.764      2.116
REMARK  6 active torsions:
REMARK  status: ('A' for Active; 'I' for Inactive)
REMARK    1  A    between atoms: C_5  and  C_6 
REMARK    2  A    between atoms: C_6  and  S_7 
REMARK    3  A    between atoms: S_7  and  C_8 
REMARK    4  A    between atoms: C_10  and  N_11 
REMARK       I    between atoms: N_11  and  C_12 
REMARK    5  A    between atoms: C_12  and  C_13 
REMARK    6  A    between atoms: C_14  and  C_15 
ROOT
HETATM    1  C   UNL     1       6.508  27.004  55.900  1.00  0.00     0.160 A 
HETATM    2  S   UNL     1       7.274  27.141  57.423  1.00  0.00    -0.022 SA
HETATM    3  C   UNL     1       6.962  28.815  57.353  1.00  0.00     0.197 A 
HETATM    4  N   UNL     1       6.354  29.206  56.254  1.00  0.00    -0.122 NA
HETATM    5  N   UNL     1       6.091  28.149  55.402  1.00  0.00    -0.133 NA
ENDROOT
BRANCH   3   6
HETATM    6  N   UNL     1       7.283  29.690  58.364  1.00  0.00    -0.301 N 
HETATM    7  C   UNL     1       8.545  30.114  58.699  1.00  0.00     0.247 C 
HETATM    8  O   UNL     1       9.593  29.852  58.123  1.00  0.00    -0.268 OA
HETATM    9  H   UNL     1       6.479  30.002  58.890  1.00  0.00     0.171 HD
BRANCH   7  10
HETATM   10  C   UNL     1       8.541  30.973  59.919  1.00  0.00     0.075 C 
HETATM   11  C   UNL     1       7.368  31.413  60.402  1.00  0.00     0.017 C 
BRANCH  11  12
HETATM   12  C   UNL     1       7.203  32.292  61.570  1.00  0.00    -0.033 A 
HETATM   13  C   UNL     1       6.227  33.297  61.627  1.00  0.00     0.051 A 
HETATM   14  C   UNL     1       6.106  34.024  62.794  1.00  0.00     0.105 A 
HETATM   15  C   UNL     1       6.904  33.784  63.888  1.00  0.00     0.105 A 
HETATM   16  O   UNL     1       5.208  35.021  63.017  1.00  0.00    -0.323 OA
HETATM   17  O   UNL     1       6.611  34.600  64.934  1.00  0.00    -0.323 OA
HETATM   18  C   UNL     1       7.869  32.804  63.875  1.00  0.00     0.040 A 
HETATM   19  C   UNL     1       5.525  35.372  64.381  1.00  0.00     0.352 A 
HETATM   20  C   UNL     1       8.014  32.050  62.705  1.00  0.00     0.014 A 
ENDBRANCH  11  12
ENDBRANCH   7  10
ENDBRANCH   3   6
BRANCH   1  21
HETATM   21  S   UNL     1       6.288  25.468  55.101  1.00  0.00    -0.096 SA
BRANCH  21  22
HETATM   22  C   UNL     1       7.967  24.778  55.213  1.00  0.00     0.123 C 
BRANCH  22  23
HETATM   23  C   UNL     1       8.002  23.360  54.688  1.00  0.00    -0.005 A 
HETATM   24  C   UNL     1       7.903  23.087  53.309  1.00  0.00     0.042 A 
HETATM   25  C   UNL     1       7.903  21.773  52.825  1.00  0.00     0.024 A 
HETATM   26 CL   UNL     1       7.765  24.347  52.128  1.00  0.00    -0.084 Cl
HETATM   27  C   UNL     1       7.992  20.701  53.707  1.00  0.00     0.003 A 
HETATM   28  C   UNL     1       8.080  20.943  55.074  1.00  0.00     0.024 A 
HETATM   29  C   UNL     1       8.083  22.256  55.562  1.00  0.00     0.042 A 
HETATM   30 CL   UNL     1       8.180  22.447  57.279  1.00  0.00    -0.084 Cl
ENDBRANCH  22  23
ENDBRANCH  21  22
ENDBRANCH   1  21
TORSDOF 6
ENDMDL
MODEL 4
REMARK VINA RESULT:      -9.5      2.017      2.431
REMARK  6 active torsions:
REMARK  status: ('A' for Active; 'I' for Inactive)
REMARK    1  A    between atoms: C_5  and  C_6 
REMARK    2  A    between atoms: C_6  and  S_7 
REMARK    3  A    between atoms: S_7  and  C_8 
REMARK    4  A    between atoms: C_10  and  N_11 
REMARK       I    between atoms: N_11  and  C_12 
REMARK    5  A    between atoms: C_12  and  C_13 
REMARK    6  A    between atoms: C_14  and  C_15 
ROOT
HETATM    1  C   UNL     1       6.440  28.624  55.274  1.00  0.00     0.160 A 
HETATM    2  S   UNL     1       7.145  29.134  56.746  1.00  0.00    -0.022 SA
HETATM    3  C   UNL     1       5.685  29.943  57.086  1.00  0.00     0.197 A 
HETATM    4  N   UNL     1       4.775  29.838  56.141  1.00  0.00    -0.122 NA
HETATM    5  N   UNL     1       5.217  29.070  55.079  1.00  0.00    -0.133 NA
ENDROOT
BRANCH   3   6
HETATM    6  N   UNL     1       5.449  30.625  58.256  1.00  0.00    -0.301 N 
HETATM    7  C   UNL     1       5.514  31.985  58.429  1.00  0.00     0.247 C 
HETATM    8  O   UNL     1       5.717  32.834  57.570  1.00  0.00    -0.268 OA
HETATM    9  H   UNL     1       5.235  30.018  59.035  1.00  0.00     0.171 HD
BRANCH   7  10
HETATM   10  C   UNL     1       5.313  32.380  59.854  1.00  0.00     0.075 C 
HETATM   11  C   UNL     1       6.389  32.565  60.636  1.00  0.00     0.017 C 
BRANCH  11  12
HETATM   12  C   UNL     1       6.354  32.921  62.063  1.00  0.00    -0.033 A 
HETATM   13  C   UNL     1       5.158  33.177  62.748  1.00  0.00     0.051 A 
HETATM   14  C   UNL     1       5.224  33.436  64.102  1.00  0.00     0.105 A 
HETATM   15  C   UNL     1       6.417  33.443  64.785  1.00  0.00     0.105 A 
HETATM   16  O   UNL     1       4.162  33.692  64.913  1.00  0.00    -0.323 OA
HETATM   17  O   UNL     1       6.257  33.705  66.108  1.00  0.00    -0.323 OA
HETATM   18  C   UNL     1       7.612  33.191  64.152  1.00  0.00     0.040 A 
HETATM   19  C   UNL     1       4.824  33.847  66.186  1.00  0.00     0.352 A 
HETATM   20  C   UNL     1       7.575  32.924  62.778  1.00  0.00     0.014 A 
ENDBRANCH  11  12
ENDBRANCH   7  10
ENDBRANCH   3   6
BRANCH   1  21
HETATM   21  S   UNL     1       7.278  27.585  54.149  1.00  0.00    -0.096 SA
BRANCH  21  22
HETATM   22  C   UNL     1       6.159  26.152  54.105  1.00  0.00     0.123 C 
BRANCH  22  23
HETATM   23  C   UNL     1       6.910  24.874  54.407  1.00  0.00    -0.005 A 
HETATM   24  C   UNL     1       6.942  24.335  55.709  1.00  0.00     0.042 A 
HETATM   25  C   UNL     1       7.664  23.170  55.996  1.00  0.00     0.024 A 
HETATM   26 CL   UNL     1       6.110  25.077  57.034  1.00  0.00    -0.084 Cl
HETATM   27  C   UNL     1       8.376  22.521  54.993  1.00  0.00     0.003 A 
HETATM   28  C   UNL     1       8.368  23.038  53.702  1.00  0.00     0.024 A 
HETATM   29  C   UNL     1       7.646  24.202  53.410  1.00  0.00     0.042 A 
HETATM   30 CL   UNL     1       7.715  24.771  51.777  1.00  0.00    -0.084 Cl
ENDBRANCH  22  23
ENDBRANCH  21  22
ENDBRANCH   1  21
TORSDOF 6
ENDMDL
MODEL 5
REMARK VINA RESULT:      -9.3      4.585     11.769
REMARK  6 active torsions:
REMARK  status: ('A' for Active; 'I' for Inactive)
REMARK    1  A    between atoms: C_5  and  C_6 
REMARK    2  A    between atoms: C_6  and  S_7 
REMARK    3  A    between atoms: S_7  and  C_8 
REMARK    4  A    between atoms: C_10  and  N_11 
REMARK       I    between atoms: N_11  and  C_12 
REMARK    5  A    between atoms: C_12  and  C_13 
REMARK    6  A    between atoms: C_14  and  C_15 
ROOT
HETATM    1  C   UNL     1       6.146  32.014  58.966  1.00  0.00     0.160 A 
HETATM    2  S   UNL     1       5.298  30.815  58.091  1.00  0.00    -0.022 SA
HETATM    3  C   UNL     1       6.809  30.193  57.610  1.00  0.00     0.197 A 
HETATM    4  N   UNL     1       7.842  30.868  58.068  1.00  0.00    -0.122 NA
HETATM    5  N   UNL     1       7.456  31.935  58.858  1.00  0.00    -0.133 NA
ENDROOT
BRANCH   3   6
HETATM    6  N   UNL     1       6.955  29.065  56.838  1.00  0.00    -0.301 N 
HETATM    7  C   UNL     1       7.499  27.871  57.240  1.00  0.00     0.247 C 
HETATM    8  O   UNL     1       7.880  27.571  58.364  1.00  0.00    -0.268 OA
HETATM    9  H   UNL     1       6.637  29.190  55.887  1.00  0.00     0.171 HD
BRANCH   7  10
HETATM   10  C   UNL     1       7.609  26.897  56.115  1.00  0.00     0.075 C 
HETATM   11  C   UNL     1       7.601  25.583  56.389  1.00  0.00     0.017 C 
BRANCH  11  12
HETATM   12  C   UNL     1       7.735  24.505  55.397  1.00  0.00    -0.033 A 
HETATM   13  C   UNL     1       8.425  23.313  55.666  1.00  0.00     0.051 A 
HETATM   14  C   UNL     1       8.436  22.334  54.693  1.00  0.00     0.105 A 
HETATM   15  C   UNL     1       7.791  22.493  53.490  1.00  0.00     0.105 A 
HETATM   16  O   UNL     1       9.047  21.122  54.797  1.00  0.00    -0.323 OA
HETATM   17  O   UNL     1       7.915  21.405  52.685  1.00  0.00    -0.323 OA
HETATM   18  C   UNL     1       7.098  23.643  53.190  1.00  0.00     0.040 A 
HETATM   19  C   UNL     1       8.700  20.534  53.526  1.00  0.00     0.352 A 
HETATM   20  C   UNL     1       7.069  24.654  54.158  1.00  0.00     0.014 A 
ENDBRANCH  11  12
ENDBRANCH   7  10
ENDBRANCH   3   6
BRANCH   1  21
HETATM   21  S   UNL     1       5.330  33.218  59.932  1.00  0.00    -0.096 SA
BRANCH  21  22
HETATM   22  C   UNL     1       5.036  32.288  61.466  1.00  0.00     0.123 C 
BRANCH  22  23
HETATM   23  C   UNL     1       5.826  32.878  62.613  1.00  0.00    -0.005 A 
HETATM   24  C   UNL     1       7.094  32.371  62.965  1.00  0.00     0.042 A 
HETATM   25  C   UNL     1       7.811  32.895  64.047  1.00  0.00     0.024 A 
HETATM   26 CL   UNL     1       7.839  31.069  62.100  1.00  0.00    -0.084 Cl
HETATM   27  C   UNL     1       7.278  33.930  64.807  1.00  0.00     0.003 A 
HETATM   28  C   UNL     1       6.024  34.441  64.487  1.00  0.00     0.024 A 
HETATM   29  C   UNL     1       5.304  33.921  63.404  1.00  0.00     0.042 A 
HETATM   30 CL   UNL     1       3.748  34.616  63.100  1.00  0.00    -0.084 Cl
ENDBRANCH  22  23
ENDBRANCH  21  22
ENDBRANCH   1  21
TORSDOF 6
ENDMDL
MODEL 6
REMARK VINA RESULT:      -8.7      4.471     11.370
REMARK  6 active torsions:
REMARK  status: ('A' for Active; 'I' for Inactive)
REMARK    1  A    between atoms: C_5  and  C_6 
REMARK    2  A    between atoms: C_6  and  S_7 
REMARK    3  A    between atoms: S_7  and  C_8 
REMARK    4  A    between atoms: C_10  and  N_11 
REMARK       I    between atoms: N_11  and  C_12 
REMARK    5  A    between atoms: C_12  and  C_13 
REMARK    6  A    between atoms: C_14  and  C_15 
ROOT
HETATM    1  C   UNL     1       6.532  32.042  59.311  1.00  0.00     0.160 A 
HETATM    2  S   UNL     1       5.768  30.837  58.368  1.00  0.00    -0.022 SA
HETATM    3  C   UNL     1       7.320  30.315  57.899  1.00  0.00     0.197 A 
HETATM    4  N   UNL     1       8.306  31.024  58.408  1.00  0.00    -0.122 NA
HETATM    5  N   UNL     1       7.846  32.036  59.231  1.00  0.00    -0.133 NA
ENDROOT
BRANCH   3   6
HETATM    6  N   UNL     1       7.544  29.230  57.085  1.00  0.00    -0.301 N 
HETATM    7  C   UNL     1       6.870  28.933  55.926  1.00  0.00     0.247 C 
HETATM    8  O   UNL     1       6.010  29.607  55.374  1.00  0.00    -0.268 OA
HETATM    9  H   UNL     1       8.266  28.615  57.431  1.00  0.00     0.171 HD
BRANCH   7  10
HETATM   10  C   UNL     1       7.289  27.620  55.355  1.00  0.00     0.075 C 
HETATM   11  C   UNL     1       7.209  26.521  56.122  1.00  0.00     0.017 C 
BRANCH  11  12
HETATM   12  C   UNL     1       7.615  25.166  55.716  1.00  0.00    -0.033 A 
HETATM   13  C   UNL     1       7.895  24.152  56.644  1.00  0.00     0.051 A 
HETATM   14  C   UNL     1       8.201  22.895  56.162  1.00  0.00     0.105 A 
HETATM   15  C   UNL     1       8.230  22.617  54.817  1.00  0.00     0.105 A 
HETATM   16  O   UNL     1       8.485  21.804  56.923  1.00  0.00    -0.323 OA
HETATM   17  O   UNL     1       8.539  21.319  54.561  1.00  0.00    -0.323 OA
HETATM   18  C   UNL     1       7.956  23.582  53.875  1.00  0.00     0.040 A 
HETATM   19  C   UNL     1       8.684  20.805  55.901  1.00  0.00     0.352 A 
HETATM   20  C   UNL     1       7.642  24.866  54.334  1.00  0.00     0.014 A 
ENDBRANCH  11  12
ENDBRANCH   7  10
ENDBRANCH   3   6
BRANCH   1  21
HETATM   21  S   UNL     1       5.632  33.160  60.305  1.00  0.00    -0.096 SA
BRANCH  21  22
HETATM   22  C   UNL     1       5.259  32.116  61.746  1.00  0.00     0.123 C 
BRANCH  22  23
HETATM   23  C   UNL     1       5.721  32.778  63.025  1.00  0.00    -0.005 A 
HETATM   24  C   UNL     1       4.862  33.615  63.766  1.00  0.00     0.042 A 
HETATM   25  C   UNL     1       5.299  34.255  64.932  1.00  0.00     0.024 A 
HETATM   26 CL   UNL     1       3.227  33.917  63.284  1.00  0.00    -0.084 Cl
HETATM   27  C   UNL     1       6.605  34.082  65.381  1.00  0.00     0.003 A 
HETATM   28  C   UNL     1       7.475  33.269  64.661  1.00  0.00     0.024 A 
HETATM   29  C   UNL     1       7.041  32.625  63.495  1.00  0.00     0.042 A 
HETATM   30 CL   UNL     1       8.206  31.650  62.666  1.00  0.00    -0.084 Cl
ENDBRANCH  22  23
ENDBRANCH  21  22
ENDBRANCH   1  21
TORSDOF 6
ENDMDL
MODEL 7
REMARK VINA RESULT:      -8.6      4.793     11.635
REMARK  6 active torsions:
REMARK  status: ('A' for Active; 'I' for Inactive)
REMARK    1  A    between atoms: C_5  and  C_6 
REMARK    2  A    between atoms: C_6  and  S_7 
REMARK    3  A    between atoms: S_7  and  C_8 
REMARK    4  A    between atoms: C_10  and  N_11 
REMARK       I    between atoms: N_11  and  C_12 
REMARK    5  A    between atoms: C_12  and  C_13 
REMARK    6  A    between atoms: C_14  and  C_15 
ROOT
HETATM    1  C   UNL     1       4.723  31.871  58.945  1.00  0.00     0.160 A 
HETATM    2  S   UNL     1       6.072  31.098  58.233  1.00  0.00    -0.022 SA
HETATM    3  C   UNL     1       4.973  30.183  57.307  1.00  0.00     0.197 A 
HETATM    4  N   UNL     1       3.707  30.445  57.554  1.00  0.00    -0.122 NA
HETATM    5  N   UNL     1       3.560  31.430  58.515  1.00  0.00    -0.133 NA
ENDROOT
BRANCH   3   6
HETATM    6  N   UNL     1       5.358  29.268  56.356  1.00  0.00    -0.301 N 
HETATM    7  C   UNL     1       5.142  29.364  55.004  1.00  0.00     0.247 C 
HETATM    8  O   UNL     1       4.640  30.301  54.398  1.00  0.00    -0.268 OA
HETATM    9  H   UNL     1       5.820  28.459  56.747  1.00  0.00     0.171 HD
BRANCH   7  10
HETATM   10  C   UNL     1       5.590  28.140  54.277  1.00  0.00     0.075 C 
HETATM   11  C   UNL     1       6.268  27.195  54.949  1.00  0.00     0.017 C 
BRANCH  11  12
HETATM   12  C   UNL     1       6.803  25.954  54.367  1.00  0.00    -0.033 A 
HETATM   13  C   UNL     1       6.830  24.742  55.071  1.00  0.00     0.051 A 
HETATM   14  C   UNL     1       7.289  23.617  54.415  1.00  0.00     0.105 A 
HETATM   15  C   UNL     1       7.706  23.656  53.106  1.00  0.00     0.105 A 
HETATM   16  O   UNL     1       7.370  22.368  54.948  1.00  0.00    -0.323 OA
HETATM   17  O   UNL     1       8.104  22.440  52.651  1.00  0.00    -0.323 OA
HETATM   18  C   UNL     1       7.690  24.824  52.379  1.00  0.00     0.040 A 
HETATM   19  C   UNL     1       7.874  21.624  53.818  1.00  0.00     0.352 A 
HETATM   20  C   UNL     1       7.229  25.980  53.018  1.00  0.00     0.014 A 
ENDBRANCH  11  12
ENDBRANCH   7  10
ENDBRANCH   3   6
BRANCH   1  21
HETATM   21  S   UNL     1       4.893  33.149  60.123  1.00  0.00    -0.096 SA
BRANCH  21  22
HETATM   22  C   UNL     1       4.703  32.217  61.672  1.00  0.00     0.123 C 
BRANCH  22  23
HETATM   23  C   UNL     1       5.637  32.745  62.737  1.00  0.00    -0.005 A 
HETATM   24  C   UNL     1       6.992  32.356  62.780  1.00  0.00     0.042 A 
HETATM   25  C   UNL     1       7.849  32.819  63.785  1.00  0.00     0.024 A 
HETATM   26 CL   UNL     1       7.679  31.278  61.612  1.00  0.00    -0.084 Cl
HETATM   27  C   UNL     1       7.374  33.675  64.774  1.00  0.00     0.003 A 
HETATM   28  C   UNL     1       6.040  34.065  64.759  1.00  0.00     0.024 A 
HETATM   29  C   UNL     1       5.178  33.606  63.755  1.00  0.00     0.042 A 
HETATM   30 CL   UNL     1       3.534  34.139  63.837  1.00  0.00    -0.084 Cl
ENDBRANCH  22  23
ENDBRANCH  21  22
ENDBRANCH   1  21
TORSDOF 6
ENDMDL
MODEL 8
REMARK VINA RESULT:      -8.6      6.616     13.142
REMARK  6 active torsions:
REMARK  status: ('A' for Active; 'I' for Inactive)
REMARK    1  A    between atoms: C_5  and  C_6 
REMARK    2  A    between atoms: C_6  and  S_7 
REMARK    3  A    between atoms: S_7  and  C_8 
REMARK    4  A    between atoms: C_10  and  N_11 
REMARK       I    between atoms: N_11  and  C_12 
REMARK    5  A    between atoms: C_12  and  C_13 
REMARK    6  A    between atoms: C_14  and  C_15 
ROOT
HETATM    1  C   UNL     1       5.347  34.242  66.703  1.00  0.00     0.160 A 
HETATM    2  S   UNL     1       6.767  33.883  65.822  1.00  0.00    -0.022 SA
HETATM    3  C   UNL     1       5.770  33.194  64.625  1.00  0.00     0.197 A 
HETATM    4  N   UNL     1       4.485  33.228  64.907  1.00  0.00    -0.122 NA
HETATM    5  N   UNL     1       4.236  33.837  66.124  1.00  0.00    -0.133 NA
ENDROOT
BRANCH   3   6
HETATM    6  N   UNL     1       6.247  32.674  63.446  1.00  0.00    -0.301 N 
HETATM    7  C   UNL     1       6.453  33.365  62.278  1.00  0.00     0.247 C 
HETATM    8  O   UNL     1       6.322  34.568  62.096  1.00  0.00    -0.268 OA
HETATM    9  H   UNL     1       6.425  31.680  63.493  1.00  0.00     0.171 HD
BRANCH   7  10
HETATM   10  C   UNL     1       6.870  32.468  61.161  1.00  0.00     0.075 C 
HETATM   11  C   UNL     1       8.179  32.297  60.917  1.00  0.00     0.017 C 
BRANCH  11  12
HETATM   12  C   UNL     1       8.744  31.475  59.835  1.00  0.00    -0.033 A 
HETATM   13  C   UNL     1       8.162  30.268  59.422  1.00  0.00     0.051 A 
HETATM   14  C   UNL     1       8.728  29.603  58.354  1.00  0.00     0.105 A 
HETATM   15  C   UNL     1       9.828  30.093  57.690  1.00  0.00     0.105 A 
HETATM   16  O   UNL     1       8.283  28.432  57.823  1.00  0.00    -0.323 OA
HETATM   17  O   UNL     1      10.215  29.293  56.663  1.00  0.00    -0.323 OA
HETATM   18  C   UNL     1      10.425  31.276  58.060  1.00  0.00     0.040 A 
HETATM   19  C   UNL     1       9.222  28.249  56.742  1.00  0.00     0.352 A 
HETATM   20  C   UNL     1       9.872  31.972  59.141  1.00  0.00     0.014 A 
ENDBRANCH  11  12
ENDBRANCH   7  10
ENDBRANCH   3   6
BRANCH   1  21
HETATM   21  S   UNL     1       5.384  35.093  68.227  1.00  0.00    -0.096 SA
BRANCH  21  22
HETATM   22  C   UNL     1       6.828  34.322  69.017  1.00  0.00     0.123 C 
BRANCH  22  23
HETATM   23  C   UNL     1       6.797  34.528  70.515  1.00  0.00    -0.005 A 
HETATM   24  C   UNL     1       7.297  35.709  71.101  1.00  0.00     0.042 A 
HETATM   25  C   UNL     1       7.298  35.887  72.490  1.00  0.00     0.024 A 
HETATM   26 CL   UNL     1       7.949  37.004  70.154  1.00  0.00    -0.084 Cl
HETATM   27  C   UNL     1       6.809  34.888  73.326  1.00  0.00     0.003 A 
HETATM   28  C   UNL     1       6.320  33.710  72.773  1.00  0.00     0.024 A 
HETATM   29  C   UNL     1       6.315  33.528  71.384  1.00  0.00     0.042 A 
HETATM   30 CL   UNL     1       5.701  32.020  70.800  1.00  0.00    -0.084 Cl
ENDBRANCH  22  23
ENDBRANCH  21  22
ENDBRANCH   1  21
TORSDOF 6
ENDMDL
MODEL 9
REMARK VINA RESULT:      -8.5      3.292      4.051
REMARK  6 active torsions:
REMARK  status: ('A' for Active; 'I' for Inactive)
REMARK    1  A    between atoms: C_5  and  C_6 
REMARK    2  A    between atoms: C_6  and  S_7 
REMARK    3  A    between atoms: S_7  and  C_8 
REMARK    4  A    between atoms: C_10  and  N_11 
REMARK       I    between atoms: N_11  and  C_12 
REMARK    5  A    between atoms: C_12  and  C_13 
REMARK    6  A    between atoms: C_14  and  C_15 
ROOT
HETATM    1  C   UNL     1       5.368  29.211  54.955  1.00  0.00     0.160 A 
HETATM    2  S   UNL     1       4.930  30.413  56.090  1.00  0.00    -0.022 SA
HETATM    3  C   UNL     1       6.101  29.756  57.138  1.00  0.00     0.197 A 
HETATM    4  N   UNL     1       6.733  28.707  56.653  1.00  0.00    -0.122 NA
HETATM    5  N   UNL     1       6.302  28.386  55.379  1.00  0.00    -0.133 NA
ENDROOT
BRANCH   3   6
HETATM    6  N   UNL     1       6.396  30.281  58.373  1.00  0.00    -0.301 N 
HETATM    7  C   UNL     1       7.598  30.817  58.761  1.00  0.00     0.247 C 
HETATM    8  O   UNL     1       8.591  30.991  58.066  1.00  0.00    -0.268 OA
HETATM    9  H   UNL     1       5.626  30.221  59.025  1.00  0.00     0.171 HD
BRANCH   7  10
HETATM   10  C   UNL     1       7.607  31.190  60.206  1.00  0.00     0.075 C 
HETATM   11  C   UNL     1       6.713  32.087  60.651  1.00  0.00     0.017 C 
BRANCH  11  12
HETATM   12  C   UNL     1       6.617  32.579  62.035  1.00  0.00    -0.033 A 
HETATM   13  C   UNL     1       5.389  32.843  62.658  1.00  0.00     0.051 A 
HETATM   14  C   UNL     1       5.401  33.237  63.981  1.00  0.00     0.105 A 
HETATM   15  C   UNL     1       6.570  33.369  64.692  1.00  0.00     0.105 A 
HETATM   16  O   UNL     1       4.303  33.519  64.733  1.00  0.00    -0.323 OA
HETATM   17  O   UNL     1       6.356  33.752  65.978  1.00  0.00    -0.323 OA
HETATM   18  C   UNL     1       7.795  33.115  64.119  1.00  0.00     0.040 A 
HETATM   19  C   UNL     1       4.916  33.831  66.002  1.00  0.00     0.352 A 
HETATM   20  C   UNL     1       7.813  32.712  62.779  1.00  0.00     0.014 A 
ENDBRANCH  11  12
ENDBRANCH   7  10
ENDBRANCH   3   6
BRANCH   1  21
HETATM   21  S   UNL     1       4.644  29.116  53.370  1.00  0.00    -0.096 SA
BRANCH  21  22
HETATM   22  C   UNL     1       5.960  28.273  52.440  1.00  0.00     0.123 C 
BRANCH  22  23
HETATM   23  C   UNL     1       5.458  27.820  51.088  1.00  0.00    -0.005 A 
HETATM   24  C   UNL     1       5.058  26.486  50.865  1.00  0.00     0.042 A 
HETATM   25  C   UNL     1       4.624  26.058  49.604  1.00  0.00     0.024 A 
HETATM   26 CL   UNL     1       5.088  25.293  52.120  1.00  0.00    -0.084 Cl
HETATM   27  C   UNL     1       4.587  26.948  48.535  1.00  0.00     0.003 A 
HETATM   28  C   UNL     1       4.986  28.267  48.727  1.00  0.00     0.024 A 
HETATM   29  C   UNL     1       5.419  28.700  49.987  1.00  0.00     0.042 A 
HETATM   30 CL   UNL     1       5.908  30.355  50.114  1.00  0.00    -0.084 Cl
ENDBRANCH  22  23
ENDBRANCH  21  22
ENDBRANCH   1  21
TORSDOF 6
ENDMDL
MODEL 10
REMARK VINA RESULT:      -8.4      6.901     13.140
REMARK  6 active torsions:
REMARK  status: ('A' for Active; 'I' for Inactive)
REMARK    1  A    between atoms: C_5  and  C_6 
REMARK    2  A    between atoms: C_6  and  S_7 
REMARK    3  A    between atoms: S_7  and  C_8 
REMARK    4  A    between atoms: C_10  and  N_11 
REMARK       I    between atoms: N_11  and  C_12 
REMARK    5  A    between atoms: C_12  and  C_13 
REMARK    6  A    between atoms: C_14  and  C_15 
ROOT
HETATM    1  C   UNL     1       5.353  34.364  66.701  1.00  0.00     0.160 A 
HETATM    2  S   UNL     1       6.713  33.966  65.744  1.00  0.00    -0.022 SA
HETATM    3  C   UNL     1       5.630  33.341  64.586  1.00  0.00     0.197 A 
HETATM    4  N   UNL     1       4.363  33.420  64.933  1.00  0.00    -0.122 NA
HETATM    5  N   UNL     1       4.200  34.014  66.171  1.00  0.00    -0.133 NA
ENDROOT
BRANCH   3   6
HETATM    6  N   UNL     1       6.027  32.825  63.376  1.00  0.00    -0.301 N 
HETATM    7  C   UNL     1       5.932  33.450  62.157  1.00  0.00     0.247 C 
HETATM    8  O   UNL     1       5.552  34.592  61.937  1.00  0.00    -0.268 OA
HETATM    9  H   UNL     1       6.395  31.886  63.445  1.00  0.00     0.171 HD
BRANCH   7  10
HETATM   10  C   UNL     1       6.350  32.558  61.036  1.00  0.00     0.075 C 
HETATM   11  C   UNL     1       7.658  32.419  60.768  1.00  0.00     0.017 C 
BRANCH  11  12
HETATM   12  C   UNL     1       8.224  31.607  59.679  1.00  0.00    -0.033 A 
HETATM   13  C   UNL     1       9.544  31.758  59.232  1.00  0.00     0.051 A 
HETATM   14  C   UNL     1      10.003  30.902  58.251  1.00  0.00     0.105 A 
HETATM   15  C   UNL     1       9.209  29.915  57.716  1.00  0.00     0.105 A 
HETATM   16  O   UNL     1      11.254  30.907  57.716  1.00  0.00    -0.323 OA
HETATM   17  O   UNL     1       9.858  29.178  56.777  1.00  0.00    -0.323 OA
HETATM   18  C   UNL     1       7.911  29.730  58.131  1.00  0.00     0.040 A 
HETATM   19  C   UNL     1      11.159  29.802  56.793  1.00  0.00     0.352 A 
HETATM   20  C   UNL     1       7.419  30.583  59.125  1.00  0.00     0.014 A 
ENDBRANCH  11  12
ENDBRANCH   7  10
ENDBRANCH   3   6
BRANCH   1  21
HETATM   21  S   UNL     1       5.499  35.183  68.236  1.00  0.00    -0.096 SA
BRANCH  21  22
HETATM   22  C   UNL     1       6.946  34.337  68.941  1.00  0.00     0.123 C 
BRANCH  22  23
HETATM   23  C   UNL     1       6.971  34.478  70.447  1.00  0.00    -0.005 A 
HETATM   24  C   UNL     1       6.481  33.456  71.285  1.00  0.00     0.042 A 
HETATM   25  C   UNL     1       6.474  33.600  72.678  1.00  0.00     0.024 A 
HETATM   26 CL   UNL     1       5.849  31.972  70.657  1.00  0.00    -0.084 Cl
HETATM   27  C   UNL     1       6.947  34.769  73.266  1.00  0.00     0.003 A 
HETATM   28  C   UNL     1       7.427  35.796  72.459  1.00  0.00     0.024 A 
HETATM   29  C   UNL     1       7.437  35.656  71.065  1.00  0.00     0.042 A 
HETATM   30 CL   UNL     1       8.039  36.998  70.154  1.00  0.00    -0.084 Cl
ENDBRANCH  22  23
ENDBRANCH  21  22
ENDBRANCH   1  21
TORSDOF 6
ENDMDL
