MODEL 1
REMARK VINA RESULT:      -8.5      0.000      0.000
REMARK  8 active torsions:
REMARK  status: ('A' for Active; 'I' for Inactive)
REMARK    1  A    between atoms: C_2  and  O_3 
REMARK    2  A    between atoms: O_3  and  C_4 
REMARK       I    between atoms: C_4  and  N_5 
REMARK    3  A    between atoms: C_8  and  N_9 
REMARK       I    between atoms: N_9  and  C_10 
REMARK    4  A    between atoms: C_10  and  C_11 
REMARK    5  A    between atoms: C_12  and  C_13 
REMARK    6  A    between atoms: N_18  and  C_19 
REMARK    7  A    between atoms: C_19  and  C_20 
REMARK    8  A    between atoms: C_20  and  O_21 
ROOT
HETATM    1  C   UNL     1       6.714  25.707  54.056  1.00  0.00     0.139 C 
HETATM    2  C   UNL     1       6.264  26.034  55.500  1.00  0.00     0.145 C 
HETATM    3  N   UNL     1       7.400  25.891  56.437  1.00  0.00    -0.335 N 
HETATM    4  C   UNL     1       8.192  24.739  56.374  1.00  0.00     0.255 C 
HETATM    5  O   UNL     1       8.977  24.415  57.259  1.00  0.00    -0.267 OA
HETATM    6  C   UNL     1       8.090  23.898  55.148  1.00  0.00     0.039 A 
HETATM    7  C   UNL     1       7.408  24.356  54.010  1.00  0.00    -0.027 A 
HETATM    8  C   UNL     1       8.750  22.661  55.128  1.00  0.00     0.017 A 
HETATM    9  C   UNL     1       8.753  21.885  53.971  1.00  0.00     0.001 A 
HETATM   10  C   UNL     1       8.118  22.351  52.824  1.00  0.00     0.001 A 
HETATM   11  C   UNL     1       7.461  23.582  52.837  1.00  0.00     0.009 A 
ENDROOT
BRANCH   1  12
HETATM   12  C   UNL     1       5.545  25.811  53.076  1.00  0.00     0.229 C 
HETATM   13  N   UNL     1       5.657  26.775  52.091  1.00  0.00    -0.356 N 
HETATM   14  H   UNL     1       6.364  27.490  52.201  1.00  0.00     0.162 HD
HETATM   15  O   UNL     1       4.549  25.100  53.197  1.00  0.00    -0.273 OA
BRANCH  13  16
HETATM   16  C   UNL     1       4.552  27.040  51.171  1.00  0.00     0.087 C 
HETATM   17  C   UNL     1       3.719  28.245  51.633  1.00  0.00     0.045 C 
HETATM   18  C   UNL     1       4.441  29.565  51.386  1.00  0.00     0.130 C 
HETATM   19  N   UNL     1       4.871  29.658  49.999  1.00  0.00    -0.328 N 
HETATM   20  C   UNL     1       4.478  30.735  49.224  1.00  0.00     0.362 C 
HETATM   21  C   UNL     1       5.726  28.578  49.520  1.00  0.00     0.130 C 
HETATM   22  O   UNL     1       3.793  31.662  49.641  1.00  0.00    -0.238 OA
HETATM   23  C   UNL     1       5.055  27.225  49.733  1.00  0.00     0.045 C 
BRANCH  20  24
HETATM   24  O   UNL     1       4.925  30.643  47.943  1.00  0.00    -0.304 OA
BRANCH  24  25
HETATM   25  C   UNL     1       3.928  30.729  46.914  1.00  0.00     0.176 C 
HETATM   26  C   UNL     1       3.024  29.513  46.969  1.00  0.00     0.034 C 
ENDBRANCH  24  25
ENDBRANCH  20  24
ENDBRANCH  13  16
ENDBRANCH   1  12
BRANCH   2  27
HETATM   27  C   UNL     1       5.609  27.398  55.577  1.00  0.00     0.006 A 
HETATM   28  S   UNL     1       6.342  28.729  54.768  1.00  0.00    -0.104 SA
HETATM   29  C   UNL     1       5.131  29.808  55.300  1.00  0.00     0.050 A 
HETATM   30  C   UNL     1       4.191  29.182  56.086  1.00  0.00     0.008 A 
HETATM   31  C   UNL     1       4.467  27.793  56.251  1.00  0.00     0.017 A 
ENDBRANCH   2  27
BRANCH   3  32
HETATM   32  C   UNL     1       7.512  26.691  57.668  1.00  0.00     0.153 C 
BRANCH  32  33
HETATM   33  C   UNL     1       8.407  27.919  57.462  1.00  0.00     0.187 C 
BRANCH  33  34
HETATM   34  O   UNL     1       8.256  28.821  58.560  1.00  0.00    -0.394 OA
HETATM   35  C   UNL     1       7.404  29.907  58.218  1.00  0.00     0.201 C 
ENDBRANCH  33  34
ENDBRANCH  32  33
ENDBRANCH   3  32
TORSDOF 8
ENDMDL
MODEL 2
REMARK VINA RESULT:      -7.5      2.598      5.374
REMARK  8 active torsions:
REMARK  status: ('A' for Active; 'I' for Inactive)
REMARK    1  A    between atoms: C_2  and  O_3 
REMARK    2  A    between atoms: O_3  and  C_4 
REMARK       I    between atoms: C_4  and  N_5 
REMARK    3  A    between atoms: C_8  and  N_9 
REMARK       I    between atoms: N_9  and  C_10 
REMARK    4  A    between atoms: C_10  and  C_11 
REMARK    5  A    between atoms: C_12  and  C_13 
REMARK    6  A    between atoms: N_18  and  C_19 
REMARK    7  A    between atoms: C_19  and  C_20 
REMARK    8  A    between atoms: C_20  and  O_21 
ROOT
HETATM    1  C   UNL     1       4.832  28.230  53.544  1.00  0.00     0.139 C 
HETATM    2  C   UNL     1       6.040  27.629  54.303  1.00  0.00     0.145 C 
HETATM    3  N   UNL     1       5.683  27.370  55.716  1.00  0.00    -0.335 N 
HETATM    4  C   UNL     1       5.039  28.373  56.448  1.00  0.00     0.255 C 
HETATM    5  O   UNL     1       4.939  28.351  57.671  1.00  0.00    -0.267 OA
HETATM    6  C   UNL     1       4.418  29.494  55.687  1.00  0.00     0.039 A 
HETATM    7  C   UNL     1       4.281  29.433  54.292  1.00  0.00    -0.027 A 
HETATM    8  C   UNL     1       3.907  30.586  56.402  1.00  0.00     0.017 A 
HETATM    9  C   UNL     1       3.240  31.612  55.736  1.00  0.00     0.001 A 
HETATM   10  C   UNL     1       3.061  31.539  54.357  1.00  0.00     0.001 A 
HETATM   11  C   UNL     1       3.566  30.453  53.641  1.00  0.00     0.009 A 
ENDROOT
BRANCH   1  12
HETATM   12  C   UNL     1       5.191  28.542  52.092  1.00  0.00     0.229 C 
HETATM   13  N   UNL     1       4.446  27.894  51.125  1.00  0.00    -0.356 N 
HETATM   14  H   UNL     1       3.882  27.102  51.407  1.00  0.00     0.162 HD
HETATM   15  O   UNL     1       6.123  29.296  51.815  1.00  0.00    -0.273 OA
BRANCH  13  16
HETATM   16  C   UNL     1       4.775  28.028  49.706  1.00  0.00     0.087 C 
HETATM   17  C   UNL     1       4.833  26.658  49.015  1.00  0.00     0.045 C 
HETATM   18  C   UNL     1       3.441  26.075  48.792  1.00  0.00     0.130 C 
HETATM   19  N   UNL     1       2.591  27.035  48.103  1.00  0.00    -0.328 N 
HETATM   20  C   UNL     1       1.973  26.684  46.915  1.00  0.00     0.362 C 
HETATM   21  C   UNL     1       2.439  28.334  48.748  1.00  0.00     0.130 C 
HETATM   22  O   UNL     1       2.070  25.578  46.396  1.00  0.00    -0.238 OA
HETATM   23  C   UNL     1       3.801  28.975  48.995  1.00  0.00     0.045 C 
BRANCH  20  24
HETATM   24  O   UNL     1       1.257  27.709  46.381  1.00  0.00    -0.304 OA
BRANCH  24  25
HETATM   25  C   UNL     1      -0.113  27.426  46.060  1.00  0.00     0.176 C 
HETATM   26  C   UNL     1      -0.893  28.721  45.945  1.00  0.00     0.034 C 
ENDBRANCH  24  25
ENDBRANCH  20  24
ENDBRANCH  13  16
ENDBRANCH   1  12
BRANCH   2  27
HETATM   27  C   UNL     1       6.577  26.401  53.599  1.00  0.00     0.006 A 
HETATM   28  S   UNL     1       5.535  25.053  53.347  1.00  0.00    -0.104 SA
HETATM   29  C   UNL     1       6.770  24.153  52.587  1.00  0.00     0.050 A 
HETATM   30  C   UNL     1       7.956  24.849  52.530  1.00  0.00     0.008 A 
HETATM   31  C   UNL     1       7.848  26.143  53.117  1.00  0.00     0.017 A 
ENDBRANCH   2  27
BRANCH   3  32
HETATM   32  C   UNL     1       6.300  26.286  56.498  1.00  0.00     0.153 C 
BRANCH  32  33
HETATM   33  C   UNL     1       7.715  26.658  56.958  1.00  0.00     0.187 C 
BRANCH  33  34
HETATM   34  O   UNL     1       8.523  25.483  57.044  1.00  0.00    -0.394 OA
HETATM   35  C   UNL     1       7.849  24.356  56.496  1.00  0.00     0.201 C 
ENDBRANCH  33  34
ENDBRANCH  32  33
ENDBRANCH   3  32
TORSDOF 8
ENDMDL
MODEL 3
REMARK VINA RESULT:      -7.3      1.620      2.122
REMARK  8 active torsions:
REMARK  status: ('A' for Active; 'I' for Inactive)
REMARK    1  A    between atoms: C_2  and  O_3 
REMARK    2  A    between atoms: O_3  and  C_4 
REMARK       I    between atoms: C_4  and  N_5 
REMARK    3  A    between atoms: C_8  and  N_9 
REMARK       I    between atoms: N_9  and  C_10 
REMARK    4  A    between atoms: C_10  and  C_11 
REMARK    5  A    between atoms: C_12  and  C_13 
REMARK    6  A    between atoms: N_18  and  C_19 
REMARK    7  A    between atoms: C_19  and  C_20 
REMARK    8  A    between atoms: C_20  and  O_21 
ROOT
HETATM    1  C   UNL     1       6.240  27.752  53.972  1.00  0.00     0.139 C 
HETATM    2  C   UNL     1       5.853  27.771  55.471  1.00  0.00     0.145 C 
HETATM    3  N   UNL     1       6.988  27.310  56.301  1.00  0.00    -0.335 N 
HETATM    4  C   UNL     1       7.661  26.138  55.939  1.00  0.00     0.255 C 
HETATM    5  O   UNL     1       8.428  25.546  56.691  1.00  0.00    -0.267 OA
HETATM    6  C   UNL     1       7.453  25.620  54.557  1.00  0.00     0.039 A 
HETATM    7  C   UNL     1       6.798  26.393  53.586  1.00  0.00    -0.027 A 
HETATM    8  C   UNL     1       7.988  24.368  54.223  1.00  0.00     0.017 A 
HETATM    9  C   UNL     1       7.893  23.888  52.919  1.00  0.00     0.001 A 
HETATM   10  C   UNL     1       7.284  24.666  51.939  1.00  0.00     0.001 A 
HETATM   11  C   UNL     1       6.751  25.914  52.265  1.00  0.00     0.009 A 
ENDROOT
BRANCH   1  12
HETATM   12  C   UNL     1       5.068  28.189  53.093  1.00  0.00     0.229 C 
HETATM   13  N   UNL     1       5.290  29.282  52.277  1.00  0.00    -0.356 N 
HETATM   14  H   UNL     1       6.100  29.860  52.462  1.00  0.00     0.162 HD
HETATM   15  O   UNL     1       3.981  27.617  53.153  1.00  0.00    -0.273 OA
BRANCH  13  16
HETATM   16  C   UNL     1       4.207  29.857  51.479  1.00  0.00     0.087 C 
HETATM   17  C   UNL     1       4.390  31.371  51.301  1.00  0.00     0.045 C 
HETATM   18  C   UNL     1       5.498  31.697  50.306  1.00  0.00     0.130 C 
HETATM   19  N   UNL     1       5.283  30.990  49.053  1.00  0.00    -0.328 N 
HETATM   20  C   UNL     1       5.208  31.694  47.864  1.00  0.00     0.362 C 
HETATM   21  C   UNL     1       5.173  29.538  49.148  1.00  0.00     0.130 C 
HETATM   22  O   UNL     1       5.342  32.910  47.782  1.00  0.00    -0.238 OA
HETATM   23  C   UNL     1       4.072  29.145  50.127  1.00  0.00     0.045 C 
BRANCH  20  24
HETATM   24  O   UNL     1       4.956  30.889  46.798  1.00  0.00    -0.304 OA
BRANCH  24  25
HETATM   25  C   UNL     1       3.774  31.187  46.042  1.00  0.00     0.176 C 
HETATM   26  C   UNL     1       2.622  30.326  46.523  1.00  0.00     0.034 C 
ENDBRANCH  24  25
ENDBRANCH  20  24
ENDBRANCH  13  16
ENDBRANCH   1  12
BRANCH   2  27
HETATM   27  C   UNL     1       5.336  29.132  55.889  1.00  0.00     0.006 A 
HETATM   28  S   UNL     1       3.739  29.267  56.520  1.00  0.00    -0.104 SA
HETATM   29  C   UNL     1       3.885  30.956  56.714  1.00  0.00     0.050 A 
HETATM   30  C   UNL     1       5.113  31.420  56.301  1.00  0.00     0.008 A 
HETATM   31  C   UNL     1       5.949  30.370  55.820  1.00  0.00     0.017 A 
ENDBRANCH   2  27
BRANCH   3  32
HETATM   32  C   UNL     1       7.202  27.785  57.677  1.00  0.00     0.153 C 
BRANCH  32  33
HETATM   33  C   UNL     1       8.384  28.759  57.760  1.00  0.00     0.187 C 
BRANCH  33  34
HETATM   34  O   UNL     1       8.339  29.474  58.995  1.00  0.00    -0.394 OA
HETATM   35  C   UNL     1       9.115  30.665  58.926  1.00  0.00     0.201 C 
ENDBRANCH  33  34
ENDBRANCH  32  33
ENDBRANCH   3  32
TORSDOF 8
ENDMDL
MODEL 4
REMARK VINA RESULT:      -7.3      7.047     10.749
REMARK  8 active torsions:
REMARK  status: ('A' for Active; 'I' for Inactive)
REMARK    1  A    between atoms: C_2  and  O_3 
REMARK    2  A    between atoms: O_3  and  C_4 
REMARK       I    between atoms: C_4  and  N_5 
REMARK    3  A    between atoms: C_8  and  N_9 
REMARK       I    between atoms: N_9  and  C_10 
REMARK    4  A    between atoms: C_10  and  C_11 
REMARK    5  A    between atoms: C_12  and  C_13 
REMARK    6  A    between atoms: N_18  and  C_19 
REMARK    7  A    between atoms: C_19  and  C_20 
REMARK    8  A    between atoms: C_20  and  O_21 
ROOT
HETATM    1  C   UNL     1       5.161  32.442  60.546  1.00  0.00     0.139 C 
HETATM    2  C   UNL     1       5.953  32.453  59.216  1.00  0.00     0.145 C 
HETATM    3  N   UNL     1       7.056  31.468  59.266  1.00  0.00    -0.335 N 
HETATM    4  C   UNL     1       7.894  31.443  60.385  1.00  0.00     0.255 C 
HETATM    5  O   UNL     1       8.970  30.853  60.404  1.00  0.00    -0.267 OA
HETATM    6  C   UNL     1       7.425  32.140  61.616  1.00  0.00     0.039 A 
HETATM    7  C   UNL     1       6.105  32.603  61.726  1.00  0.00    -0.027 A 
HETATM    8  C   UNL     1       8.312  32.265  62.694  1.00  0.00     0.017 A 
HETATM    9  C   UNL     1       7.885  32.830  63.894  1.00  0.00     0.001 A 
HETATM   10  C   UNL     1       6.565  33.251  64.028  1.00  0.00     0.001 A 
HETATM   11  C   UNL     1       5.677  33.128  62.958  1.00  0.00     0.009 A 
ENDROOT
BRANCH   1  12
HETATM   12  C   UNL     1       4.041  33.481  60.532  1.00  0.00     0.229 C 
HETATM   13  N   UNL     1       4.420  34.786  60.277  1.00  0.00    -0.356 N 
HETATM   14  H   UNL     1       5.403  35.020  60.344  1.00  0.00     0.162 HD
HETATM   15  O   UNL     1       2.878  33.166  60.778  1.00  0.00    -0.273 OA
BRANCH  13  16
HETATM   16  C   UNL     1       3.451  35.879  60.351  1.00  0.00     0.087 C 
HETATM   17  C   UNL     1       3.814  36.872  61.465  1.00  0.00     0.045 C 
HETATM   18  C   UNL     1       5.001  37.749  61.080  1.00  0.00     0.130 C 
HETATM   19  N   UNL     1       4.767  38.386  59.792  1.00  0.00    -0.328 N 
HETATM   20  C   UNL     1       4.832  39.763  59.679  1.00  0.00     0.362 C 
HETATM   21  C   UNL     1       4.487  37.488  58.676  1.00  0.00     0.130 C 
HETATM   22  O   UNL     1       5.108  40.512  60.610  1.00  0.00    -0.238 OA
HETATM   23  C   UNL     1       3.301  36.584  58.997  1.00  0.00     0.045 C 
BRANCH  20  24
HETATM   24  O   UNL     1       4.543  40.195  58.423  1.00  0.00    -0.304 OA
BRANCH  24  25
HETATM   25  C   UNL     1       3.463  41.134  58.307  1.00  0.00     0.176 C 
HETATM   26  C   UNL     1       2.161  40.395  58.069  1.00  0.00     0.034 C 
ENDBRANCH  24  25
ENDBRANCH  20  24
ENDBRANCH  13  16
ENDBRANCH   1  12
BRANCH   2  27
HETATM   27  C   UNL     1       5.036  32.249  58.028  1.00  0.00     0.006 A 
HETATM   28  S   UNL     1       3.897  30.958  58.058  1.00  0.00    -0.104 SA
HETATM   29  C   UNL     1       3.315  31.345  56.501  1.00  0.00     0.050 A 
HETATM   30  C   UNL     1       3.973  32.424  55.957  1.00  0.00     0.008 A 
HETATM   31  C   UNL     1       4.969  32.944  56.834  1.00  0.00     0.017 A 
ENDBRANCH   2  27
BRANCH   3  32
HETATM   32  C   UNL     1       7.556  30.784  58.062  1.00  0.00     0.153 C 
BRANCH  32  33
HETATM   33  C   UNL     1       7.226  29.287  58.086  1.00  0.00     0.187 C 
BRANCH  33  34
HETATM   34  O   UNL     1       8.427  28.522  57.972  1.00  0.00    -0.394 OA
HETATM   35  C   UNL     1       9.433  29.248  57.278  1.00  0.00     0.201 C 
ENDBRANCH  33  34
ENDBRANCH  32  33
ENDBRANCH   3  32
TORSDOF 8
ENDMDL
MODEL 5
REMARK VINA RESULT:      -7.3      1.934      4.869
REMARK  8 active torsions:
REMARK  status: ('A' for Active; 'I' for Inactive)
REMARK    1  A    between atoms: C_2  and  O_3 
REMARK    2  A    between atoms: O_3  and  C_4 
REMARK       I    between atoms: C_4  and  N_5 
REMARK    3  A    between atoms: C_8  and  N_9 
REMARK       I    between atoms: N_9  and  C_10 
REMARK    4  A    between atoms: C_10  and  C_11 
REMARK    5  A    between atoms: C_12  and  C_13 
REMARK    6  A    between atoms: N_18  and  C_19 
REMARK    7  A    between atoms: C_19  and  C_20 
REMARK    8  A    between atoms: C_20  and  O_21 
ROOT
HETATM    1  C   UNL     1       5.261  28.382  55.239  1.00  0.00     0.139 C 
HETATM    2  C   UNL     1       6.391  27.503  54.651  1.00  0.00     0.145 C 
HETATM    3  N   UNL     1       7.184  26.888  55.738  1.00  0.00    -0.335 N 
HETATM    4  C   UNL     1       7.629  27.693  56.792  1.00  0.00     0.255 C 
HETATM    5  O   UNL     1       8.493  27.339  57.588  1.00  0.00    -0.267 OA
HETATM    6  C   UNL     1       6.985  29.026  56.964  1.00  0.00     0.039 A 
HETATM    7  C   UNL     1       5.827  29.367  56.248  1.00  0.00    -0.027 A 
HETATM    8  C   UNL     1       7.519  29.912  57.909  1.00  0.00     0.017 A 
HETATM    9  C   UNL     1       6.894  31.131  58.163  1.00  0.00     0.001 A 
HETATM   10  C   UNL     1       5.721  31.459  57.490  1.00  0.00     0.001 A 
HETATM   11  C   UNL     1       5.183  30.581  56.548  1.00  0.00     0.009 A 
ENDROOT
BRANCH   1  12
HETATM   12  C   UNL     1       4.454  29.058  54.131  1.00  0.00     0.229 C 
HETATM   13  N   UNL     1       5.163  29.458  53.014  1.00  0.00    -0.356 N 
HETATM   14  H   UNL     1       6.172  29.497  53.078  1.00  0.00     0.162 HD
HETATM   15  O   UNL     1       3.248  29.267  54.260  1.00  0.00    -0.273 OA
BRANCH  13  16
HETATM   16  C   UNL     1       4.515  30.216  51.944  1.00  0.00     0.087 C 
HETATM   17  C   UNL     1       5.495  30.511  50.799  1.00  0.00     0.045 C 
HETATM   18  C   UNL     1       5.777  29.271  49.956  1.00  0.00     0.130 C 
HETATM   19  N   UNL     1       4.531  28.665  49.509  1.00  0.00    -0.328 N 
HETATM   20  C   UNL     1       4.307  28.459  48.159  1.00  0.00     0.362 C 
HETATM   21  C   UNL     1       3.587  28.295  50.558  1.00  0.00     0.130 C 
HETATM   22  O   UNL     1       5.120  28.733  47.284  1.00  0.00    -0.238 OA
HETATM   23  C   UNL     1       3.258  29.499  51.435  1.00  0.00     0.045 C 
BRANCH  20  24
HETATM   24  O   UNL     1       3.079  27.931  47.912  1.00  0.00    -0.304 OA
BRANCH  24  25
HETATM   25  C   UNL     1       3.054  26.710  47.158  1.00  0.00     0.176 C 
HETATM   26  C   UNL     1       3.303  25.530  48.077  1.00  0.00     0.034 C 
ENDBRANCH  24  25
ENDBRANCH  20  24
ENDBRANCH  13  16
ENDBRANCH   1  12
BRANCH   2  27
HETATM   27  C   UNL     1       5.843  26.482  53.675  1.00  0.00     0.006 A 
HETATM   28  S   UNL     1       6.572  26.329  52.122  1.00  0.00    -0.104 SA
HETATM   29  C   UNL     1       5.477  25.106  51.654  1.00  0.00     0.050 A 
HETATM   30  C   UNL     1       4.567  24.820  52.645  1.00  0.00     0.008 A 
HETATM   31  C   UNL     1       4.773  25.616  53.809  1.00  0.00     0.017 A 
ENDBRANCH   2  27
BRANCH   3  32
HETATM   32  C   UNL     1       7.852  25.585  55.587  1.00  0.00     0.153 C 
BRANCH  32  33
HETATM   33  C   UNL     1       7.143  24.491  56.394  1.00  0.00     0.187 C 
BRANCH  33  34
HETATM   34  O   UNL     1       7.017  23.308  55.604  1.00  0.00    -0.394 OA
HETATM   35  C   UNL     1       7.770  23.412  54.402  1.00  0.00     0.201 C 
ENDBRANCH  33  34
ENDBRANCH  32  33
ENDBRANCH   3  32
TORSDOF 8
ENDMDL
MODEL 6
REMARK VINA RESULT:      -7.2      2.730      8.483
REMARK  8 active torsions:
REMARK  status: ('A' for Active; 'I' for Inactive)
REMARK    1  A    between atoms: C_2  and  O_3 
REMARK    2  A    between atoms: O_3  and  C_4 
REMARK       I    between atoms: C_4  and  N_5 
REMARK    3  A    between atoms: C_8  and  N_9 
REMARK       I    between atoms: N_9  and  C_10 
REMARK    4  A    between atoms: C_10  and  C_11 
REMARK    5  A    between atoms: C_12  and  C_13 
REMARK    6  A    between atoms: N_18  and  C_19 
REMARK    7  A    between atoms: C_19  and  C_20 
REMARK    8  A    between atoms: C_20  and  O_21 
ROOT
HETATM    1  C   UNL     1       3.533  28.087  50.163  1.00  0.00     0.139 C 
HETATM    2  C   UNL     1       3.259  29.582  49.868  1.00  0.00     0.145 C 
HETATM    3  N   UNL     1       1.878  29.762  49.368  1.00  0.00    -0.335 N 
HETATM    4  C   UNL     1       1.408  28.924  48.352  1.00  0.00     0.255 C 
HETATM    5  O   UNL     1       0.392  29.159  47.705  1.00  0.00    -0.267 OA
HETATM    6  C   UNL     1       2.169  27.672  48.082  1.00  0.00     0.039 A 
HETATM    7  C   UNL     1       3.176  27.235  48.956  1.00  0.00    -0.027 A 
HETATM    8  C   UNL     1       1.813  26.898  46.968  1.00  0.00     0.017 A 
HETATM    9  C   UNL     1       2.441  25.677  46.731  1.00  0.00     0.001 A 
HETATM   10  C   UNL     1       3.409  25.214  47.617  1.00  0.00     0.001 A 
HETATM   11  C   UNL     1       3.767  25.979  48.728  1.00  0.00     0.009 A 
ENDROOT
BRANCH   1  12
HETATM   12  C   UNL     1       4.967  27.872  50.643  1.00  0.00     0.229 C 
HETATM   13  N   UNL     1       5.125  27.074  51.761  1.00  0.00    -0.356 N 
HETATM   14  H   UNL     1       4.308  26.871  52.322  1.00  0.00     0.162 HD
HETATM   15  O   UNL     1       5.915  28.422  50.083  1.00  0.00    -0.273 OA
BRANCH  13  16
HETATM   16  C   UNL     1       6.440  26.892  52.376  1.00  0.00     0.087 C 
HETATM   17  C   UNL     1       6.404  27.224  53.875  1.00  0.00     0.045 C 
HETATM   18  C   UNL     1       5.709  26.133  54.683  1.00  0.00     0.130 C 
HETATM   19  N   UNL     1       6.294  24.832  54.392  1.00  0.00    -0.328 N 
HETATM   20  C   UNL     1       6.796  24.055  55.420  1.00  0.00     0.362 C 
HETATM   21  C   UNL     1       6.292  24.428  52.990  1.00  0.00     0.130 C 
HETATM   22  O   UNL     1       6.760  24.379  56.602  1.00  0.00    -0.238 OA
HETATM   23  C   UNL     1       6.982  25.479  52.126  1.00  0.00     0.045 C 
BRANCH  20  24
HETATM   24  O   UNL     1       7.348  22.896  54.972  1.00  0.00    -0.304 OA
BRANCH  24  25
HETATM   25  C   UNL     1       8.066  22.118  55.941  1.00  0.00     0.176 C 
HETATM   26  C   UNL     1       7.681  20.657  55.816  1.00  0.00     0.034 C 
ENDBRANCH  24  25
ENDBRANCH  20  24
ENDBRANCH  13  16
ENDBRANCH   1  12
BRANCH   2  27
HETATM   27  C   UNL     1       3.564  30.445  51.074  1.00  0.00     0.006 A 
HETATM   28  S   UNL     1       4.606  31.805  50.891  1.00  0.00    -0.104 SA
HETATM   29  C   UNL     1       4.483  32.208  52.545  1.00  0.00     0.050 A 
HETATM   30  C   UNL     1       3.678  31.328  53.232  1.00  0.00     0.008 A 
HETATM   31  C   UNL     1       3.152  30.309  52.387  1.00  0.00     0.017 A 
ENDBRANCH   2  27
BRANCH   3  32
HETATM   32  C   UNL     1       1.112  30.999  49.599  1.00  0.00     0.153 C 
BRANCH  32  33
HETATM   33  C   UNL     1       1.572  32.128  48.669  1.00  0.00     0.187 C 
BRANCH  33  34
HETATM   34  O   UNL     1       1.363  33.393  49.299  1.00  0.00    -0.394 OA
HETATM   35  C   UNL     1       1.077  33.235  50.683  1.00  0.00     0.201 C 
ENDBRANCH  33  34
ENDBRANCH  32  33
ENDBRANCH   3  32
TORSDOF 8
ENDMDL
MODEL 7
REMARK VINA RESULT:      -6.8      3.346      5.314
REMARK  8 active torsions:
REMARK  status: ('A' for Active; 'I' for Inactive)
REMARK    1  A    between atoms: C_2  and  O_3 
REMARK    2  A    between atoms: O_3  and  C_4 
REMARK       I    between atoms: C_4  and  N_5 
REMARK    3  A    between atoms: C_8  and  N_9 
REMARK       I    between atoms: N_9  and  C_10 
REMARK    4  A    between atoms: C_10  and  C_11 
REMARK    5  A    between atoms: C_12  and  C_13 
REMARK    6  A    between atoms: N_18  and  C_19 
REMARK    7  A    between atoms: C_19  and  C_20 
REMARK    8  A    between atoms: C_20  and  O_21 
ROOT
HETATM    1  C   UNL     1       5.061  28.554  51.302  1.00  0.00     0.139 C 
HETATM    2  C   UNL     1       3.849  29.307  51.904  1.00  0.00     0.145 C 
HETATM    3  N   UNL     1       3.980  29.399  53.375  1.00  0.00    -0.335 N 
HETATM    4  C   UNL     1       4.307  28.249  54.101  1.00  0.00     0.255 C 
HETATM    5  O   UNL     1       4.184  28.167  55.319  1.00  0.00    -0.267 OA
HETATM    6  C   UNL     1       4.864  27.091  53.347  1.00  0.00     0.039 A 
HETATM    7  C   UNL     1       5.262  27.223  52.007  1.00  0.00    -0.027 A 
HETATM    8  C   UNL     1       5.050  25.877  54.024  1.00  0.00     0.017 A 
HETATM    9  C   UNL     1       5.650  24.797  53.380  1.00  0.00     0.001 A 
HETATM   10  C   UNL     1       6.087  24.933  52.065  1.00  0.00     0.001 A 
HETATM   11  C   UNL     1       5.907  26.139  51.386  1.00  0.00     0.009 A 
ENDROOT
BRANCH   1  12
HETATM   12  C   UNL     1       4.927  28.413  49.786  1.00  0.00     0.229 C 
HETATM   13  N   UNL     1       3.727  27.906  49.323  1.00  0.00    -0.356 N 
HETATM   14  H   UNL     1       3.112  27.452  49.986  1.00  0.00     0.162 HD
HETATM   15  O   UNL     1       5.859  28.698  49.036  1.00  0.00    -0.273 OA
BRANCH  13  16
HETATM   16  C   UNL     1       3.530  27.622  47.902  1.00  0.00     0.087 C 
HETATM   17  C   UNL     1       2.456  26.543  47.693  1.00  0.00     0.045 C 
HETATM   18  C   UNL     1       1.051  27.085  47.934  1.00  0.00     0.130 C 
HETATM   19  N   UNL     1       0.825  28.286  47.144  1.00  0.00    -0.328 N 
HETATM   20  C   UNL     1      -0.247  28.348  46.271  1.00  0.00     0.362 C 
HETATM   21  C   UNL     1       1.773  29.376  47.351  1.00  0.00     0.130 C 
HETATM   22  O   UNL     1      -1.064  27.446  46.130  1.00  0.00    -0.238 OA
HETATM   23  C   UNL     1       3.202  28.899  47.118  1.00  0.00     0.045 C 
BRANCH  20  24
HETATM   24  O   UNL     1      -0.284  29.517  45.579  1.00  0.00    -0.304 OA
BRANCH  24  25
HETATM   25  C   UNL     1      -1.537  30.217  45.581  1.00  0.00     0.176 C 
HETATM   26  C   UNL     1      -1.712  30.957  46.893  1.00  0.00     0.034 C 
ENDBRANCH  24  25
ENDBRANCH  20  24
ENDBRANCH  13  16
ENDBRANCH   1  12
BRANCH   2  27
HETATM   27  C   UNL     1       3.658  30.657  51.246  1.00  0.00     0.006 A 
HETATM   28  S   UNL     1       2.100  31.091  50.656  1.00  0.00    -0.104 SA
HETATM   29  C   UNL     1       2.659  32.602  50.091  1.00  0.00     0.050 A 
HETATM   30  C   UNL     1       4.002  32.778  50.331  1.00  0.00     0.008 A 
HETATM   31  C   UNL     1       4.581  31.656  50.993  1.00  0.00     0.017 A 
ENDBRANCH   2  27
BRANCH   3  32
HETATM   32  C   UNL     1       3.417  30.518  54.147  1.00  0.00     0.153 C 
BRANCH  32  33
HETATM   33  C   UNL     1       4.518  31.426  54.709  1.00  0.00     0.187 C 
BRANCH  33  34
HETATM   34  O   UNL     1       4.416  31.491  56.132  1.00  0.00    -0.394 OA
HETATM   35  C   UNL     1       3.091  31.205  56.565  1.00  0.00     0.201 C 
ENDBRANCH  33  34
ENDBRANCH  32  33
ENDBRANCH   3  32
TORSDOF 8
ENDMDL
MODEL 8
REMARK VINA RESULT:      -6.8      2.430      5.269
REMARK  8 active torsions:
REMARK  status: ('A' for Active; 'I' for Inactive)
REMARK    1  A    between atoms: C_2  and  O_3 
REMARK    2  A    between atoms: O_3  and  C_4 
REMARK       I    between atoms: C_4  and  N_5 
REMARK    3  A    between atoms: C_8  and  N_9 
REMARK       I    between atoms: N_9  and  C_10 
REMARK    4  A    between atoms: C_10  and  C_11 
REMARK    5  A    between atoms: C_12  and  C_13 
REMARK    6  A    between atoms: N_18  and  C_19 
REMARK    7  A    between atoms: C_19  and  C_20 
REMARK    8  A    between atoms: C_20  and  O_21 
ROOT
HETATM    1  C   UNL     1       4.695  29.056  54.803  1.00  0.00     0.139 C 
HETATM    2  C   UNL     1       6.207  28.776  54.979  1.00  0.00     0.145 C 
HETATM    3  N   UNL     1       6.624  29.057  56.370  1.00  0.00    -0.335 N 
HETATM    4  C   UNL     1       6.232  30.260  56.967  1.00  0.00     0.255 C 
HETATM    5  O   UNL     1       6.734  30.691  58.000  1.00  0.00    -0.267 OA
HETATM    6  C   UNL     1       5.125  31.022  56.323  1.00  0.00     0.039 A 
HETATM    7  C   UNL     1       4.352  30.451  55.300  1.00  0.00    -0.027 A 
HETATM    8  C   UNL     1       4.822  32.302  56.808  1.00  0.00     0.017 A 
HETATM    9  C   UNL     1       3.738  33.011  56.294  1.00  0.00     0.001 A 
HETATM   10  C   UNL     1       2.940  32.434  55.310  1.00  0.00     0.001 A 
HETATM   11  C   UNL     1       3.236  31.160  54.824  1.00  0.00     0.009 A 
ENDROOT
BRANCH   1  12
HETATM   12  C   UNL     1       4.250  28.810  53.362  1.00  0.00     0.229 C 
HETATM   13  N   UNL     1       4.864  29.582  52.392  1.00  0.00    -0.356 N 
HETATM   14  H   UNL     1       5.381  30.399  52.689  1.00  0.00     0.162 HD
HETATM   15  O   UNL     1       3.364  27.998  53.099  1.00  0.00    -0.273 OA
BRANCH  13  16
HETATM   16  C   UNL     1       4.437  29.512  50.995  1.00  0.00     0.087 C 
HETATM   17  C   UNL     1       3.331  30.535  50.699  1.00  0.00     0.045 C 
HETATM   18  C   UNL     1       3.877  31.957  50.618  1.00  0.00     0.130 C 
HETATM   19  N   UNL     1       4.991  32.023  49.683  1.00  0.00    -0.328 N 
HETATM   20  C   UNL     1       4.954  32.912  48.624  1.00  0.00     0.362 C 
HETATM   21  C   UNL     1       6.107  31.123  49.954  1.00  0.00     0.130 C 
HETATM   22  O   UNL     1       4.033  33.696  48.424  1.00  0.00    -0.238 OA
HETATM   23  C   UNL     1       5.626  29.678  50.040  1.00  0.00     0.045 C 
BRANCH  20  24
HETATM   24  O   UNL     1       6.047  32.811  47.823  1.00  0.00    -0.304 OA
BRANCH  24  25
HETATM   25  C   UNL     1       5.929  33.383  46.512  1.00  0.00     0.176 C 
HETATM   26  C   UNL     1       7.300  33.767  45.991  1.00  0.00     0.034 C 
ENDBRANCH  24  25
ENDBRANCH  20  24
ENDBRANCH  13  16
ENDBRANCH   1  12
BRANCH   2  27
HETATM   27  C   UNL     1       6.563  27.374  54.531  1.00  0.00     0.006 A 
HETATM   28  S   UNL     1       5.743  26.033  55.236  1.00  0.00    -0.104 SA
HETATM   29  C   UNL     1       6.638  24.912  54.312  1.00  0.00     0.050 A 
HETATM   30  C   UNL     1       7.551  25.532  53.490  1.00  0.00     0.008 A 
HETATM   31  C   UNL     1       7.513  26.951  53.618  1.00  0.00     0.017 A 
ENDBRANCH   2  27
BRANCH   3  32
HETATM   32  C   UNL     1       7.731  28.338  57.021  1.00  0.00     0.153 C 
BRANCH  32  33
HETATM   33  C   UNL     1       9.094  28.844  56.537  1.00  0.00     0.187 C 
BRANCH  33  34
HETATM   34  O   UNL     1       9.815  29.421  57.628  1.00  0.00    -0.394 OA
HETATM   35  C   UNL     1      11.062  29.952  57.195  1.00  0.00     0.201 C 
ENDBRANCH  33  34
ENDBRANCH  32  33
ENDBRANCH   3  32
TORSDOF 8
ENDMDL
MODEL 9
REMARK VINA RESULT:      -6.5     16.791     19.922
REMARK  8 active torsions:
REMARK  status: ('A' for Active; 'I' for Inactive)
REMARK    1  A    between atoms: C_2  and  O_3 
REMARK    2  A    between atoms: O_3  and  C_4 
REMARK       I    between atoms: C_4  and  N_5 
REMARK    3  A    between atoms: C_8  and  N_9 
REMARK       I    between atoms: N_9  and  C_10 
REMARK    4  A    between atoms: C_10  and  C_11 
REMARK    5  A    between atoms: C_12  and  C_13 
REMARK    6  A    between atoms: N_18  and  C_19 
REMARK    7  A    between atoms: C_19  and  C_20 
REMARK    8  A    between atoms: C_20  and  O_21 
ROOT
HETATM    1  C   UNL     1      13.853   8.763  56.686  1.00  0.00     0.139 C 
HETATM    2  C   UNL     1      13.168   9.983  56.024  1.00  0.00     0.145 C 
HETATM    3  N   UNL     1      14.099  10.650  55.087  1.00  0.00    -0.335 N 
HETATM    4  C   UNL     1      15.401  10.935  55.511  1.00  0.00     0.255 C 
HETATM    5  O   UNL     1      16.149  11.702  54.913  1.00  0.00    -0.267 OA
HETATM    6  C   UNL     1      15.900  10.236  56.729  1.00  0.00     0.039 A 
HETATM    7  C   UNL     1      15.185   9.168  57.294  1.00  0.00    -0.027 A 
HETATM    8  C   UNL     1      17.137  10.621  57.263  1.00  0.00     0.017 A 
HETATM    9  C   UNL     1      17.680   9.933  58.347  1.00  0.00     0.001 A 
HETATM   10  C   UNL     1      16.999   8.845  58.886  1.00  0.00     0.001 A 
HETATM   11  C   UNL     1      15.767   8.456  58.357  1.00  0.00     0.009 A 
ENDROOT
BRANCH   1  12
HETATM   12  C   UNL     1      12.921   8.082  57.687  1.00  0.00     0.229 C 
HETATM   13  N   UNL     1      12.315   8.907  58.617  1.00  0.00    -0.356 N 
HETATM   14  H   UNL     1      12.681   9.843  58.736  1.00  0.00     0.162 HD
HETATM   15  O   UNL     1      12.763   6.862  57.682  1.00  0.00    -0.273 OA
BRANCH  13  16
HETATM   16  C   UNL     1      11.494   8.351  59.693  1.00  0.00     0.087 C 
HETATM   17  C   UNL     1      11.480   9.278  60.918  1.00  0.00     0.045 C 
HETATM   18  C   UNL     1      10.612  10.511  60.688  1.00  0.00     0.130 C 
HETATM   19  N   UNL     1       9.282  10.122  60.241  1.00  0.00    -0.328 N 
HETATM   20  C   UNL     1       8.166  10.545  60.941  1.00  0.00     0.362 C 
HETATM   21  C   UNL     1       9.226   9.299  59.038  1.00  0.00     0.130 C 
HETATM   22  O   UNL     1       8.214  11.271  61.928  1.00  0.00    -0.238 OA
HETATM   23  C   UNL     1      10.073   8.041  59.207  1.00  0.00     0.045 C 
BRANCH  20  24
HETATM   24  O   UNL     1       7.010  10.056  60.420  1.00  0.00    -0.304 OA
BRANCH  24  25
HETATM   25  C   UNL     1       6.376   9.003  61.161  1.00  0.00     0.176 C 
HETATM   26  C   UNL     1       5.752   8.004  60.206  1.00  0.00     0.034 C 
ENDBRANCH  24  25
ENDBRANCH  20  24
ENDBRANCH  13  16
ENDBRANCH   1  12
BRANCH   2  27
HETATM   27  C   UNL     1      11.858   9.593  55.371  1.00  0.00     0.006 A 
HETATM   28  S   UNL     1      11.846   8.331  54.200  1.00  0.00    -0.104 SA
HETATM   29  C   UNL     1      10.166   8.491  53.944  1.00  0.00     0.050 A 
HETATM   30  C   UNL     1       9.618   9.486  54.720  1.00  0.00     0.008 A 
HETATM   31  C   UNL     1      10.593  10.126  55.540  1.00  0.00     0.017 A 
ENDBRANCH   2  27
BRANCH   3  32
HETATM   32  C   UNL     1      13.632  11.370  53.891  1.00  0.00     0.153 C 
BRANCH  32  33
HETATM   33  C   UNL     1      13.026  12.731  54.253  1.00  0.00     0.187 C 
BRANCH  33  34
HETATM   34  O   UNL     1      12.046  13.101  53.282  1.00  0.00    -0.394 OA
HETATM   35  C   UNL     1      11.689  11.993  52.465  1.00  0.00     0.201 C 
ENDBRANCH  33  34
ENDBRANCH  32  33
ENDBRANCH   3  32
TORSDOF 8
ENDMDL
MODEL 10
REMARK VINA RESULT:      -6.5      2.605      9.525
REMARK  8 active torsions:
REMARK  status: ('A' for Active; 'I' for Inactive)
REMARK    1  A    between atoms: C_2  and  O_3 
REMARK    2  A    between atoms: O_3  and  C_4 
REMARK       I    between atoms: C_4  and  N_5 
REMARK    3  A    between atoms: C_8  and  N_9 
REMARK       I    between atoms: N_9  and  C_10 
REMARK    4  A    between atoms: C_10  and  C_11 
REMARK    5  A    between atoms: C_12  and  C_13 
REMARK    6  A    between atoms: N_18  and  C_19 
REMARK    7  A    between atoms: C_19  and  C_20 
REMARK    8  A    between atoms: C_20  and  O_21 
ROOT
HETATM    1  C   UNL     1       5.234  30.910  50.065  1.00  0.00     0.139 C 
HETATM    2  C   UNL     1       4.329  30.545  48.863  1.00  0.00     0.145 C 
HETATM    3  N   UNL     1       4.824  31.197  47.630  1.00  0.00    -0.335 N 
HETATM    4  C   UNL     1       5.142  32.559  47.663  1.00  0.00     0.255 C 
HETATM    5  O   UNL     1       5.307  33.233  46.652  1.00  0.00    -0.267 OA
HETATM    6  C   UNL     1       5.322  33.194  48.999  1.00  0.00     0.039 A 
HETATM    7  C   UNL     1       5.399  32.417  50.165  1.00  0.00    -0.027 A 
HETATM    8  C   UNL     1       5.484  34.585  49.063  1.00  0.00     0.017 A 
HETATM    9  C   UNL     1       5.744  35.207  50.282  1.00  0.00     0.001 A 
HETATM   10  C   UNL     1       5.865  34.440  51.437  1.00  0.00     0.001 A 
HETATM   11  C   UNL     1       5.707  33.055  51.380  1.00  0.00     0.009 A 
ENDROOT
BRANCH   1  12
HETATM   12  C   UNL     1       4.717  30.278  51.357  1.00  0.00     0.229 C 
HETATM   13  N   UNL     1       5.582  29.413  52.003  1.00  0.00    -0.356 N 
HETATM   14  H   UNL     1       6.386  29.072  51.492  1.00  0.00     0.162 HD
HETATM   15  O   UNL     1       3.578  30.501  51.763  1.00  0.00    -0.273 OA
BRANCH  13  16
HETATM   16  C   UNL     1       5.153  28.665  53.184  1.00  0.00     0.087 C 
HETATM   17  C   UNL     1       4.527  27.318  52.793  1.00  0.00     0.045 C 
HETATM   18  C   UNL     1       5.581  26.308  52.350  1.00  0.00     0.130 C 
HETATM   19  N   UNL     1       6.628  26.190  53.354  1.00  0.00    -0.328 N 
HETATM   20  C   UNL     1       6.931  24.952  53.894  1.00  0.00     0.362 C 
HETATM   21  C   UNL     1       7.310  27.427  53.716  1.00  0.00     0.130 C 
HETATM   22  O   UNL     1       6.384  23.909  53.558  1.00  0.00    -0.238 OA
HETATM   23  C   UNL     1       6.308  28.480  54.177  1.00  0.00     0.045 C 
BRANCH  20  24
HETATM   24  O   UNL     1       7.896  25.026  54.849  1.00  0.00    -0.304 OA
BRANCH  24  25
HETATM   25  C   UNL     1       7.530  24.563  56.158  1.00  0.00     0.176 C 
HETATM   26  C   UNL     1       8.275  25.356  57.213  1.00  0.00     0.034 C 
ENDBRANCH  24  25
ENDBRANCH  20  24
ENDBRANCH  13  16
ENDBRANCH   1  12
BRANCH   2  27
HETATM   27  C   UNL     1       4.187  29.044  48.716  1.00  0.00     0.006 A 
HETATM   28  S   UNL     1       2.620  28.336  48.806  1.00  0.00    -0.104 SA
HETATM   29  C   UNL     1       3.245  26.762  48.593  1.00  0.00     0.050 A 
HETATM   30  C   UNL     1       4.615  26.762  48.466  1.00  0.00     0.008 A 
HETATM   31  C   UNL     1       5.160  28.077  48.542  1.00  0.00     0.017 A 
ENDBRANCH   2  27
BRANCH   3  32
HETATM   32  C   UNL     1       4.637  30.604  46.296  1.00  0.00     0.153 C 
BRANCH  32  33
HETATM   33  C   UNL     1       3.396  31.171  45.596  1.00  0.00     0.187 C 
BRANCH  33  34
HETATM   34  O   UNL     1       2.231  30.459  46.020  1.00  0.00    -0.394 OA
HETATM   35  C   UNL     1       1.312  31.325  46.675  1.00  0.00     0.201 C 
ENDBRANCH  33  34
ENDBRANCH  32  33
ENDBRANCH   3  32
TORSDOF 8
ENDMDL
