MODEL 1
REMARK VINA RESULT:      -9.6      0.000      0.000
REMARK  5 active torsions:
REMARK  status: ('A' for Active; 'I' for Inactive)
REMARK    1  A    between atoms: C_7  and  C_8 
REMARK    2  A    between atoms: N_9  and  C_10 
REMARK    3  A    between atoms: C_10  and  C_11 
REMARK       I    between atoms: C_11  and  N_12 
REMARK    4  A    between atoms: N_12  and  C_13 
REMARK    5  A    between atoms: C_13  and  C_14 
ROOT
HETATM    1  C   UNL     1       7.107  28.152  55.435  1.00  0.00     0.158 A 
HETATM    2  N   UNL     1       5.830  28.524  56.022  1.00  0.00    -0.326 N 
HETATM    3  C   UNL     1       5.973  29.421  57.060  1.00  0.00     0.255 A 
HETATM    4  O   UNL     1       5.100  29.981  57.694  1.00  0.00    -0.267 OA
HETATM    5  C   UNL     1       7.418  29.593  57.278  1.00  0.00     0.040 A 
HETATM    6  C   UNL     1       8.099  28.813  56.343  1.00  0.00    -0.015 A 
HETATM    7  C   UNL     1       8.068  30.372  58.217  1.00  0.00     0.017 A 
HETATM    8  C   UNL     1       9.465  30.366  58.201  1.00  0.00     0.001 A 
HETATM    9  C   UNL     1      10.167  29.592  57.258  1.00  0.00     0.001 A 
HETATM   10  C   UNL     1       9.486  28.812  56.317  1.00  0.00     0.011 A 
ENDROOT
BRANCH   1  11
HETATM   11  C   UNL     1       7.373  26.680  55.417  1.00  0.00     0.004 A 
HETATM   12  C   UNL     1       7.560  25.889  56.550  1.00  0.00     0.017 A 
HETATM   13  C   UNL     1       7.520  26.257  57.997  1.00  0.00     0.069 C 
HETATM   14  N   UNL     1       7.832  24.604  56.134  1.00  0.00    -0.354 N 
HETATM   15  C   UNL     1       8.103  23.497  57.029  1.00  0.00     0.156 C 
HETATM   16  C   UNL     1       7.837  24.533  54.757  1.00  0.00     0.045 A 
HETATM   17  C   UNL     1       7.524  25.809  54.280  1.00  0.00     0.001 A 
HETATM   18  C   UNL     1       8.098  23.458  53.888  1.00  0.00     0.030 A 
HETATM   19  C   UNL     1       7.452  25.999  52.880  1.00  0.00     0.014 A 
HETATM   20  C   UNL     1       7.710  24.935  52.011  1.00  0.00     0.001 A 
HETATM   21  C   UNL     1       8.034  23.681  52.511  1.00  0.00     0.002 A 
ENDBRANCH   1  11
BRANCH   2  22
HETATM   22  C   UNL     1       4.555  28.053  55.493  1.00  0.00     0.229 C 
BRANCH  22  23
HETATM   23  C   UNL     1       4.206  28.682  54.144  1.00  0.00     0.235 C 
HETATM   24  N   UNL     1       4.324  27.830  53.069  1.00  0.00    -0.357 N 
HETATM   25  H   UNL     1       4.803  26.945  53.207  1.00  0.00     0.162 HD
HETATM   26  O   UNL     1       3.931  29.873  54.024  1.00  0.00    -0.272 OA
BRANCH  24  27
HETATM   27  C   UNL     1       4.036  28.237  51.706  1.00  0.00     0.154 C 
BRANCH  27  28
HETATM   28  C   UNL     1       5.059  27.751  50.670  1.00  0.00     0.139 C 
HETATM   29  O   UNL     1       5.030  28.623  49.520  1.00  0.00    -0.384 OA
HETATM   30  C   UNL     1       4.902  27.810  48.347  1.00  0.00     0.168 C 
HETATM   31  C   UNL     1       4.257  26.520  48.796  1.00  0.00     0.029 C 
HETATM   32  C   UNL     1       4.861  26.327  50.164  1.00  0.00     0.035 C 
ENDBRANCH  27  28
ENDBRANCH  24  27
ENDBRANCH  22  23
ENDBRANCH   2  22
TORSDOF 5
ENDMDL
MODEL 2
REMARK VINA RESULT:      -9.2      9.273     13.952
REMARK  5 active torsions:
REMARK  status: ('A' for Active; 'I' for Inactive)
REMARK    1  A    between atoms: C_7  and  C_8 
REMARK    2  A    between atoms: N_9  and  C_10 
REMARK    3  A    between atoms: C_10  and  C_11 
REMARK       I    between atoms: C_11  and  N_12 
REMARK    4  A    between atoms: N_12  and  C_13 
REMARK    5  A    between atoms: C_13  and  C_14 
ROOT
HETATM    1  C   UNL     1       4.389  36.138  62.856  1.00  0.00     0.158 A 
HETATM    2  N   UNL     1       4.224  36.033  64.297  1.00  0.00    -0.326 N 
HETATM    3  C   UNL     1       4.861  37.053  64.973  1.00  0.00     0.255 A 
HETATM    4  O   UNL     1       4.842  37.290  66.165  1.00  0.00    -0.267 OA
HETATM    5  C   UNL     1       5.594  37.837  63.967  1.00  0.00     0.040 A 
HETATM    6  C   UNL     1       5.351  37.278  62.712  1.00  0.00    -0.015 A 
HETATM    7  C   UNL     1       6.400  38.946  64.149  1.00  0.00     0.017 A 
HETATM    8  C   UNL     1       6.975  39.514  63.010  1.00  0.00     0.001 A 
HETATM    9  C   UNL     1       6.733  38.969  61.736  1.00  0.00     0.001 A 
HETATM   10  C   UNL     1       5.913  37.846  61.578  1.00  0.00     0.011 A 
ENDROOT
BRANCH   1  11
HETATM   11  C   UNL     1       4.976  34.923  62.212  1.00  0.00     0.004 A 
HETATM   12  C   UNL     1       4.511  34.342  61.033  1.00  0.00     0.017 A 
HETATM   13  C   UNL     1       3.397  34.758  60.130  1.00  0.00     0.069 C 
HETATM   14  N   UNL     1       5.267  33.215  60.786  1.00  0.00    -0.354 N 
HETATM   15  C   UNL     1       5.068  32.333  59.654  1.00  0.00     0.156 C 
HETATM   16  C   UNL     1       6.208  33.038  61.777  1.00  0.00     0.045 A 
HETATM   17  C   UNL     1       6.072  34.106  62.668  1.00  0.00     0.001 A 
HETATM   18  C   UNL     1       7.164  32.025  61.972  1.00  0.00     0.030 A 
HETATM   19  C   UNL     1       6.943  34.163  63.780  1.00  0.00     0.014 A 
HETATM   20  C   UNL     1       7.896  33.159  63.980  1.00  0.00     0.001 A 
HETATM   21  C   UNL     1       8.001  32.101  63.088  1.00  0.00     0.002 A 
ENDBRANCH   1  11
BRANCH   2  22
HETATM   22  C   UNL     1       3.398  35.004  64.920  1.00  0.00     0.229 C 
BRANCH  22  23
HETATM   23  C   UNL     1       4.173  34.150  65.924  1.00  0.00     0.235 C 
HETATM   24  N   UNL     1       4.249  34.684  67.190  1.00  0.00    -0.357 N 
HETATM   25  H   UNL     1       3.975  35.654  67.320  1.00  0.00     0.162 HD
HETATM   26  O   UNL     1       4.754  33.118  65.599  1.00  0.00    -0.272 OA
BRANCH  24  27
HETATM   27  C   UNL     1       4.939  34.025  68.283  1.00  0.00     0.154 C 
BRANCH  27  28
HETATM   28  C   UNL     1       5.866  34.942  69.093  1.00  0.00     0.139 C 
HETATM   29  O   UNL     1       7.176  34.956  68.489  1.00  0.00    -0.384 OA
HETATM   30  C   UNL     1       8.143  34.689  69.513  1.00  0.00     0.168 C 
HETATM   31  C   UNL     1       7.412  33.930  70.594  1.00  0.00     0.029 C 
HETATM   32  C   UNL     1       6.046  34.570  70.559  1.00  0.00     0.035 C 
ENDBRANCH  27  28
ENDBRANCH  24  27
ENDBRANCH  22  23
ENDBRANCH   2  22
TORSDOF 5
ENDMDL
MODEL 3
REMARK VINA RESULT:      -8.6      1.814      4.922
REMARK  5 active torsions:
REMARK  status: ('A' for Active; 'I' for Inactive)
REMARK    1  A    between atoms: C_7  and  C_8 
REMARK    2  A    between atoms: N_9  and  C_10 
REMARK    3  A    between atoms: C_10  and  C_11 
REMARK       I    between atoms: C_11  and  N_12 
REMARK    4  A    between atoms: N_12  and  C_13 
REMARK    5  A    between atoms: C_13  and  C_14 
ROOT
HETATM    1  C   UNL     1       6.073  26.800  55.071  1.00  0.00     0.158 A 
HETATM    2  N   UNL     1       6.670  26.951  53.754  1.00  0.00    -0.326 N 
HETATM    3  C   UNL     1       7.553  25.934  53.459  1.00  0.00     0.255 A 
HETATM    4  O   UNL     1       8.145  25.731  52.417  1.00  0.00    -0.267 OA
HETATM    5  C   UNL     1       7.662  25.101  54.668  1.00  0.00     0.040 A 
HETATM    6  C   UNL     1       6.815  25.631  55.643  1.00  0.00    -0.015 A 
HETATM    7  C   UNL     1       8.437  23.976  54.881  1.00  0.00     0.017 A 
HETATM    8  C   UNL     1       8.343  23.360  56.131  1.00  0.00     0.001 A 
HETATM    9  C   UNL     1       7.488  23.876  57.122  1.00  0.00     0.001 A 
HETATM   10  C   UNL     1       6.713  25.015  56.882  1.00  0.00     0.011 A 
ENDROOT
BRANCH   1  11
HETATM   11  C   UNL     1       6.259  27.980  55.972  1.00  0.00     0.004 A 
HETATM   12  C   UNL     1       5.236  28.824  56.401  1.00  0.00     0.017 A 
HETATM   13  C   UNL     1       3.769  28.773  56.129  1.00  0.00     0.069 C 
HETATM   14  N   UNL     1       5.800  29.821  57.169  1.00  0.00    -0.354 N 
HETATM   15  C   UNL     1       5.052  30.901  57.779  1.00  0.00     0.156 C 
HETATM   16  C   UNL     1       7.167  29.658  57.245  1.00  0.00     0.045 A 
HETATM   17  C   UNL     1       7.481  28.497  56.531  1.00  0.00     0.001 A 
HETATM   18  C   UNL     1       8.156  30.434  57.875  1.00  0.00     0.030 A 
HETATM   19  C   UNL     1       8.837  28.100  56.469  1.00  0.00     0.014 A 
HETATM   20  C   UNL     1       9.826  28.867  57.093  1.00  0.00     0.001 A 
HETATM   21  C   UNL     1       9.488  30.023  57.783  1.00  0.00     0.002 A 
ENDBRANCH   1  11
BRANCH   2  22
HETATM   22  C   UNL     1       6.288  28.019  52.837  1.00  0.00     0.229 C 
BRANCH  22  23
HETATM   23  C   UNL     1       5.160  27.612  51.889  1.00  0.00     0.235 C 
HETATM   24  N   UNL     1       5.562  26.849  50.816  1.00  0.00    -0.357 N 
HETATM   25  H   UNL     1       6.557  26.778  50.623  1.00  0.00     0.162 HD
HETATM   26  O   UNL     1       4.007  28.012  52.028  1.00  0.00    -0.272 OA
BRANCH  24  27
HETATM   27  C   UNL     1       4.640  26.362  49.806  1.00  0.00     0.154 C 
BRANCH  27  28
HETATM   28  C   UNL     1       4.707  27.117  48.471  1.00  0.00     0.139 C 
HETATM   29  O   UNL     1       4.198  28.455  48.650  1.00  0.00    -0.384 OA
HETATM   30  C   UNL     1       3.220  28.701  47.632  1.00  0.00     0.168 C 
HETATM   31  C   UNL     1       2.699  27.347  47.213  1.00  0.00     0.029 C 
HETATM   32  C   UNL     1       3.934  26.488  47.319  1.00  0.00     0.035 C 
ENDBRANCH  27  28
ENDBRANCH  24  27
ENDBRANCH  22  23
ENDBRANCH   2  22
TORSDOF 5
ENDMDL
MODEL 4
REMARK VINA RESULT:      -8.6      7.529     11.746
REMARK  5 active torsions:
REMARK  status: ('A' for Active; 'I' for Inactive)
REMARK    1  A    between atoms: C_7  and  C_8 
REMARK    2  A    between atoms: N_9  and  C_10 
REMARK    3  A    between atoms: C_10  and  C_11 
REMARK       I    between atoms: C_11  and  N_12 
REMARK    4  A    between atoms: N_12  and  C_13 
REMARK    5  A    between atoms: C_13  and  C_14 
ROOT
HETATM    1  C   UNL     1       3.450  33.991  62.920  1.00  0.00     0.158 A 
HETATM    2  N   UNL     1       4.336  32.938  62.449  1.00  0.00    -0.326 N 
HETATM    3  C   UNL     1       5.306  32.618  63.377  1.00  0.00     0.255 A 
HETATM    4  O   UNL     1       6.137  31.733  63.319  1.00  0.00    -0.267 OA
HETATM    5  C   UNL     1       5.158  33.566  64.492  1.00  0.00     0.040 A 
HETATM    6  C   UNL     1       4.082  34.410  64.212  1.00  0.00    -0.015 A 
HETATM    7  C   UNL     1       5.906  33.668  65.651  1.00  0.00     0.017 A 
HETATM    8  C   UNL     1       5.543  34.660  66.564  1.00  0.00     0.001 A 
HETATM    9  C   UNL     1       4.455  35.513  66.300  1.00  0.00     0.001 A 
HETATM   10  C   UNL     1       3.713  35.390  65.121  1.00  0.00     0.011 A 
ENDROOT
BRANCH   1  11
HETATM   11  C   UNL     1       3.366  35.177  62.014  1.00  0.00     0.004 A 
HETATM   12  C   UNL     1       2.334  35.419  61.108  1.00  0.00     0.017 A 
HETATM   13  C   UNL     1       1.094  34.633  60.831  1.00  0.00     0.069 C 
HETATM   14  N   UNL     1       2.633  36.574  60.417  1.00  0.00    -0.354 N 
HETATM   15  C   UNL     1       1.801  37.139  59.374  1.00  0.00     0.156 C 
HETATM   16  C   UNL     1       3.839  37.091  60.840  1.00  0.00     0.045 A 
HETATM   17  C   UNL     1       4.308  36.257  61.859  1.00  0.00     0.001 A 
HETATM   18  C   UNL     1       4.562  38.218  60.410  1.00  0.00     0.030 A 
HETATM   19  C   UNL     1       5.538  36.583  62.475  1.00  0.00     0.014 A 
HETATM   20  C   UNL     1       6.263  37.702  62.052  1.00  0.00     0.001 A 
HETATM   21  C   UNL     1       5.781  38.506  61.028  1.00  0.00     0.002 A 
ENDBRANCH   1  11
BRANCH   2  22
HETATM   22  C   UNL     1       4.140  32.257  61.175  1.00  0.00     0.229 C 
BRANCH  22  23
HETATM   23  C   UNL     1       5.224  32.593  60.151  1.00  0.00     0.235 C 
HETATM   24  N   UNL     1       6.177  31.613  59.985  1.00  0.00    -0.357 N 
HETATM   25  H   UNL     1       6.211  30.856  60.662  1.00  0.00     0.162 HD
HETATM   26  O   UNL     1       5.288  33.685  59.593  1.00  0.00    -0.272 OA
BRANCH  24  27
HETATM   27  C   UNL     1       7.286  31.741  59.059  1.00  0.00     0.154 C 
BRANCH  27  28
HETATM   28  C   UNL     1       8.640  31.288  59.625  1.00  0.00     0.139 C 
HETATM   29  O   UNL     1       8.441  30.152  60.492  1.00  0.00    -0.384 OA
HETATM   30  C   UNL     1       9.104  30.418  61.735  1.00  0.00     0.168 C 
HETATM   31  C   UNL     1       9.191  31.921  61.853  1.00  0.00     0.029 C 
HETATM   32  C   UNL     1       9.407  32.336  60.420  1.00  0.00     0.035 C 
ENDBRANCH  27  28
ENDBRANCH  24  27
ENDBRANCH  22  23
ENDBRANCH   2  22
TORSDOF 5
ENDMDL
MODEL 5
REMARK VINA RESULT:      -8.3      1.839      6.420
REMARK  5 active torsions:
REMARK  status: ('A' for Active; 'I' for Inactive)
REMARK    1  A    between atoms: C_7  and  C_8 
REMARK    2  A    between atoms: N_9  and  C_10 
REMARK    3  A    between atoms: C_10  and  C_11 
REMARK       I    between atoms: C_11  and  N_12 
REMARK    4  A    between atoms: N_12  and  C_13 
REMARK    5  A    between atoms: C_13  and  C_14 
ROOT
HETATM    1  C   UNL     1       6.190  27.153  52.887  1.00  0.00     0.158 A 
HETATM    2  N   UNL     1       5.293  27.170  54.031  1.00  0.00    -0.326 N 
HETATM    3  C   UNL     1       5.505  26.102  54.879  1.00  0.00     0.255 A 
HETATM    4  O   UNL     1       4.980  25.879  55.952  1.00  0.00    -0.267 OA
HETATM    5  C   UNL     1       6.515  25.245  54.238  1.00  0.00     0.040 A 
HETATM    6  C   UNL     1       6.900  25.841  53.037  1.00  0.00    -0.015 A 
HETATM    7  C   UNL     1       7.046  24.048  54.682  1.00  0.00     0.017 A 
HETATM    8  C   UNL     1       8.012  23.437  53.879  1.00  0.00     0.001 A 
HETATM    9  C   UNL     1       8.417  24.030  52.669  1.00  0.00     0.001 A 
HETATM   10  C   UNL     1       7.866  25.242  52.242  1.00  0.00     0.011 A 
ENDROOT
BRANCH   1  11
HETATM   11  C   UNL     1       5.500  27.182  51.561  1.00  0.00     0.004 A 
HETATM   12  C   UNL     1       4.855  26.094  50.973  1.00  0.00     0.017 A 
HETATM   13  C   UNL     1       4.659  24.704  51.481  1.00  0.00     0.069 C 
HETATM   14  N   UNL     1       4.390  26.491  49.737  1.00  0.00    -0.354 N 
HETATM   15  C   UNL     1       3.679  25.625  48.818  1.00  0.00     0.156 C 
HETATM   16  C   UNL     1       4.721  27.807  49.496  1.00  0.00     0.045 A 
HETATM   17  C   UNL     1       5.390  28.276  50.630  1.00  0.00     0.001 A 
HETATM   18  C   UNL     1       4.497  28.625  48.374  1.00  0.00     0.030 A 
HETATM   19  C   UNL     1       5.828  29.621  50.638  1.00  0.00     0.014 A 
HETATM   20  C   UNL     1       5.609  30.439  49.526  1.00  0.00     0.001 A 
HETATM   21  C   UNL     1       4.955  29.944  48.406  1.00  0.00     0.002 A 
ENDBRANCH   1  11
BRANCH   2  22
HETATM   22  C   UNL     1       4.349  28.255  54.273  1.00  0.00     0.229 C 
BRANCH  22  23
HETATM   23  C   UNL     1       4.924  29.352  55.169  1.00  0.00     0.235 C 
HETATM   24  N   UNL     1       5.354  28.916  56.402  1.00  0.00    -0.357 N 
HETATM   25  H   UNL     1       5.092  27.981  56.699  1.00  0.00     0.162 HD
HETATM   26  O   UNL     1       4.915  30.537  54.846  1.00  0.00    -0.272 OA
BRANCH  24  27
HETATM   27  C   UNL     1       5.932  29.804  57.394  1.00  0.00     0.154 C 
BRANCH  27  28
HETATM   28  C   UNL     1       7.245  29.300  58.007  1.00  0.00     0.139 C 
HETATM   29  O   UNL     1       8.356  29.998  57.405  1.00  0.00    -0.384 OA
HETATM   30  C   UNL     1       9.312  29.024  56.968  1.00  0.00     0.168 C 
HETATM   31  C   UNL     1       8.541  27.743  56.756  1.00  0.00     0.029 C 
HETATM   32  C   UNL     1       7.514  27.808  57.858  1.00  0.00     0.035 C 
ENDBRANCH  27  28
ENDBRANCH  24  27
ENDBRANCH  22  23
ENDBRANCH   2  22
TORSDOF 5
ENDMDL
MODEL 6
REMARK VINA RESULT:      -8.3      7.529     11.791
REMARK  5 active torsions:
REMARK  status: ('A' for Active; 'I' for Inactive)
REMARK    1  A    between atoms: C_7  and  C_8 
REMARK    2  A    between atoms: N_9  and  C_10 
REMARK    3  A    between atoms: C_10  and  C_11 
REMARK       I    between atoms: C_11  and  N_12 
REMARK    4  A    between atoms: N_12  and  C_13 
REMARK    5  A    between atoms: C_13  and  C_14 
ROOT
HETATM    1  C   UNL     1       4.822  34.104  63.183  1.00  0.00     0.158 A 
HETATM    2  N   UNL     1       6.239  33.806  63.052  1.00  0.00    -0.326 N 
HETATM    3  C   UNL     1       6.869  33.708  64.275  1.00  0.00     0.255 A 
HETATM    4  O   UNL     1       8.020  33.392  64.504  1.00  0.00    -0.267 OA
HETATM    5  C   UNL     1       5.872  34.065  65.297  1.00  0.00     0.040 A 
HETATM    6  C   UNL     1       4.663  34.339  64.655  1.00  0.00    -0.015 A 
HETATM    7  C   UNL     1       6.022  34.136  66.669  1.00  0.00     0.017 A 
HETATM    8  C   UNL     1       4.899  34.491  67.420  1.00  0.00     0.001 A 
HETATM    9  C   UNL     1       3.671  34.762  66.789  1.00  0.00     0.001 A 
HETATM   10  C   UNL     1       3.544  34.682  65.398  1.00  0.00     0.011 A 
ENDROOT
BRANCH   1  11
HETATM   11  C   UNL     1       4.377  35.327  62.446  1.00  0.00     0.004 A 
HETATM   12  C   UNL     1       3.385  35.352  61.467  1.00  0.00     0.017 A 
HETATM   13  C   UNL     1       2.525  34.250  60.941  1.00  0.00     0.069 C 
HETATM   14  N   UNL     1       3.295  36.640  60.983  1.00  0.00    -0.354 N 
HETATM   15  C   UNL     1       2.382  37.056  59.938  1.00  0.00     0.156 C 
HETATM   16  C   UNL     1       4.209  37.458  61.613  1.00  0.00     0.045 A 
HETATM   17  C   UNL     1       4.881  36.672  62.554  1.00  0.00     0.001 A 
HETATM   18  C   UNL     1       4.510  38.820  61.430  1.00  0.00     0.030 A 
HETATM   19  C   UNL     1       5.874  37.289  63.350  1.00  0.00     0.014 A 
HETATM   20  C   UNL     1       6.178  38.643  63.174  1.00  0.00     0.001 A 
HETATM   21  C   UNL     1       5.506  39.396  62.222  1.00  0.00     0.002 A 
ENDBRANCH   1  11
BRANCH   2  22
HETATM   22  C   UNL     1       6.873  33.557  61.762  1.00  0.00     0.229 C 
BRANCH  22  23
HETATM   23  C   UNL     1       7.165  32.075  61.522  1.00  0.00     0.235 C 
HETATM   24  N   UNL     1       7.990  31.822  60.450  1.00  0.00    -0.357 N 
HETATM   25  H   UNL     1       8.179  32.579  59.799  1.00  0.00     0.162 HD
HETATM   26  O   UNL     1       6.631  31.185  62.178  1.00  0.00    -0.272 OA
BRANCH  24  27
HETATM   27  C   UNL     1       8.386  30.482  60.060  1.00  0.00     0.154 C 
BRANCH  27  28
HETATM   28  C   UNL     1       8.067  30.126  58.601  1.00  0.00     0.139 C 
HETATM   29  O   UNL     1       7.914  28.696  58.478  1.00  0.00    -0.384 OA
HETATM   30  C   UNL     1       8.737  28.251  57.392  1.00  0.00     0.168 C 
HETATM   31  C   UNL     1       9.831  29.282  57.242  1.00  0.00     0.029 C 
HETATM   32  C   UNL     1       9.104  30.561  57.573  1.00  0.00     0.035 C 
ENDBRANCH  27  28
ENDBRANCH  24  27
ENDBRANCH  22  23
ENDBRANCH   2  22
TORSDOF 5
ENDMDL
MODEL 7
REMARK VINA RESULT:      -8.3      1.484      2.788
REMARK  5 active torsions:
REMARK  status: ('A' for Active; 'I' for Inactive)
REMARK    1  A    between atoms: C_7  and  C_8 
REMARK    2  A    between atoms: N_9  and  C_10 
REMARK    3  A    between atoms: C_10  and  C_11 
REMARK       I    between atoms: C_11  and  N_12 
REMARK    4  A    between atoms: N_12  and  C_13 
REMARK    5  A    between atoms: C_13  and  C_14 
ROOT
HETATM    1  C   UNL     1       6.836  27.699  54.361  1.00  0.00     0.158 A 
HETATM    2  N   UNL     1       5.433  27.866  54.703  1.00  0.00    -0.326 N 
HETATM    3  C   UNL     1       5.251  28.749  55.748  1.00  0.00     0.255 A 
HETATM    4  O   UNL     1       4.204  29.160  56.210  1.00  0.00    -0.267 OA
HETATM    5  C   UNL     1       6.591  29.124  56.226  1.00  0.00     0.040 A 
HETATM    6  C   UNL     1       7.538  28.475  55.433  1.00  0.00    -0.015 A 
HETATM    7  C   UNL     1       6.937  29.966  57.267  1.00  0.00     0.017 A 
HETATM    8  C   UNL     1       8.299  30.164  57.506  1.00  0.00     0.001 A 
HETATM    9  C   UNL     1       9.267  29.524  56.711  1.00  0.00     0.001 A 
HETATM   10  C   UNL     1       8.891  28.677  55.662  1.00  0.00     0.011 A 
ENDROOT
BRANCH   1  11
HETATM   11  C   UNL     1       7.315  26.283  54.395  1.00  0.00     0.004 A 
HETATM   12  C   UNL     1       7.388  25.438  53.288  1.00  0.00     0.017 A 
HETATM   13  C   UNL     1       7.063  25.702  51.855  1.00  0.00     0.069 C 
HETATM   14  N   UNL     1       7.822  24.203  53.721  1.00  0.00    -0.354 N 
HETATM   15  C   UNL     1       8.006  23.055  52.857  1.00  0.00     0.156 C 
HETATM   16  C   UNL     1       8.027  24.214  55.084  1.00  0.00     0.045 A 
HETATM   17  C   UNL     1       7.747  25.509  55.531  1.00  0.00     0.001 A 
HETATM   18  C   UNL     1       8.427  23.194  55.966  1.00  0.00     0.030 A 
HETATM   19  C   UNL     1       7.895  25.785  56.910  1.00  0.00     0.014 A 
HETATM   20  C   UNL     1       8.293  24.776  57.792  1.00  0.00     0.001 A 
HETATM   21  C   UNL     1       8.551  23.495  57.325  1.00  0.00     0.002 A 
ENDBRANCH   1  11
BRANCH   2  22
HETATM   22  C   UNL     1       4.359  27.229  53.950  1.00  0.00     0.229 C 
BRANCH  22  23
HETATM   23  C   UNL     1       3.894  28.065  52.758  1.00  0.00     0.235 C 
HETATM   24  N   UNL     1       4.323  27.604  51.534  1.00  0.00    -0.357 N 
HETATM   25  H   UNL     1       5.049  26.893  51.516  1.00  0.00     0.162 HD
HETATM   26  O   UNL     1       3.266  29.112  52.893  1.00  0.00    -0.272 OA
BRANCH  24  27
HETATM   27  C   UNL     1       3.987  28.258  50.283  1.00  0.00     0.154 C 
BRANCH  27  28
HETATM   28  C   UNL     1       5.183  28.887  49.556  1.00  0.00     0.139 C 
HETATM   29  O   UNL     1       5.845  29.819  50.437  1.00  0.00    -0.384 OA
HETATM   30  C   UNL     1       6.004  31.060  49.737  1.00  0.00     0.168 C 
HETATM   31  C   UNL     1       4.929  31.086  48.677  1.00  0.00     0.029 C 
HETATM   32  C   UNL     1       4.853  29.636  48.270  1.00  0.00     0.035 C 
ENDBRANCH  27  28
ENDBRANCH  24  27
ENDBRANCH  22  23
ENDBRANCH   2  22
TORSDOF 5
ENDMDL
MODEL 8
REMARK VINA RESULT:      -7.9      3.000      6.903
REMARK  5 active torsions:
REMARK  status: ('A' for Active; 'I' for Inactive)
REMARK    1  A    between atoms: C_7  and  C_8 
REMARK    2  A    between atoms: N_9  and  C_10 
REMARK    3  A    between atoms: C_10  and  C_11 
REMARK       I    between atoms: C_11  and  N_12 
REMARK    4  A    between atoms: N_12  and  C_13 
REMARK    5  A    between atoms: C_13  and  C_14 
ROOT
HETATM    1  C   UNL     1       6.046  30.698  56.740  1.00  0.00     0.158 A 
HETATM    2  N   UNL     1       5.465  29.367  56.667  1.00  0.00    -0.326 N 
HETATM    3  C   UNL     1       4.360  29.324  55.842  1.00  0.00     0.255 A 
HETATM    4  O   UNL     1       3.709  28.352  55.511  1.00  0.00    -0.267 OA
HETATM    5  C   UNL     1       4.094  30.706  55.413  1.00  0.00     0.040 A 
HETATM    6  C   UNL     1       5.068  31.534  55.973  1.00  0.00    -0.015 A 
HETATM    7  C   UNL     1       3.084  31.183  54.599  1.00  0.00     0.017 A 
HETATM    8  C   UNL     1       3.067  32.555  54.335  1.00  0.00     0.001 A 
HETATM    9  C   UNL     1       4.046  33.403  54.885  1.00  0.00     0.001 A 
HETATM   10  C   UNL     1       5.059  32.895  55.705  1.00  0.00     0.011 A 
ENDROOT
BRANCH   1  11
HETATM   11  C   UNL     1       6.167  31.243  58.127  1.00  0.00     0.004 A 
HETATM   12  C   UNL     1       5.094  31.641  58.924  1.00  0.00     0.017 A 
HETATM   13  C   UNL     1       3.627  31.606  58.648  1.00  0.00     0.069 C 
HETATM   14  N   UNL     1       5.600  32.135  60.107  1.00  0.00    -0.354 N 
HETATM   15  C   UNL     1       4.788  32.663  61.184  1.00  0.00     0.156 C 
HETATM   16  C   UNL     1       6.978  32.081  60.103  1.00  0.00     0.045 A 
HETATM   17  C   UNL     1       7.361  31.500  58.890  1.00  0.00     0.001 A 
HETATM   18  C   UNL     1       7.922  32.499  61.058  1.00  0.00     0.030 A 
HETATM   19  C   UNL     1       8.742  31.319  58.645  1.00  0.00     0.014 A 
HETATM   20  C   UNL     1       9.686  31.733  59.590  1.00  0.00     0.001 A 
HETATM   21  C   UNL     1       9.279  32.320  60.780  1.00  0.00     0.002 A 
ENDBRANCH   1  11
BRANCH   2  22
HETATM   22  C   UNL     1       6.060  28.213  57.331  1.00  0.00     0.229 C 
BRANCH  22  23
HETATM   23  C   UNL     1       7.060  27.470  56.445  1.00  0.00     0.235 C 
HETATM   24  N   UNL     1       6.491  26.763  55.409  1.00  0.00    -0.357 N 
HETATM   25  H   UNL     1       5.485  26.623  55.418  1.00  0.00     0.162 HD
HETATM   26  O   UNL     1       8.262  27.434  56.695  1.00  0.00    -0.272 OA
BRANCH  24  27
HETATM   27  C   UNL     1       7.272  25.994  54.458  1.00  0.00     0.154 C 
BRANCH  27  28
HETATM   28  C   UNL     1       6.745  24.575  54.205  1.00  0.00     0.139 C 
HETATM   29  O   UNL     1       6.879  23.792  55.410  1.00  0.00    -0.384 OA
HETATM   30  C   UNL     1       7.537  22.564  55.074  1.00  0.00     0.168 C 
HETATM   31  C   UNL     1       8.331  22.843  53.820  1.00  0.00     0.029 C 
HETATM   32  C   UNL     1       7.432  23.805  53.085  1.00  0.00     0.035 C 
ENDBRANCH  27  28
ENDBRANCH  24  27
ENDBRANCH  22  23
ENDBRANCH   2  22
TORSDOF 5
ENDMDL
MODEL 9
REMARK VINA RESULT:      -7.8      3.362      7.137
REMARK  5 active torsions:
REMARK  status: ('A' for Active; 'I' for Inactive)
REMARK    1  A    between atoms: C_7  and  C_8 
REMARK    2  A    between atoms: N_9  and  C_10 
REMARK    3  A    between atoms: C_10  and  C_11 
REMARK       I    between atoms: C_11  and  N_12 
REMARK    4  A    between atoms: N_12  and  C_13 
REMARK    5  A    between atoms: C_13  and  C_14 
ROOT
HETATM    1  C   UNL     1       6.109  30.927  56.989  1.00  0.00     0.158 A 
HETATM    2  N   UNL     1       5.579  29.574  56.936  1.00  0.00    -0.326 N 
HETATM    3  C   UNL     1       4.396  29.503  56.230  1.00  0.00     0.255 A 
HETATM    4  O   UNL     1       3.754  28.513  55.939  1.00  0.00    -0.267 OA
HETATM    5  C   UNL     1       4.029  30.882  55.872  1.00  0.00     0.040 A 
HETATM    6  C   UNL     1       5.021  31.739  56.353  1.00  0.00    -0.015 A 
HETATM    7  C   UNL     1       2.920  31.335  55.182  1.00  0.00     0.017 A 
HETATM    8  C   UNL     1       2.818  32.711  54.964  1.00  0.00     0.001 A 
HETATM    9  C   UNL     1       3.814  33.587  55.434  1.00  0.00     0.001 A 
HETATM   10  C   UNL     1       4.928  33.104  56.129  1.00  0.00     0.011 A 
ENDROOT
BRANCH   1  11
HETATM   11  C   UNL     1       6.351  31.441  58.372  1.00  0.00     0.004 A 
HETATM   12  C   UNL     1       7.601  31.525  58.984  1.00  0.00     0.017 A 
HETATM   13  C   UNL     1       8.955  31.181  58.457  1.00  0.00     0.069 C 
HETATM   14  N   UNL     1       7.418  31.994  60.268  1.00  0.00    -0.354 N 
HETATM   15  C   UNL     1       8.489  32.198  61.222  1.00  0.00     0.156 C 
HETATM   16  C   UNL     1       6.079  32.210  60.516  1.00  0.00     0.045 A 
HETATM   17  C   UNL     1       5.389  31.902  59.340  1.00  0.00     0.001 A 
HETATM   18  C   UNL     1       5.413  32.643  61.677  1.00  0.00     0.030 A 
HETATM   19  C   UNL     1       3.983  32.056  59.332  1.00  0.00     0.014 A 
HETATM   20  C   UNL     1       3.315  32.486  60.482  1.00  0.00     0.001 A 
HETATM   21  C   UNL     1       4.023  32.772  61.642  1.00  0.00     0.002 A 
ENDBRANCH   1  11
BRANCH   2  22
HETATM   22  C   UNL     1       6.287  28.430  57.500  1.00  0.00     0.229 C 
BRANCH  22  23
HETATM   23  C   UNL     1       7.176  27.722  56.478  1.00  0.00     0.235 C 
HETATM   24  N   UNL     1       6.536  26.753  55.738  1.00  0.00    -0.357 N 
HETATM   25  H   UNL     1       5.616  26.447  56.040  1.00  0.00     0.162 HD
HETATM   26  O   UNL     1       8.382  27.939  56.392  1.00  0.00    -0.272 OA
BRANCH  24  27
HETATM   27  C   UNL     1       7.207  25.970  54.717  1.00  0.00     0.154 C 
BRANCH  27  28
HETATM   28  C   UNL     1       6.605  24.577  54.489  1.00  0.00     0.139 C 
HETATM   29  O   UNL     1       7.009  23.698  55.560  1.00  0.00    -0.384 OA
HETATM   30  C   UNL     1       7.541  22.501  54.979  1.00  0.00     0.168 C 
HETATM   31  C   UNL     1       8.015  22.879  53.596  1.00  0.00     0.029 C 
HETATM   32  C   UNL     1       6.986  23.899  53.179  1.00  0.00     0.035 C 
ENDBRANCH  27  28
ENDBRANCH  24  27
ENDBRANCH  22  23
ENDBRANCH   2  22
TORSDOF 5
ENDMDL
MODEL 10
REMARK VINA RESULT:      -7.7      3.755      9.084
REMARK  5 active torsions:
REMARK  status: ('A' for Active; 'I' for Inactive)
REMARK    1  A    between atoms: C_7  and  C_8 
REMARK    2  A    between atoms: N_9  and  C_10 
REMARK    3  A    between atoms: C_10  and  C_11 
REMARK       I    between atoms: C_11  and  N_12 
REMARK    4  A    between atoms: N_12  and  C_13 
REMARK    5  A    between atoms: C_13  and  C_14 
ROOT
HETATM    1  C   UNL     1       3.841  29.022  48.081  1.00  0.00     0.158 A 
HETATM    2  N   UNL     1       4.062  27.701  48.648  1.00  0.00    -0.326 N 
HETATM    3  C   UNL     1       3.084  26.801  48.277  1.00  0.00     0.255 A 
HETATM    4  O   UNL     1       3.030  25.611  48.515  1.00  0.00    -0.267 OA
HETATM    5  C   UNL     1       2.079  27.557  47.513  1.00  0.00     0.040 A 
HETATM    6  C   UNL     1       2.501  28.884  47.425  1.00  0.00    -0.015 A 
HETATM    7  C   UNL     1       0.901  27.107  46.946  1.00  0.00     0.017 A 
HETATM    8  C   UNL     1       0.125  28.040  46.255  1.00  0.00     0.001 A 
HETATM    9  C   UNL     1       0.540  29.380  46.149  1.00  0.00     0.001 A 
HETATM   10  C   UNL     1       1.737  29.811  46.731  1.00  0.00     0.011 A 
ENDROOT
BRANCH   1  11
HETATM   11  C   UNL     1       3.775  30.123  49.091  1.00  0.00     0.004 A 
HETATM   12  C   UNL     1       2.823  30.221  50.104  1.00  0.00     0.017 A 
HETATM   13  C   UNL     1       1.700  29.303  50.461  1.00  0.00     0.069 C 
HETATM   14  N   UNL     1       3.053  31.392  50.795  1.00  0.00    -0.354 N 
HETATM   15  C   UNL     1       2.252  31.850  51.912  1.00  0.00     0.156 C 
HETATM   16  C   UNL     1       4.126  32.068  50.255  1.00  0.00     0.045 A 
HETATM   17  C   UNL     1       4.618  31.286  49.206  1.00  0.00     0.001 A 
HETATM   18  C   UNL     1       4.702  33.306  50.593  1.00  0.00     0.030 A 
HETATM   19  C   UNL     1       5.741  31.761  48.490  1.00  0.00     0.014 A 
HETATM   20  C   UNL     1       6.319  32.990  48.821  1.00  0.00     0.001 A 
HETATM   21  C   UNL     1       5.802  33.754  49.858  1.00  0.00     0.002 A 
ENDBRANCH   1  11
BRANCH   2  22
HETATM   22  C   UNL     1       5.242  27.374  49.441  1.00  0.00     0.229 C 
BRANCH  22  23
HETATM   23  C   UNL     1       4.899  26.964  50.873  1.00  0.00     0.235 C 
HETATM   24  N   UNL     1       4.910  25.606  51.097  1.00  0.00    -0.357 N 
HETATM   25  H   UNL     1       4.946  24.986  50.292  1.00  0.00     0.162 HD
HETATM   26  O   UNL     1       4.553  27.777  51.726  1.00  0.00    -0.272 OA
BRANCH  24  27
HETATM   27  C   UNL     1       4.613  25.018  52.390  1.00  0.00     0.154 C 
BRANCH  27  28
HETATM   28  C   UNL     1       5.845  24.769  53.271  1.00  0.00     0.139 C 
HETATM   29  O   UNL     1       6.324  26.026  53.793  1.00  0.00    -0.384 OA
HETATM   30  C   UNL     1       7.730  26.112  53.531  1.00  0.00     0.168 C 
HETATM   31  C   UNL     1       7.993  25.215  52.346  1.00  0.00     0.029 C 
HETATM   32  C   UNL     1       7.021  24.086  52.584  1.00  0.00     0.035 C 
ENDBRANCH  27  28
ENDBRANCH  24  27
ENDBRANCH  22  23
ENDBRANCH   2  22
TORSDOF 5
ENDMDL
