MODEL 1
REMARK VINA RESULT:      -9.8      0.000      0.000
REMARK  5 active torsions:
REMARK  status: ('A' for Active; 'I' for Inactive)
REMARK    1  A    between atoms: C_4  and  C_5 
REMARK    2  A    between atoms: C_5  and  N_6 
REMARK    3  A    between atoms: C_9  and  N_10 
REMARK       I    between atoms: N_10  and  C_11 
REMARK       I    between atoms: C_11  and  N_12 
REMARK    4  A    between atoms: N_12  and  N_13 
REMARK       I    between atoms: N_13  and  C_14 
REMARK    5  A    between atoms: C_14  and  C_15 
ROOT
HETATM    1  N   UNL     1       6.473  28.760  55.583  1.00  0.00    -0.336 N 
HETATM    2  C   UNL     1       6.704  28.859  56.935  1.00  0.00     0.335 C 
HETATM    3  N   UNL     1       6.826  30.160  57.352  1.00  0.00    -0.249 N 
HETATM    4  O   UNL     1       6.771  27.884  57.676  1.00  0.00    -0.246 OA
HETATM    5  H   UNL     1       6.018  29.585  55.205  1.00  0.00     0.164 HD
HETATM    6  H   UNL     1       7.136  30.884  56.705  1.00  0.00     0.192 HD
ENDROOT
BRANCH   1   7
HETATM    7  C   UNL     1       6.115  27.475  54.991  1.00  0.00     0.112 C 
HETATM    8  C   UNL     1       7.322  26.727  54.366  1.00  0.00     0.260 C 
HETATM    9  N   UNL     1       6.859  25.430  53.727  1.00  0.00    -0.065 N 
HETATM   10  H   UNL     1       6.393  24.894  54.469  1.00  0.00     0.280 HD
HETATM   11  C   UNL     1       5.844  25.670  52.644  1.00  0.00     0.235 C 
HETATM   12  C   UNL     1       4.635  26.372  53.248  1.00  0.00     0.030 C 
HETATM   13  C   UNL     1       5.022  27.680  53.933  1.00  0.00     0.028 C 
BRANCH   9  14
HETATM   14  C   UNL     1       8.009  24.535  53.299  1.00  0.00     0.273 C 
BRANCH  14  15
HETATM   15  C   UNL     1       7.965  23.119  53.805  1.00  0.00    -0.033 A 
HETATM   16  C   UNL     1       8.005  22.039  52.908  1.00  0.00     0.009 A 
HETATM   17  C   UNL     1       7.950  20.727  53.377  1.00  0.00     0.001 A 
HETATM   18  C   UNL     1       7.858  20.476  54.744  1.00  0.00     0.000 A 
HETATM   19  C   UNL     1       7.828  21.537  55.646  1.00  0.00     0.001 A 
HETATM   20  C   UNL     1       7.883  22.852  55.181  1.00  0.00     0.009 A 
ENDBRANCH  14  15
ENDBRANCH   9  14
ENDBRANCH   1   7
BRANCH   3  21
HETATM   21  N   UNL     1       7.180  30.393  58.687  1.00  0.00    -0.261 N 
HETATM   22  C   UNL     1       6.984  31.658  59.217  1.00  0.00     0.277 C 
HETATM   23  O   UNL     1       6.538  32.561  58.507  1.00  0.00    -0.265 OA
HETATM   24  H   UNL     1       7.552  29.619  59.232  1.00  0.00     0.190 HD
BRANCH  22  25
HETATM   25  C   UNL     1       7.328  31.833  60.619  1.00  0.00     0.075 A 
HETATM   26  S   UNL     1       6.587  33.028  61.604  1.00  0.00    -0.077 SA
HETATM   27  C   UNL     1       7.492  32.558  62.956  1.00  0.00     0.052 A 
HETATM   28 BR   UNL     1       7.327  33.379  64.631  1.00  0.00    -0.043 Br
HETATM   29  C   UNL     1       8.353  31.522  62.701  1.00  0.00     0.028 A 
HETATM   30  C   UNL     1       8.254  31.099  61.342  1.00  0.00     0.026 A 
ENDBRANCH  22  25
ENDBRANCH   3  21
TORSDOF 5
ENDMDL
MODEL 2
REMARK VINA RESULT:      -8.6      5.908      8.169
REMARK  5 active torsions:
REMARK  status: ('A' for Active; 'I' for Inactive)
REMARK    1  A    between atoms: C_4  and  C_5 
REMARK    2  A    between atoms: C_5  and  N_6 
REMARK    3  A    between atoms: C_9  and  N_10 
REMARK       I    between atoms: N_10  and  C_11 
REMARK       I    between atoms: C_11  and  N_12 
REMARK    4  A    between atoms: N_12  and  N_13 
REMARK       I    between atoms: N_13  and  C_14 
REMARK    5  A    between atoms: C_14  and  C_15 
ROOT
HETATM    1  N   UNL     1       4.983  26.855  55.042  1.00  0.00    -0.336 N 
HETATM    2  C   UNL     1       4.741  27.180  53.728  1.00  0.00     0.335 C 
HETATM    3  N   UNL     1       3.511  27.762  53.551  1.00  0.00    -0.249 N 
HETATM    4  O   UNL     1       5.551  26.981  52.829  1.00  0.00    -0.246 OA
HETATM    5  H   UNL     1       4.470  27.444  55.690  1.00  0.00     0.164 HD
HETATM    6  H   UNL     1       2.750  27.574  54.202  1.00  0.00     0.192 HD
ENDROOT
BRANCH   1   7
HETATM    7  C   UNL     1       6.311  26.414  55.456  1.00  0.00     0.112 C 
HETATM    8  C   UNL     1       6.352  24.935  55.923  1.00  0.00     0.260 C 
HETATM    9  N   UNL     1       7.751  24.572  56.387  1.00  0.00    -0.065 N 
HETATM   10  H   UNL     1       8.375  24.761  55.593  1.00  0.00     0.280 HD
HETATM   11  C   UNL     1       8.206  25.437  57.529  1.00  0.00     0.235 C 
HETATM   12  C   UNL     1       8.207  26.891  57.076  1.00  0.00     0.030 C 
HETATM   13  C   UNL     1       6.835  27.330  56.572  1.00  0.00     0.028 C 
BRANCH   9  14
HETATM   14  C   UNL     1       7.926  23.085  56.640  1.00  0.00     0.273 C 
BRANCH  14  15
HETATM   15  C   UNL     1       8.091  22.223  55.417  1.00  0.00    -0.033 A 
HETATM   16  C   UNL     1       7.877  22.756  54.136  1.00  0.00     0.009 A 
HETATM   17  C   UNL     1       8.016  21.953  53.003  1.00  0.00     0.001 A 
HETATM   18  C   UNL     1       8.372  20.614  53.136  1.00  0.00     0.000 A 
HETATM   19  C   UNL     1       8.598  20.075  54.400  1.00  0.00     0.001 A 
HETATM   20  C   UNL     1       8.461  20.874  55.536  1.00  0.00     0.009 A 
ENDBRANCH  14  15
ENDBRANCH   9  14
ENDBRANCH   1   7
BRANCH   3  21
HETATM   21  N   UNL     1       3.094  28.034  52.241  1.00  0.00    -0.261 N 
HETATM   22  C   UNL     1       3.122  29.343  51.791  1.00  0.00     0.277 C 
HETATM   23  O   UNL     1       3.478  30.247  52.549  1.00  0.00    -0.265 OA
HETATM   24  H   UNL     1       2.801  27.255  51.655  1.00  0.00     0.190 HD
BRANCH  22  25
HETATM   25  C   UNL     1       2.719  29.563  50.412  1.00  0.00     0.075 A 
HETATM   26  S   UNL     1       3.738  30.339  49.269  1.00  0.00    -0.077 SA
HETATM   27  C   UNL     1       2.585  30.176  48.040  1.00  0.00     0.052 A 
HETATM   28 BR   UNL     1       2.861  30.787  46.292  1.00  0.00    -0.043 Br
HETATM   29  C   UNL     1       1.435  29.554  48.454  1.00  0.00     0.028 A 
HETATM   30  C   UNL     1       1.516  29.195  49.832  1.00  0.00     0.026 A 
ENDBRANCH  22  25
ENDBRANCH   3  21
TORSDOF 5
ENDMDL
MODEL 3
REMARK VINA RESULT:      -8.6      4.375      9.735
REMARK  5 active torsions:
REMARK  status: ('A' for Active; 'I' for Inactive)
REMARK    1  A    between atoms: C_4  and  C_5 
REMARK    2  A    between atoms: C_5  and  N_6 
REMARK    3  A    between atoms: C_9  and  N_10 
REMARK       I    between atoms: N_10  and  C_11 
REMARK       I    between atoms: C_11  and  N_12 
REMARK    4  A    between atoms: N_12  and  N_13 
REMARK       I    between atoms: N_13  and  C_14 
REMARK    5  A    between atoms: C_14  and  C_15 
ROOT
HETATM    1  N   UNL     1       4.573  29.196  56.065  1.00  0.00    -0.336 N 
HETATM    2  C   UNL     1       5.380  28.089  55.947  1.00  0.00     0.335 C 
HETATM    3  N   UNL     1       4.730  27.025  55.373  1.00  0.00    -0.249 N 
HETATM    4  O   UNL     1       6.553  28.075  56.303  1.00  0.00    -0.246 OA
HETATM    5  H   UNL     1       3.833  29.214  55.370  1.00  0.00     0.164 HD
HETATM    6  H   UNL     1       3.716  26.940  55.439  1.00  0.00     0.192 HD
ENDROOT
BRANCH   1   7
HETATM    7  C   UNL     1       5.140  30.480  56.464  1.00  0.00     0.112 C 
HETATM    8  C   UNL     1       5.014  30.764  57.983  1.00  0.00     0.260 C 
HETATM    9  N   UNL     1       5.577  32.137  58.307  1.00  0.00    -0.065 N 
HETATM   10  H   UNL     1       6.550  32.133  57.977  1.00  0.00     0.280 HD
HETATM   11  C   UNL     1       4.857  33.228  57.563  1.00  0.00     0.235 C 
HETATM   12  C   UNL     1       5.002  32.983  56.067  1.00  0.00     0.030 C 
HETATM   13  C   UNL     1       4.476  31.609  55.663  1.00  0.00     0.028 C 
BRANCH   9  14
HETATM   14  C   UNL     1       5.701  32.392  59.799  1.00  0.00     0.273 C 
BRANCH  14  15
HETATM   15  C   UNL     1       7.072  32.202  60.389  1.00  0.00    -0.033 A 
HETATM   16  C   UNL     1       7.250  32.166  61.781  1.00  0.00     0.009 A 
HETATM   17  C   UNL     1       8.523  32.004  62.328  1.00  0.00     0.001 A 
HETATM   18  C   UNL     1       9.630  31.874  61.494  1.00  0.00     0.000 A 
HETATM   19  C   UNL     1       9.467  31.898  60.111  1.00  0.00     0.001 A 
HETATM   20  C   UNL     1       8.195  32.059  59.559  1.00  0.00     0.009 A 
ENDBRANCH  14  15
ENDBRANCH   9  14
ENDBRANCH   1   7
BRANCH   3  21
HETATM   21  N   UNL     1       5.407  25.800  55.303  1.00  0.00    -0.261 N 
HETATM   22  C   UNL     1       6.014  25.442  54.111  1.00  0.00     0.277 C 
HETATM   23  O   UNL     1       5.926  26.181  53.129  1.00  0.00    -0.265 OA
HETATM   24  H   UNL     1       5.446  25.220  56.138  1.00  0.00     0.190 HD
BRANCH  22  25
HETATM   25  C   UNL     1       6.738  24.181  54.106  1.00  0.00     0.075 A 
HETATM   26  S   UNL     1       7.144  23.349  55.552  1.00  0.00    -0.077 SA
HETATM   27  C   UNL     1       7.893  22.098  54.691  1.00  0.00     0.052 A 
HETATM   28 BR   UNL     1       8.688  20.620  55.522  1.00  0.00    -0.043 Br
HETATM   29  C   UNL     1       7.860  22.277  53.333  1.00  0.00     0.028 A 
HETATM   30  C   UNL     1       7.184  23.487  52.993  1.00  0.00     0.026 A 
ENDBRANCH  22  25
ENDBRANCH   3  21
TORSDOF 5
ENDMDL
MODEL 4
REMARK VINA RESULT:      -8.6      4.626     10.243
REMARK  5 active torsions:
REMARK  status: ('A' for Active; 'I' for Inactive)
REMARK    1  A    between atoms: C_4  and  C_5 
REMARK    2  A    between atoms: C_5  and  N_6 
REMARK    3  A    between atoms: C_9  and  N_10 
REMARK       I    between atoms: N_10  and  C_11 
REMARK       I    between atoms: C_11  and  N_12 
REMARK    4  A    between atoms: N_12  and  N_13 
REMARK       I    between atoms: N_13  and  C_14 
REMARK    5  A    between atoms: C_14  and  C_15 
ROOT
HETATM    1  N   UNL     1       4.130  29.824  57.312  1.00  0.00    -0.336 N 
HETATM    2  C   UNL     1       4.933  28.731  57.087  1.00  0.00     0.335 C 
HETATM    3  N   UNL     1       4.259  27.701  56.482  1.00  0.00    -0.249 N 
HETATM    4  O   UNL     1       6.123  28.703  57.383  1.00  0.00    -0.246 OA
HETATM    5  H   UNL     1       3.356  29.880  56.657  1.00  0.00     0.164 HD
HETATM    6  H   UNL     1       3.250  27.606  56.593  1.00  0.00     0.192 HD
ENDROOT
BRANCH   1   7
HETATM    7  C   UNL     1       4.713  31.085  57.759  1.00  0.00     0.112 C 
HETATM    8  C   UNL     1       4.242  31.514  59.174  1.00  0.00     0.260 C 
HETATM    9  N   UNL     1       4.849  32.856  59.542  1.00  0.00    -0.065 N 
HETATM   10  H   UNL     1       5.867  32.739  59.474  1.00  0.00     0.280 HD
HETATM   11  C   UNL     1       4.457  33.935  58.569  1.00  0.00     0.235 C 
HETATM   12  C   UNL     1       4.944  33.546  57.180  1.00  0.00     0.030 C 
HETATM   13  C   UNL     1       4.393  32.191  56.743  1.00  0.00     0.028 C 
BRANCH   9  14
HETATM   14  C   UNL     1       4.622  33.233  60.995  1.00  0.00     0.273 C 
BRANCH  14  15
HETATM   15  C   UNL     1       5.801  33.055  61.914  1.00  0.00    -0.033 A 
HETATM   16  C   UNL     1       6.999  32.500  61.436  1.00  0.00     0.009 A 
HETATM   17  C   UNL     1       8.087  32.322  62.292  1.00  0.00     0.001 A 
HETATM   18  C   UNL     1       7.993  32.699  63.629  1.00  0.00     0.000 A 
HETATM   19  C   UNL     1       6.815  33.261  64.113  1.00  0.00     0.001 A 
HETATM   20  C   UNL     1       5.723  33.441  63.261  1.00  0.00     0.009 A 
ENDBRANCH  14  15
ENDBRANCH   9  14
ENDBRANCH   1   7
BRANCH   3  21
HETATM   21  N   UNL     1       4.935  26.486  56.304  1.00  0.00    -0.261 N 
HETATM   22  C   UNL     1       5.505  26.216  55.072  1.00  0.00     0.277 C 
HETATM   23  O   UNL     1       5.385  27.022  54.147  1.00  0.00    -0.265 OA
HETATM   24  H   UNL     1       5.001  25.848  57.094  1.00  0.00     0.190 HD
BRANCH  22  25
HETATM   25  C   UNL     1       6.230  24.961  54.954  1.00  0.00     0.075 A 
HETATM   26  S   UNL     1       6.529  24.210  53.440  1.00  0.00    -0.077 SA
HETATM   27  C   UNL     1       7.360  22.930  54.172  1.00  0.00     0.052 A 
HETATM   28 BR   UNL     1       8.112  21.514  53.204  1.00  0.00    -0.043 Br
HETATM   29  C   UNL     1       7.425  23.034  55.537  1.00  0.00     0.028 A 
HETATM   30  C   UNL     1       6.771  24.218  55.991  1.00  0.00     0.026 A 
ENDBRANCH  22  25
ENDBRANCH   3  21
TORSDOF 5
ENDMDL
MODEL 5
REMARK VINA RESULT:      -8.6      6.558     10.309
REMARK  5 active torsions:
REMARK  status: ('A' for Active; 'I' for Inactive)
REMARK    1  A    between atoms: C_4  and  C_5 
REMARK    2  A    between atoms: C_5  and  N_6 
REMARK    3  A    between atoms: C_9  and  N_10 
REMARK       I    between atoms: N_10  and  C_11 
REMARK       I    between atoms: C_11  and  N_12 
REMARK    4  A    between atoms: N_12  and  N_13 
REMARK       I    between atoms: N_13  and  C_14 
REMARK    5  A    between atoms: C_14  and  C_15 
ROOT
HETATM    1  N   UNL     1       6.714  25.398  51.764  1.00  0.00    -0.336 N 
HETATM    2  C   UNL     1       5.472  25.698  51.257  1.00  0.00     0.335 C 
HETATM    3  N   UNL     1       5.543  26.405  50.083  1.00  0.00    -0.249 N 
HETATM    4  O   UNL     1       4.427  25.348  51.795  1.00  0.00    -0.246 OA
HETATM    5  H   UNL     1       7.428  25.347  51.044  1.00  0.00     0.164 HD
HETATM    6  H   UNL     1       6.357  26.982  49.874  1.00  0.00     0.192 HD
ENDROOT
BRANCH   1   7
HETATM    7  C   UNL     1       6.845  24.482  52.892  1.00  0.00     0.112 C 
HETATM    8  C   UNL     1       6.781  25.189  54.272  1.00  0.00     0.260 C 
HETATM    9  N   UNL     1       6.979  24.178  55.387  1.00  0.00    -0.065 N 
HETATM   10  H   UNL     1       6.247  23.468  55.264  1.00  0.00     0.280 HD
HETATM   11  C   UNL     1       8.305  23.477  55.281  1.00  0.00     0.235 C 
HETATM   12  C   UNL     1       8.370  22.747  53.946  1.00  0.00     0.030 C 
HETATM   13  C   UNL     1       8.158  23.694  52.769  1.00  0.00     0.028 C 
BRANCH   9  14
HETATM   14  C   UNL     1       6.700  24.752  56.765  1.00  0.00     0.273 C 
BRANCH  14  15
HETATM   15  C   UNL     1       6.994  26.217  56.942  1.00  0.00    -0.033 A 
HETATM   16  C   UNL     1       5.951  27.156  56.958  1.00  0.00     0.009 A 
HETATM   17  C   UNL     1       6.225  28.516  57.107  1.00  0.00     0.001 A 
HETATM   18  C   UNL     1       7.540  28.953  57.245  1.00  0.00     0.000 A 
HETATM   19  C   UNL     1       8.584  28.031  57.241  1.00  0.00     0.001 A 
HETATM   20  C   UNL     1       8.315  26.669  57.093  1.00  0.00     0.009 A 
ENDBRANCH  14  15
ENDBRANCH   9  14
ENDBRANCH   1   7
BRANCH   3  21
HETATM   21  N   UNL     1       4.346  26.874  49.525  1.00  0.00    -0.261 N 
HETATM   22  C   UNL     1       4.213  26.882  48.146  1.00  0.00     0.277 C 
HETATM   23  O   UNL     1       5.149  26.512  47.435  1.00  0.00    -0.265 OA
HETATM   24  H   UNL     1       3.605  27.177  50.152  1.00  0.00     0.190 HD
BRANCH  22  25
HETATM   25  C   UNL     1       2.937  27.338  47.621  1.00  0.00     0.075 A 
HETATM   26  S   UNL     1       2.664  28.968  47.155  1.00  0.00    -0.077 SA
HETATM   27  C   UNL     1       1.069  28.632  46.698  1.00  0.00     0.052 A 
HETATM   28 BR   UNL     1      -0.090  29.931  46.005  1.00  0.00    -0.043 Br
HETATM   29  C   UNL     1       0.714  27.321  46.885  1.00  0.00     0.028 A 
HETATM   30  C   UNL     1       1.802  26.569  47.418  1.00  0.00     0.026 A 
ENDBRANCH  22  25
ENDBRANCH   3  21
TORSDOF 5
ENDMDL
MODEL 6
REMARK VINA RESULT:      -8.3      2.226      2.807
REMARK  5 active torsions:
REMARK  status: ('A' for Active; 'I' for Inactive)
REMARK    1  A    between atoms: C_4  and  C_5 
REMARK    2  A    between atoms: C_5  and  N_6 
REMARK    3  A    between atoms: C_9  and  N_10 
REMARK       I    between atoms: N_10  and  C_11 
REMARK       I    between atoms: C_11  and  N_12 
REMARK    4  A    between atoms: N_12  and  N_13 
REMARK       I    between atoms: N_13  and  C_14 
REMARK    5  A    between atoms: C_14  and  C_15 
ROOT
HETATM    1  N   UNL     1       4.418  27.727  55.287  1.00  0.00    -0.336 N 
HETATM    2  C   UNL     1       4.849  28.377  56.419  1.00  0.00     0.335 C 
HETATM    3  N   UNL     1       3.857  29.120  57.006  1.00  0.00    -0.249 N 
HETATM    4  O   UNL     1       5.992  28.277  56.853  1.00  0.00    -0.246 OA
HETATM    5  H   UNL     1       3.420  27.540  55.300  1.00  0.00     0.164 HD
HETATM    6  H   UNL     1       3.079  29.476  56.451  1.00  0.00     0.192 HD
ENDROOT
BRANCH   1   7
HETATM    7  C   UNL     1       5.269  26.732  54.641  1.00  0.00     0.112 C 
HETATM    8  C   UNL     1       5.800  25.649  55.616  1.00  0.00     0.260 C 
HETATM    9  N   UNL     1       6.717  24.688  54.880  1.00  0.00    -0.065 N 
HETATM   10  H   UNL     1       6.164  24.298  54.107  1.00  0.00     0.280 HD
HETATM   11  C   UNL     1       7.898  25.393  54.273  1.00  0.00     0.235 C 
HETATM   12  C   UNL     1       7.395  26.437  53.286  1.00  0.00     0.030 C 
HETATM   13  C   UNL     1       6.445  27.433  53.946  1.00  0.00     0.028 C 
BRANCH   9  14
HETATM   14  C   UNL     1       7.091  23.471  55.708  1.00  0.00     0.273 C 
BRANCH  14  15
HETATM   15  C   UNL     1       7.627  22.292  54.943  1.00  0.00    -0.033 A 
HETATM   16  C   UNL     1       8.156  21.183  55.621  1.00  0.00     0.009 A 
HETATM   17  C   UNL     1       8.666  20.095  54.911  1.00  0.00     0.001 A 
HETATM   18  C   UNL     1       8.652  20.102  53.519  1.00  0.00     0.000 A 
HETATM   19  C   UNL     1       8.121  21.191  52.833  1.00  0.00     0.001 A 
HETATM   20  C   UNL     1       7.609  22.281  53.539  1.00  0.00     0.009 A 
ENDBRANCH  14  15
ENDBRANCH   9  14
ENDBRANCH   1   7
BRANCH   3  21
HETATM   21  N   UNL     1       4.198  29.924  58.102  1.00  0.00    -0.261 N 
HETATM   22  C   UNL     1       3.685  31.209  58.170  1.00  0.00     0.277 C 
HETATM   23  O   UNL     1       2.970  31.636  57.262  1.00  0.00    -0.265 OA
HETATM   24  H   UNL     1       4.798  29.531  58.823  1.00  0.00     0.190 HD
BRANCH  22  25
HETATM   25  C   UNL     1       4.036  31.985  59.349  1.00  0.00     0.075 A 
HETATM   26  S   UNL     1       5.664  32.298  59.791  1.00  0.00    -0.077 SA
HETATM   27  C   UNL     1       5.187  33.190  61.148  1.00  0.00     0.052 A 
HETATM   28 BR   UNL     1       6.404  33.991  62.325  1.00  0.00    -0.043 Br
HETATM   29  C   UNL     1       3.826  33.265  61.298  1.00  0.00     0.028 A 
HETATM   30  C   UNL     1       3.158  32.567  60.248  1.00  0.00     0.026 A 
ENDBRANCH  22  25
ENDBRANCH   3  21
TORSDOF 5
ENDMDL
MODEL 7
REMARK VINA RESULT:      -8.3      1.796      2.643
REMARK  5 active torsions:
REMARK  status: ('A' for Active; 'I' for Inactive)
REMARK    1  A    between atoms: C_4  and  C_5 
REMARK    2  A    between atoms: C_5  and  N_6 
REMARK    3  A    between atoms: C_9  and  N_10 
REMARK       I    between atoms: N_10  and  C_11 
REMARK       I    between atoms: C_11  and  N_12 
REMARK    4  A    between atoms: N_12  and  N_13 
REMARK       I    between atoms: N_13  and  C_14 
REMARK    5  A    between atoms: C_14  and  C_15 
ROOT
HETATM    1  N   UNL     1       5.920  29.117  56.246  1.00  0.00    -0.336 N 
HETATM    2  C   UNL     1       5.535  29.811  57.369  1.00  0.00     0.335 C 
HETATM    3  N   UNL     1       6.600  30.359  58.038  1.00  0.00    -0.249 N 
HETATM    4  O   UNL     1       4.364  29.934  57.711  1.00  0.00    -0.246 OA
HETATM    5  H   UNL     1       6.795  29.457  55.860  1.00  0.00     0.164 HD
HETATM    6  H   UNL     1       7.529  29.945  57.960  1.00  0.00     0.192 HD
ENDROOT
BRANCH   1   7
HETATM    7  C   UNL     1       4.919  28.637  55.300  1.00  0.00     0.112 C 
HETATM    8  C   UNL     1       5.283  27.273  54.656  1.00  0.00     0.260 C 
HETATM    9  N   UNL     1       4.221  26.871  53.648  1.00  0.00    -0.065 N 
HETATM   10  H   UNL     1       3.331  26.851  54.160  1.00  0.00     0.280 HD
HETATM   11  C   UNL     1       4.080  27.886  52.547  1.00  0.00     0.235 C 
HETATM   12  C   UNL     1       3.687  29.224  53.159  1.00  0.00     0.030 C 
HETATM   13  C   UNL     1       4.698  29.690  54.204  1.00  0.00     0.028 C 
BRANCH   9  14
HETATM   14  C   UNL     1       4.385  25.447  53.148  1.00  0.00     0.273 C 
BRANCH  14  15
HETATM   15  C   UNL     1       5.794  24.921  53.105  1.00  0.00    -0.033 A 
HETATM   16  C   UNL     1       6.282  24.105  54.138  1.00  0.00     0.009 A 
HETATM   17  C   UNL     1       7.594  23.630  54.105  1.00  0.00     0.001 A 
HETATM   18  C   UNL     1       8.430  23.960  53.042  1.00  0.00     0.000 A 
HETATM   19  C   UNL     1       7.956  24.760  52.006  1.00  0.00     0.001 A 
HETATM   20  C   UNL     1       6.645  25.238  52.034  1.00  0.00     0.009 A 
ENDBRANCH  14  15
ENDBRANCH   9  14
ENDBRANCH   1   7
BRANCH   3  21
HETATM   21  N   UNL     1       6.353  30.993  59.262  1.00  0.00    -0.261 N 
HETATM   22  C   UNL     1       7.291  31.888  59.750  1.00  0.00     0.277 C 
HETATM   23  O   UNL     1       8.334  32.090  59.125  1.00  0.00    -0.265 OA
HETATM   24  H   UNL     1       5.482  30.788  59.747  1.00  0.00     0.190 HD
BRANCH  22  25
HETATM   25  C   UNL     1       6.965  32.549  61.003  1.00  0.00     0.075 A 
HETATM   26  S   UNL     1       7.902  32.335  62.426  1.00  0.00    -0.077 SA
HETATM   27  C   UNL     1       6.906  33.379  63.310  1.00  0.00     0.052 A 
HETATM   28 BR   UNL     1       7.197  33.784  65.116  1.00  0.00    -0.043 Br
HETATM   29  C   UNL     1       5.869  33.895  62.575  1.00  0.00     0.028 A 
HETATM   30  C   UNL     1       5.907  33.414  61.233  1.00  0.00     0.026 A 
ENDBRANCH  22  25
ENDBRANCH   3  21
TORSDOF 5
ENDMDL
MODEL 8
REMARK VINA RESULT:      -8.2      6.038     10.524
REMARK  5 active torsions:
REMARK  status: ('A' for Active; 'I' for Inactive)
REMARK    1  A    between atoms: C_4  and  C_5 
REMARK    2  A    between atoms: C_5  and  N_6 
REMARK    3  A    between atoms: C_9  and  N_10 
REMARK       I    between atoms: N_10  and  C_11 
REMARK       I    between atoms: C_11  and  N_12 
REMARK    4  A    between atoms: N_12  and  N_13 
REMARK       I    between atoms: N_13  and  C_14 
REMARK    5  A    between atoms: C_14  and  C_15 
ROOT
HETATM    1  N   UNL     1       6.581  26.189  53.515  1.00  0.00    -0.336 N 
HETATM    2  C   UNL     1       5.463  26.165  52.714  1.00  0.00     0.335 C 
HETATM    3  N   UNL     1       5.728  25.676  51.460  1.00  0.00    -0.249 N 
HETATM    4  O   UNL     1       4.357  26.526  53.099  1.00  0.00    -0.246 OA
HETATM    5  H   UNL     1       7.268  25.492  53.247  1.00  0.00     0.164 HD
HETATM    6  H   UNL     1       6.665  25.744  51.064  1.00  0.00     0.192 HD
ENDROOT
BRANCH   1   7
HETATM    7  C   UNL     1       6.459  26.486  54.938  1.00  0.00     0.112 C 
HETATM    8  C   UNL     1       7.631  27.337  55.494  1.00  0.00     0.260 C 
HETATM    9  N   UNL     1       7.457  27.555  56.986  1.00  0.00    -0.065 N 
HETATM   10  H   UNL     1       6.540  28.004  57.106  1.00  0.00     0.280 HD
HETATM   11  C   UNL     1       7.420  26.257  57.743  1.00  0.00     0.235 C 
HETATM   12  C   UNL     1       6.252  25.423  57.234  1.00  0.00     0.030 C 
HETATM   13  C   UNL     1       6.342  25.176  55.731  1.00  0.00     0.028 C 
BRANCH   9  14
HETATM   14  C   UNL     1       8.434  28.568  57.557  1.00  0.00     0.273 C 
BRANCH  14  15
HETATM   15  C   UNL     1       7.824  29.748  58.264  1.00  0.00    -0.033 A 
HETATM   16  C   UNL     1       6.702  30.398  57.726  1.00  0.00     0.009 A 
HETATM   17  C   UNL     1       6.145  31.501  58.374  1.00  0.00     0.001 A 
HETATM   18  C   UNL     1       6.698  31.965  59.565  1.00  0.00     0.000 A 
HETATM   19  C   UNL     1       7.804  31.323  60.115  1.00  0.00     0.001 A 
HETATM   20  C   UNL     1       8.365  30.219  59.471  1.00  0.00     0.009 A 
ENDBRANCH  14  15
ENDBRANCH   9  14
ENDBRANCH   1   7
BRANCH   3  21
HETATM   21  N   UNL     1       4.699  25.708  50.510  1.00  0.00    -0.261 N 
HETATM   22  C   UNL     1       4.625  26.786  49.644  1.00  0.00     0.277 C 
HETATM   23  O   UNL     1       5.436  27.709  49.739  1.00  0.00    -0.265 OA
HETATM   24  H   UNL     1       4.047  24.927  50.475  1.00  0.00     0.190 HD
BRANCH  22  25
HETATM   25  C   UNL     1       3.564  26.749  48.651  1.00  0.00     0.075 A 
HETATM   26  S   UNL     1       2.293  27.903  48.620  1.00  0.00    -0.077 SA
HETATM   27  C   UNL     1       1.586  27.175  47.265  1.00  0.00     0.052 A 
HETATM   28 BR   UNL     1       0.022  27.818  46.459  1.00  0.00    -0.043 Br
HETATM   29  C   UNL     1       2.270  26.073  46.820  1.00  0.00     0.028 A 
HETATM   30  C   UNL     1       3.422  25.829  47.625  1.00  0.00     0.026 A 
ENDBRANCH  22  25
ENDBRANCH   3  21
TORSDOF 5
ENDMDL
MODEL 9
REMARK VINA RESULT:      -8.1      6.945      9.407
REMARK  5 active torsions:
REMARK  status: ('A' for Active; 'I' for Inactive)
REMARK    1  A    between atoms: C_4  and  C_5 
REMARK    2  A    between atoms: C_5  and  N_6 
REMARK    3  A    between atoms: C_9  and  N_10 
REMARK       I    between atoms: N_10  and  C_11 
REMARK       I    between atoms: C_11  and  N_12 
REMARK    4  A    between atoms: N_12  and  N_13 
REMARK       I    between atoms: N_13  and  C_14 
REMARK    5  A    between atoms: C_14  and  C_15 
ROOT
HETATM    1  N   UNL     1       4.525  26.825  52.165  1.00  0.00    -0.336 N 
HETATM    2  C   UNL     1       4.556  27.468  50.950  1.00  0.00     0.335 C 
HETATM    3  N   UNL     1       3.307  27.851  50.528  1.00  0.00    -0.249 N 
HETATM    4  O   UNL     1       5.593  27.685  50.333  1.00  0.00    -0.246 OA
HETATM    5  H   UNL     1       3.730  27.100  52.731  1.00  0.00     0.164 HD
HETATM    6  H   UNL     1       2.478  27.351  50.845  1.00  0.00     0.192 HD
ENDROOT
BRANCH   1   7
HETATM    7  C   UNL     1       5.768  26.524  52.868  1.00  0.00     0.112 C 
HETATM    8  C   UNL     1       5.615  25.417  53.944  1.00  0.00     0.260 C 
HETATM    9  N   UNL     1       6.934  25.203  54.664  1.00  0.00    -0.065 N 
HETATM   10  H   UNL     1       7.623  24.967  53.939  1.00  0.00     0.280 HD
HETATM   11  C   UNL     1       7.413  26.455  55.344  1.00  0.00     0.235 C 
HETATM   12  C   UNL     1       7.603  27.543  54.295  1.00  0.00     0.030 C 
HETATM   13  C   UNL     1       6.322  27.804  53.509  1.00  0.00     0.028 C 
BRANCH   9  14
HETATM   14  C   UNL     1       6.927  23.982  55.568  1.00  0.00     0.273 C 
BRANCH  14  15
HETATM   15  C   UNL     1       7.454  22.710  54.961  1.00  0.00    -0.033 A 
HETATM   16  C   UNL     1       7.670  22.616  53.577  1.00  0.00     0.009 A 
HETATM   17  C   UNL     1       8.146  21.432  53.014  1.00  0.00     0.001 A 
HETATM   18  C   UNL     1       8.413  20.331  53.823  1.00  0.00     0.000 A 
HETATM   19  C   UNL     1       8.212  20.413  55.198  1.00  0.00     0.001 A 
HETATM   20  C   UNL     1       7.737  21.596  55.767  1.00  0.00     0.009 A 
ENDBRANCH  14  15
ENDBRANCH   9  14
ENDBRANCH   1   7
BRANCH   3  21
HETATM   21  N   UNL     1       3.188  28.412  49.250  1.00  0.00    -0.261 N 
HETATM   22  C   UNL     1       2.907  29.764  49.141  1.00  0.00     0.277 C 
HETATM   23  O   UNL     1       2.736  30.442  50.155  1.00  0.00    -0.265 OA
HETATM   24  H   UNL     1       3.329  27.811  48.441  1.00  0.00     0.190 HD
BRANCH  22  25
HETATM   25  C   UNL     1       2.836  30.304  47.792  1.00  0.00     0.075 A 
HETATM   26  S   UNL     1       4.236  30.742  46.902  1.00  0.00    -0.077 SA
HETATM   27  C   UNL     1       3.311  31.218  45.567  1.00  0.00     0.052 A 
HETATM   28 BR   UNL     1       4.065  31.885  43.987  1.00  0.00    -0.043 Br
HETATM   29  C   UNL     1       1.962  31.066  45.758  1.00  0.00     0.028 A 
HETATM   30  C   UNL     1       1.687  30.531  47.051  1.00  0.00     0.026 A 
ENDBRANCH  22  25
ENDBRANCH   3  21
TORSDOF 5
ENDMDL
MODEL 10
REMARK VINA RESULT:      -7.9      3.117      3.845
REMARK  5 active torsions:
REMARK  status: ('A' for Active; 'I' for Inactive)
REMARK    1  A    between atoms: C_4  and  C_5 
REMARK    2  A    between atoms: C_5  and  N_6 
REMARK    3  A    between atoms: C_9  and  N_10 
REMARK       I    between atoms: N_10  and  C_11 
REMARK       I    between atoms: C_11  and  N_12 
REMARK    4  A    between atoms: N_12  and  N_13 
REMARK       I    between atoms: N_13  and  C_14 
REMARK    5  A    between atoms: C_14  and  C_15 
ROOT
HETATM    1  N   UNL     1       4.893  29.213  57.817  1.00  0.00    -0.336 N 
HETATM    2  C   UNL     1       4.989  30.583  57.894  1.00  0.00     0.335 C 
HETATM    3  N   UNL     1       4.208  31.107  58.893  1.00  0.00    -0.249 N 
HETATM    4  O   UNL     1       5.710  31.245  57.157  1.00  0.00    -0.246 OA
HETATM    5  H   UNL     1       4.644  28.789  58.705  1.00  0.00     0.164 HD
HETATM    6  H   UNL     1       3.376  30.612  59.214  1.00  0.00     0.192 HD
ENDROOT
BRANCH   1   7
HETATM    7  C   UNL     1       5.798  28.460  56.955  1.00  0.00     0.112 C 
HETATM    8  C   UNL     1       5.243  27.072  56.540  1.00  0.00     0.260 C 
HETATM    9  N   UNL     1       6.263  26.334  55.692  1.00  0.00    -0.065 N 
HETATM   10  H   UNL     1       6.465  26.943  54.890  1.00  0.00     0.280 HD
HETATM   11  C   UNL     1       7.557  26.121  56.428  1.00  0.00     0.235 C 
HETATM   12  C   UNL     1       8.134  27.477  56.811  1.00  0.00     0.030 C 
HETATM   13  C   UNL     1       7.156  28.294  57.651  1.00  0.00     0.028 C 
BRANCH   9  14
HETATM   14  C   UNL     1       5.707  25.071  55.058  1.00  0.00     0.273 C 
BRANCH  14  15
HETATM   15  C   UNL     1       6.723  24.094  54.533  1.00  0.00    -0.033 A 
HETATM   16  C   UNL     1       7.201  24.201  53.217  1.00  0.00     0.009 A 
HETATM   17  C   UNL     1       8.133  23.286  52.726  1.00  0.00     0.001 A 
HETATM   18  C   UNL     1       8.599  22.258  53.540  1.00  0.00     0.000 A 
HETATM   19  C   UNL     1       8.142  22.146  54.851  1.00  0.00     0.001 A 
HETATM   20  C   UNL     1       7.210  23.060  55.347  1.00  0.00     0.009 A 
ENDBRANCH  14  15
ENDBRANCH   9  14
ENDBRANCH   1   7
BRANCH   3  21
HETATM   21  N   UNL     1       4.125  32.501  59.001  1.00  0.00    -0.261 N 
HETATM   22  C   UNL     1       4.333  33.087  60.238  1.00  0.00     0.277 C 
HETATM   23  O   UNL     1       4.552  32.382  61.225  1.00  0.00    -0.265 OA
HETATM   24  H   UNL     1       3.934  33.042  58.160  1.00  0.00     0.190 HD
BRANCH  22  25
HETATM   25  C   UNL     1       4.278  34.539  60.285  1.00  0.00     0.075 A 
HETATM   26  S   UNL     1       4.733  35.432  61.679  1.00  0.00    -0.077 SA
HETATM   27  C   UNL     1       4.397  36.906  60.917  1.00  0.00     0.052 A 
HETATM   28 BR   UNL     1       4.627  38.565  61.756  1.00  0.00    -0.043 Br
HETATM   29  C   UNL     1       3.942  36.763  59.632  1.00  0.00     0.028 A 
HETATM   30  C   UNL     1       3.877  35.386  59.264  1.00  0.00     0.026 A 
ENDBRANCH  22  25
ENDBRANCH   3  21
TORSDOF 5
ENDMDL
