MODEL 1
REMARK VINA RESULT:      -9.7      0.000      0.000
REMARK  6 active torsions:
REMARK  status: ('A' for Active; 'I' for Inactive)
REMARK    1  A    between atoms: C_3  and  N_4 
REMARK    2  A    between atoms: N_4  and  C_5 
REMARK    3  A    between atoms: C_5  and  C_6 
REMARK    4  A    between atoms: N_8  and  C_10 
REMARK    5  A    between atoms: C_10  and  C_11 
REMARK    6  A    between atoms: C_12  and  C_13 
ROOT
HETATM    1  C   UNL     1       8.736  28.784  57.170  1.00  0.00     0.031 C 
HETATM    2  C   UNL     1       8.127  29.159  55.819  1.00  0.00     0.241 C 
HETATM    3  N   UNL     1       7.104  28.075  55.540  1.00  0.00    -0.067 N 
HETATM    4  H   UNL     1       6.192  28.529  55.387  1.00  0.00     0.280 HD
HETATM    5  C   UNL     1       6.983  27.219  56.780  1.00  0.00     0.235 C 
HETATM    6  C   UNL     1       7.578  28.084  57.877  1.00  0.00     0.035 C 
ENDROOT
BRANCH   3   7
HETATM    7  C   UNL     1       7.342  27.261  54.286  1.00  0.00     0.277 C 
BRANCH   7   8
HETATM    8  C   UNL     1       6.143  26.547  53.777  1.00  0.00     0.016 A 
HETATM    9  C   UNL     1       5.992  25.126  53.646  1.00  0.00     0.102 A 
HETATM   10  N   UNL     1       4.795  24.829  53.131  1.00  0.00    -0.174 NA
HETATM   11  N   UNL     1       4.159  25.993  52.999  1.00  0.00    -0.288 N 
HETATM   12  H   UNL     1       3.200  25.979  52.657  1.00  0.00     0.188 HD
HETATM   13  C   UNL     1       4.929  27.063  53.357  1.00  0.00     0.120 A 
BRANCH   9  14
HETATM   14  C   UNL     1       6.919  24.061  54.012  1.00  0.00     0.072 A 
HETATM   15  C   UNL     1       6.974  23.578  55.323  1.00  0.00     0.132 A 
HETATM   16  F   UNL     1       6.227  24.145  56.283  1.00  0.00    -0.205 F 
HETATM   17  C   UNL     1       7.815  22.522  55.678  1.00  0.00     0.043 A 
HETATM   18  C   UNL     1       8.625  21.929  54.711  1.00  0.00     0.006 A 
HETATM   19  C   UNL     1       8.597  22.407  53.402  1.00  0.00     0.043 A 
HETATM   20  C   UNL     1       7.751  23.464  53.061  1.00  0.00     0.132 A 
HETATM   21  F   UNL     1       7.795  23.927  51.803  1.00  0.00    -0.205 F 
ENDBRANCH   9  14
ENDBRANCH   7   8
ENDBRANCH   3   7
BRANCH   1  22
HETATM   22  C   UNL     1       9.281  30.002  57.929  1.00  0.00     0.127 C 
BRANCH  22  23
HETATM   23  N   UNL     1       8.178  30.752  58.544  1.00  0.00    -0.376 N 
HETATM   24  H   UNL     1       7.260  30.410  58.269  1.00  0.00     0.161 HD
BRANCH  23  25
HETATM   25  C   UNL     1       8.283  31.172  59.865  1.00  0.00     0.100 A 
HETATM   26  C   UNL     1       9.484  31.557  60.478  1.00  0.00     0.048 A 
HETATM   27  C   UNL     1       9.492  31.995  61.802  1.00  0.00     0.005 A 
HETATM   28  C   UNL     1       8.302  32.062  62.511  1.00  0.00     0.017 A 
HETATM   29  C   UNL     1       7.130  31.699  61.871  1.00  0.00     0.089 A 
HETATM   30  N   UNL     1       7.157  31.284  60.595  1.00  0.00    -0.353 N 
HETATM   31  H   UNL     1       6.272  31.052  60.153  1.00  0.00     0.166 HD
ENDBRANCH  23  25
ENDBRANCH  22  23
ENDBRANCH   1  22
TORSDOF 6
ENDMDL
MODEL 2
REMARK VINA RESULT:      -9.6      0.171      1.598
REMARK  6 active torsions:
REMARK  status: ('A' for Active; 'I' for Inactive)
REMARK    1  A    between atoms: C_3  and  N_4 
REMARK    2  A    between atoms: N_4  and  C_5 
REMARK    3  A    between atoms: C_5  and  C_6 
REMARK    4  A    between atoms: N_8  and  C_10 
REMARK    5  A    between atoms: C_10  and  C_11 
REMARK    6  A    between atoms: C_12  and  C_13 
ROOT
HETATM    1  C   UNL     1       8.719  28.803  57.181  1.00  0.00     0.031 C 
HETATM    2  C   UNL     1       8.311  29.162  55.753  1.00  0.00     0.241 C 
HETATM    3  N   UNL     1       7.173  28.216  55.424  1.00  0.00    -0.067 N 
HETATM    4  H   UNL     1       6.358  28.781  55.147  1.00  0.00     0.280 HD
HETATM    5  C   UNL     1       6.803  27.475  56.689  1.00  0.00     0.235 C 
HETATM    6  C   UNL     1       7.405  28.324  57.795  1.00  0.00     0.035 C 
ENDROOT
BRANCH   3   7
HETATM    7  C   UNL     1       7.414  27.290  54.252  1.00  0.00     0.277 C 
BRANCH   7   8
HETATM    8  C   UNL     1       6.205  26.569  53.776  1.00  0.00     0.016 A 
HETATM    9  C   UNL     1       6.035  25.145  53.708  1.00  0.00     0.102 A 
HETATM   10  N   UNL     1       4.834  24.842  53.207  1.00  0.00    -0.174 NA
HETATM   11  N   UNL     1       4.214  26.007  53.024  1.00  0.00    -0.288 N 
HETATM   12  H   UNL     1       3.254  25.990  52.684  1.00  0.00     0.188 HD
HETATM   13  C   UNL     1       4.997  27.082  53.334  1.00  0.00     0.120 A 
BRANCH   9  14
HETATM   14  C   UNL     1       6.949  24.086  54.120  1.00  0.00     0.072 A 
HETATM   15  C   UNL     1       7.793  23.466  53.193  1.00  0.00     0.132 A 
HETATM   16  F   UNL     1       7.715  23.784  51.892  1.00  0.00    -0.205 F 
HETATM   17  C   UNL     1       8.711  22.490  53.581  1.00  0.00     0.043 A 
HETATM   18  C   UNL     1       8.798  22.115  54.920  1.00  0.00     0.006 A 
HETATM   19  C   UNL     1       7.954  22.710  55.858  1.00  0.00     0.043 A 
HETATM   20  C   UNL     1       7.040  23.684  55.456  1.00  0.00     0.132 A 
HETATM   21  F   UNL     1       6.211  24.192  56.380  1.00  0.00    -0.205 F 
ENDBRANCH   9  14
ENDBRANCH   7   8
ENDBRANCH   3   7
BRANCH   1  22
HETATM   22  C   UNL     1       9.358  29.983  57.928  1.00  0.00     0.127 C 
BRANCH  22  23
HETATM   23  N   UNL     1       8.315  30.857  58.481  1.00  0.00    -0.376 N 
HETATM   24  H   UNL     1       7.384  30.639  58.133  1.00  0.00     0.161 HD
BRANCH  23  25
HETATM   25  C   UNL     1       8.375  31.239  59.816  1.00  0.00     0.100 A 
HETATM   26  C   UNL     1       9.537  31.698  60.455  1.00  0.00     0.048 A 
HETATM   27  C   UNL     1       9.498  32.090  61.793  1.00  0.00     0.005 A 
HETATM   28  C   UNL     1       8.300  32.039  62.490  1.00  0.00     0.017 A 
HETATM   29  C   UNL     1       7.166  31.607  61.825  1.00  0.00     0.089 A 
HETATM   30  N   UNL     1       7.237  31.239  60.536  1.00  0.00    -0.353 N 
HETATM   31  H   UNL     1       6.378  30.952  60.077  1.00  0.00     0.166 HD
ENDBRANCH  23  25
ENDBRANCH  22  23
ENDBRANCH   1  22
TORSDOF 6
ENDMDL
MODEL 3
REMARK VINA RESULT:      -9.5      1.857      2.873
REMARK  6 active torsions:
REMARK  status: ('A' for Active; 'I' for Inactive)
REMARK    1  A    between atoms: C_3  and  N_4 
REMARK    2  A    between atoms: N_4  and  C_5 
REMARK    3  A    between atoms: C_5  and  C_6 
REMARK    4  A    between atoms: N_8  and  C_10 
REMARK    5  A    between atoms: C_10  and  C_11 
REMARK    6  A    between atoms: C_12  and  C_13 
ROOT
HETATM    1  C   UNL     1       8.777  30.339  58.397  1.00  0.00     0.031 C 
HETATM    2  C   UNL     1       8.106  28.993  58.126  1.00  0.00     0.241 C 
HETATM    3  N   UNL     1       8.652  28.548  56.783  1.00  0.00    -0.067 N 
HETATM    4  H   UNL     1       9.079  27.620  56.905  1.00  0.00     0.280 HD
HETATM    5  C   UNL     1       9.752  29.507  56.389  1.00  0.00     0.235 C 
HETATM    6  C   UNL     1      10.124  30.189  57.694  1.00  0.00     0.035 C 
ENDROOT
BRANCH   3   7
HETATM    7  C   UNL     1       7.621  28.358  55.692  1.00  0.00     0.277 C 
BRANCH   7   8
HETATM    8  C   UNL     1       6.367  27.698  56.137  1.00  0.00     0.016 A 
HETATM    9  C   UNL     1       6.144  26.285  56.254  1.00  0.00     0.102 A 
HETATM   10  N   UNL     1       4.894  26.041  56.658  1.00  0.00    -0.174 NA
HETATM   11  N   UNL     1       4.342  27.236  56.868  1.00  0.00    -0.288 N 
HETATM   12  H   UNL     1       3.390  27.267  57.227  1.00  0.00     0.188 HD
HETATM   13  C   UNL     1       5.178  28.271  56.556  1.00  0.00     0.120 A 
BRANCH   9  14
HETATM   14  C   UNL     1       7.071  25.182  56.025  1.00  0.00     0.072 A 
HETATM   15  C   UNL     1       6.991  24.408  54.864  1.00  0.00     0.132 A 
HETATM   16  F   UNL     1       6.006  24.620  53.978  1.00  0.00    -0.205 F 
HETATM   17  C   UNL     1       7.904  23.385  54.604  1.00  0.00     0.043 A 
HETATM   18  C   UNL     1       8.923  23.120  55.516  1.00  0.00     0.006 A 
HETATM   19  C   UNL     1       9.010  23.869  56.689  1.00  0.00     0.043 A 
HETATM   20  C   UNL     1       8.090  24.889  56.936  1.00  0.00     0.132 A 
HETATM   21  F   UNL     1       8.178  25.550  58.100  1.00  0.00    -0.205 F 
ENDBRANCH   9  14
ENDBRANCH   7   8
ENDBRANCH   3   7
BRANCH   1  22
HETATM   22  C   UNL     1       8.891  30.651  59.895  1.00  0.00     0.127 C 
BRANCH  22  23
HETATM   23  N   UNL     1       7.556  30.714  60.503  1.00  0.00    -0.376 N 
HETATM   24  H   UNL     1       7.049  29.834  60.449  1.00  0.00     0.161 HD
BRANCH  23  25
HETATM   25  C   UNL     1       7.367  31.435  61.677  1.00  0.00     0.100 A 
HETATM   26  C   UNL     1       8.402  32.032  62.412  1.00  0.00     0.048 A 
HETATM   27  C   UNL     1       8.118  32.765  63.564  1.00  0.00     0.005 A 
HETATM   28  C   UNL     1       6.802  32.914  63.976  1.00  0.00     0.017 A 
HETATM   29  C   UNL     1       5.801  32.336  63.216  1.00  0.00     0.089 A 
HETATM   30  N   UNL     1       6.109  31.639  62.111  1.00  0.00    -0.353 N 
HETATM   31  H   UNL     1       5.344  31.252  61.567  1.00  0.00     0.166 HD
ENDBRANCH  23  25
ENDBRANCH  22  23
ENDBRANCH   1  22
TORSDOF 6
ENDMDL
MODEL 4
REMARK VINA RESULT:      -9.4      4.127      7.999
REMARK  6 active torsions:
REMARK  status: ('A' for Active; 'I' for Inactive)
REMARK    1  A    between atoms: C_3  and  N_4 
REMARK    2  A    between atoms: N_4  and  C_5 
REMARK    3  A    between atoms: C_5  and  C_6 
REMARK    4  A    between atoms: N_8  and  C_10 
REMARK    5  A    between atoms: C_10  and  C_11 
REMARK    6  A    between atoms: C_12  and  C_13 
ROOT
HETATM    1  C   UNL     1       5.955  26.913  52.411  1.00  0.00     0.031 C 
HETATM    2  C   UNL     1       4.885  26.485  53.413  1.00  0.00     0.241 C 
HETATM    3  N   UNL     1       5.599  26.437  54.750  1.00  0.00    -0.067 N 
HETATM    4  H   UNL     1       5.094  27.053  55.403  1.00  0.00     0.280 HD
HETATM    5  C   UNL     1       6.982  27.014  54.558  1.00  0.00     0.235 C 
HETATM    6  C   UNL     1       6.874  27.791  53.257  1.00  0.00     0.035 C 
ENDROOT
BRANCH   3   7
HETATM    7  C   UNL     1       5.617  25.086  55.431  1.00  0.00     0.277 C 
BRANCH   7   8
HETATM    8  C   UNL     1       6.778  24.864  56.329  1.00  0.00     0.016 A 
HETATM    9  C   UNL     1       7.771  23.835  56.198  1.00  0.00     0.102 A 
HETATM   10  N   UNL     1       8.659  23.912  57.194  1.00  0.00    -0.174 NA
HETATM   11  N   UNL     1       8.311  24.983  57.906  1.00  0.00    -0.288 N 
HETATM   12  H   UNL     1       8.897  25.243  58.697  1.00  0.00     0.188 HD
HETATM   13  C   UNL     1       7.177  25.587  57.441  1.00  0.00     0.120 A 
BRANCH   9  14
HETATM   14  C   UNL     1       7.916  22.819  55.161  1.00  0.00     0.072 A 
HETATM   15  C   UNL     1       7.829  21.459  55.473  1.00  0.00     0.132 A 
HETATM   16  F   UNL     1       7.690  21.067  56.749  1.00  0.00    -0.205 F 
HETATM   17  C   UNL     1       7.910  20.477  54.485  1.00  0.00     0.043 A 
HETATM   18  C   UNL     1       8.083  20.848  53.153  1.00  0.00     0.006 A 
HETATM   19  C   UNL     1       8.188  22.199  52.823  1.00  0.00     0.043 A 
HETATM   20  C   UNL     1       8.106  23.171  53.822  1.00  0.00     0.132 A 
HETATM   21  F   UNL     1       8.266  24.455  53.467  1.00  0.00    -0.205 F 
ENDBRANCH   9  14
ENDBRANCH   7   8
ENDBRANCH   3   7
BRANCH   1  22
HETATM   22  C   UNL     1       5.367  27.630  51.188  1.00  0.00     0.127 C 
BRANCH  22  23
HETATM   23  N   UNL     1       5.293  26.709  50.047  1.00  0.00    -0.376 N 
HETATM   24  H   UNL     1       5.629  25.774  50.264  1.00  0.00     0.161 HD
BRANCH  23  25
HETATM   25  C   UNL     1       4.199  26.761  49.190  1.00  0.00     0.100 A 
HETATM   26  C   UNL     1       4.040  25.943  48.061  1.00  0.00     0.048 A 
HETATM   27  C   UNL     1       2.893  26.043  47.273  1.00  0.00     0.005 A 
HETATM   28  C   UNL     1       1.899  26.947  47.618  1.00  0.00     0.017 A 
HETATM   29  C   UNL     1       2.073  27.722  48.752  1.00  0.00     0.089 A 
HETATM   30  N   UNL     1       3.188  27.599  49.489  1.00  0.00    -0.353 N 
HETATM   31  H   UNL     1       3.266  28.167  50.327  1.00  0.00     0.166 HD
ENDBRANCH  23  25
ENDBRANCH  22  23
ENDBRANCH   1  22
TORSDOF 6
ENDMDL
MODEL 5
REMARK VINA RESULT:      -9.1      1.840      2.756
REMARK  6 active torsions:
REMARK  status: ('A' for Active; 'I' for Inactive)
REMARK    1  A    between atoms: C_3  and  N_4 
REMARK    2  A    between atoms: N_4  and  C_5 
REMARK    3  A    between atoms: C_5  and  C_6 
REMARK    4  A    between atoms: N_8  and  C_10 
REMARK    5  A    between atoms: C_10  and  C_11 
REMARK    6  A    between atoms: C_12  and  C_13 
ROOT
HETATM    1  C   UNL     1       7.004  27.335  55.880  1.00  0.00     0.031 C 
HETATM    2  C   UNL     1       6.074  27.155  54.682  1.00  0.00     0.241 C 
HETATM    3  N   UNL     1       5.124  26.045  55.089  1.00  0.00    -0.067 N 
HETATM    4  H   UNL     1       4.162  26.403  55.005  1.00  0.00     0.280 HD
HETATM    5  C   UNL     1       5.368  25.737  56.548  1.00  0.00     0.235 C 
HETATM    6  C   UNL     1       6.107  26.961  57.059  1.00  0.00     0.035 C 
ENDROOT
BRANCH   3   7
HETATM    7  C   UNL     1       5.153  24.810  54.216  1.00  0.00     0.277 C 
BRANCH   7   8
HETATM    8  C   UNL     1       6.296  24.750  53.269  1.00  0.00     0.016 A 
HETATM    9  C   UNL     1       7.467  23.930  53.400  1.00  0.00     0.102 A 
HETATM   10  N   UNL     1       8.305  24.146  52.382  1.00  0.00    -0.174 NA
HETATM   11  N   UNL     1       7.684  25.011  51.580  1.00  0.00    -0.288 N 
HETATM   12  H   UNL     1       8.146  25.275  50.712  1.00  0.00     0.188 HD
HETATM   13  C   UNL     1       6.478  25.421  52.072  1.00  0.00     0.120 A 
BRANCH   9  14
HETATM   14  C   UNL     1       7.796  22.947  54.427  1.00  0.00     0.072 A 
HETATM   15  C   UNL     1       8.199  23.352  55.703  1.00  0.00     0.132 A 
HETATM   16  F   UNL     1       8.367  24.655  55.977  1.00  0.00    -0.205 F 
HETATM   17  C   UNL     1       8.463  22.427  56.713  1.00  0.00     0.043 A 
HETATM   18  C   UNL     1       8.327  21.064  56.455  1.00  0.00     0.006 A 
HETATM   19  C   UNL     1       7.942  20.639  55.184  1.00  0.00     0.043 A 
HETATM   20  C   UNL     1       7.681  21.576  54.183  1.00  0.00     0.132 A 
HETATM   21  F   UNL     1       7.365  21.123  52.961  1.00  0.00    -0.205 F 
ENDBRANCH   9  14
ENDBRANCH   7   8
ENDBRANCH   3   7
BRANCH   1  22
HETATM   22  C   UNL     1       7.584  28.753  55.969  1.00  0.00     0.127 C 
BRANCH  22  23
HETATM   23  N   UNL     1       8.788  28.756  56.811  1.00  0.00    -0.376 N 
HETATM   24  H   UNL     1       9.634  28.510  56.301  1.00  0.00     0.161 HD
BRANCH  23  25
HETATM   25  C   UNL     1       8.946  29.739  57.782  1.00  0.00     0.100 A 
HETATM   26  C   UNL     1       8.164  29.835  58.943  1.00  0.00     0.048 A 
HETATM   27  C   UNL     1       8.413  30.837  59.881  1.00  0.00     0.005 A 
HETATM   28  C   UNL     1       9.449  31.734  59.669  1.00  0.00     0.017 A 
HETATM   29  C   UNL     1      10.220  31.597  58.527  1.00  0.00     0.089 A 
HETATM   30  N   UNL     1       9.955  30.620  57.646  1.00  0.00    -0.353 N 
HETATM   31  H   UNL     1      10.560  30.538  56.834  1.00  0.00     0.166 HD
ENDBRANCH  23  25
ENDBRANCH  22  23
ENDBRANCH   1  22
TORSDOF 6
ENDMDL
MODEL 6
REMARK VINA RESULT:      -8.7      4.190      7.261
REMARK  6 active torsions:
REMARK  status: ('A' for Active; 'I' for Inactive)
REMARK    1  A    between atoms: C_3  and  N_4 
REMARK    2  A    between atoms: N_4  and  C_5 
REMARK    3  A    between atoms: C_5  and  C_6 
REMARK    4  A    between atoms: N_8  and  C_10 
REMARK    5  A    between atoms: C_10  and  C_11 
REMARK    6  A    between atoms: C_12  and  C_13 
ROOT
HETATM    1  C   UNL     1       4.381  27.735  53.736  1.00  0.00     0.031 C 
HETATM    2  C   UNL     1       5.471  27.413  54.757  1.00  0.00     0.241 C 
HETATM    3  N   UNL     1       5.865  25.978  54.467  1.00  0.00    -0.067 N 
HETATM    4  H   UNL     1       6.879  25.956  54.290  1.00  0.00     0.280 HD
HETATM    5  C   UNL     1       5.172  25.554  53.192  1.00  0.00     0.235 C 
HETATM    6  C   UNL     1       4.775  26.868  52.542  1.00  0.00     0.035 C 
ENDROOT
BRANCH   3   7
HETATM    7  C   UNL     1       5.652  25.001  55.602  1.00  0.00     0.277 C 
BRANCH   7   8
HETATM    8  C   UNL     1       6.854  24.759  56.441  1.00  0.00     0.016 A 
HETATM    9  C   UNL     1       7.836  23.730  56.245  1.00  0.00     0.102 A 
HETATM   10  N   UNL     1       8.769  23.787  57.200  1.00  0.00    -0.174 NA
HETATM   11  N   UNL     1       8.459  24.846  57.946  1.00  0.00    -0.288 N 
HETATM   12  H   UNL     1       9.082  25.091  58.714  1.00  0.00     0.188 HD
HETATM   13  C   UNL     1       7.307  25.461  57.546  1.00  0.00     0.120 A 
BRANCH   9  14
HETATM   14  C   UNL     1       7.928  22.733  55.184  1.00  0.00     0.072 A 
HETATM   15  C   UNL     1       8.200  23.111  53.866  1.00  0.00     0.132 A 
HETATM   16  F   UNL     1       8.301  24.410  53.544  1.00  0.00    -0.205 F 
HETATM   17  C   UNL     1       8.347  22.166  52.851  1.00  0.00     0.043 A 
HETATM   18  C   UNL     1       8.220  20.810  53.145  1.00  0.00     0.006 A 
HETATM   19  C   UNL     1       7.933  20.412  54.451  1.00  0.00     0.043 A 
HETATM   20  C   UNL     1       7.788  21.369  55.456  1.00  0.00     0.132 A 
HETATM   21  F   UNL     1       7.459  20.947  56.687  1.00  0.00    -0.205 F 
ENDBRANCH   9  14
ENDBRANCH   7   8
ENDBRANCH   3   7
BRANCH   1  22
HETATM   22  C   UNL     1       4.298  29.233  53.413  1.00  0.00     0.127 C 
BRANCH  22  23
HETATM   23  N   UNL     1       2.988  29.555  52.831  1.00  0.00    -0.376 N 
HETATM   24  H   UNL     1       2.538  30.352  53.274  1.00  0.00     0.161 HD
BRANCH  23  25
HETATM   25  C   UNL     1       2.804  29.458  51.457  1.00  0.00     0.100 A 
HETATM   26  C   UNL     1       3.754  29.851  50.502  1.00  0.00     0.048 A 
HETATM   27  C   UNL     1       3.496  29.689  49.141  1.00  0.00     0.005 A 
HETATM   28  C   UNL     1       2.297  29.123  48.732  1.00  0.00     0.017 A 
HETATM   29  C   UNL     1       1.391  28.721  49.698  1.00  0.00     0.089 A 
HETATM   30  N   UNL     1       1.672  28.889  50.999  1.00  0.00    -0.353 N 
HETATM   31  H   UNL     1       0.992  28.558  51.677  1.00  0.00     0.166 HD
ENDBRANCH  23  25
ENDBRANCH  22  23
ENDBRANCH   1  22
TORSDOF 6
ENDMDL
MODEL 7
REMARK VINA RESULT:      -8.4      3.975      8.129
REMARK  6 active torsions:
REMARK  status: ('A' for Active; 'I' for Inactive)
REMARK    1  A    between atoms: C_3  and  N_4 
REMARK    2  A    between atoms: N_4  and  C_5 
REMARK    3  A    between atoms: C_5  and  C_6 
REMARK    4  A    between atoms: N_8  and  C_10 
REMARK    5  A    between atoms: C_10  and  C_11 
REMARK    6  A    between atoms: C_12  and  C_13 
ROOT
HETATM    1  C   UNL     1       5.499  26.933  52.376  1.00  0.00     0.031 C 
HETATM    2  C   UNL     1       5.967  28.092  53.254  1.00  0.00     0.241 C 
HETATM    3  N   UNL     1       7.359  27.699  53.709  1.00  0.00    -0.067 N 
HETATM    4  H   UNL     1       8.008  28.449  53.433  1.00  0.00     0.280 HD
HETATM    5  C   UNL     1       7.759  26.452  52.954  1.00  0.00     0.235 C 
HETATM    6  C   UNL     1       6.805  26.421  51.773  1.00  0.00     0.035 C 
ENDROOT
BRANCH   3   7
HETATM    7  C   UNL     1       7.542  27.563  55.205  1.00  0.00     0.277 C 
BRANCH   7   8
HETATM    8  C   UNL     1       6.423  26.883  55.904  1.00  0.00     0.016 A 
HETATM    9  C   UNL     1       6.247  25.465  56.050  1.00  0.00     0.102 A 
HETATM   10  N   UNL     1       5.117  25.200  56.713  1.00  0.00    -0.174 NA
HETATM   11  N   UNL     1       4.610  26.386  57.052  1.00  0.00    -0.288 N 
HETATM   12  H   UNL     1       3.758  26.401  57.609  1.00  0.00     0.188 HD
HETATM   13  C   UNL     1       5.346  27.434  56.578  1.00  0.00     0.120 A 
BRANCH   9  14
HETATM   14  C   UNL     1       7.115  24.377  55.613  1.00  0.00     0.072 A 
HETATM   15  C   UNL     1       6.861  23.692  54.422  1.00  0.00     0.132 A 
HETATM   16  F   UNL     1       5.764  23.974  53.702  1.00  0.00    -0.205 F 
HETATM   17  C   UNL     1       7.712  22.687  53.962  1.00  0.00     0.043 A 
HETATM   18  C   UNL     1       8.845  22.349  54.699  1.00  0.00     0.006 A 
HETATM   19  C   UNL     1       9.108  23.009  55.899  1.00  0.00     0.043 A 
HETATM   20  C   UNL     1       8.247  24.012  56.347  1.00  0.00     0.132 A 
HETATM   21  F   UNL     1       8.509  24.585  57.532  1.00  0.00    -0.205 F 
ENDBRANCH   9  14
ENDBRANCH   7   8
ENDBRANCH   3   7
BRANCH   1  22
HETATM   22  C   UNL     1       4.462  27.367  51.330  1.00  0.00     0.127 C 
BRANCH  22  23
HETATM   23  N   UNL     1       4.751  26.733  50.037  1.00  0.00    -0.376 N 
HETATM   24  H   UNL     1       5.313  25.889  50.121  1.00  0.00     0.161 HD
BRANCH  23  25
HETATM   25  C   UNL     1       3.768  26.696  49.054  1.00  0.00     0.100 A 
HETATM   26  C   UNL     1       3.785  25.827  47.953  1.00  0.00     0.048 A 
HETATM   27  C   UNL     1       2.739  25.836  47.030  1.00  0.00     0.005 A 
HETATM   28  C   UNL     1       1.670  26.702  47.212  1.00  0.00     0.017 A 
HETATM   29  C   UNL     1       1.670  27.528  48.322  1.00  0.00     0.089 A 
HETATM   30  N   UNL     1       2.691  27.492  49.192  1.00  0.00    -0.353 N 
HETATM   31  H   UNL     1       2.641  28.096  50.007  1.00  0.00     0.166 HD
ENDBRANCH  23  25
ENDBRANCH  22  23
ENDBRANCH   1  22
TORSDOF 6
ENDMDL
MODEL 8
REMARK VINA RESULT:      -8.4      5.762      8.560
REMARK  6 active torsions:
REMARK  status: ('A' for Active; 'I' for Inactive)
REMARK    1  A    between atoms: C_3  and  N_4 
REMARK    2  A    between atoms: N_4  and  C_5 
REMARK    3  A    between atoms: C_5  and  C_6 
REMARK    4  A    between atoms: N_8  and  C_10 
REMARK    5  A    between atoms: C_10  and  C_11 
REMARK    6  A    between atoms: C_12  and  C_13 
ROOT
HETATM    1  C   UNL     1       6.839  26.031  53.110  1.00  0.00     0.031 C 
HETATM    2  C   UNL     1       5.371  26.276  53.455  1.00  0.00     0.241 C 
HETATM    3  N   UNL     1       4.684  26.472  52.117  1.00  0.00    -0.067 N 
HETATM    4  H   UNL     1       3.920  25.785  52.049  1.00  0.00     0.280 HD
HETATM    5  C   UNL     1       5.684  26.148  51.030  1.00  0.00     0.235 C 
HETATM    6  C   UNL     1       6.754  25.345  51.749  1.00  0.00     0.035 C 
ENDROOT
BRANCH   3   7
HETATM    7  C   UNL     1       4.015  27.814  51.918  1.00  0.00     0.277 C 
BRANCH   7   8
HETATM    8  C   UNL     1       4.657  28.677  50.893  1.00  0.00     0.016 A 
HETATM    9  C   UNL     1       4.383  28.672  49.484  1.00  0.00     0.102 A 
HETATM   10  N   UNL     1       5.160  29.558  48.854  1.00  0.00    -0.174 NA
HETATM   11  N   UNL     1       5.859  30.171  49.810  1.00  0.00    -0.288 N 
HETATM   12  H   UNL     1       6.488  30.923  49.535  1.00  0.00     0.188 HD
HETATM   13  C   UNL     1       5.609  29.670  51.056  1.00  0.00     0.120 A 
BRANCH   9  14
HETATM   14  C   UNL     1       3.407  27.887  48.736  1.00  0.00     0.072 A 
HETATM   15  C   UNL     1       2.039  28.154  48.843  1.00  0.00     0.132 A 
HETATM   16  F   UNL     1       1.599  29.089  49.699  1.00  0.00    -0.205 F 
HETATM   17  C   UNL     1       1.097  27.450  48.093  1.00  0.00     0.043 A 
HETATM   18  C   UNL     1       1.518  26.453  47.214  1.00  0.00     0.006 A 
HETATM   19  C   UNL     1       2.876  26.160  47.105  1.00  0.00     0.043 A 
HETATM   20  C   UNL     1       3.808  26.872  47.862  1.00  0.00     0.132 A 
HETATM   21  F   UNL     1       5.099  26.522  47.767  1.00  0.00    -0.205 F 
ENDBRANCH   9  14
ENDBRANCH   7   8
ENDBRANCH   3   7
BRANCH   1  22
HETATM   22  C   UNL     1       7.566  25.201  54.178  1.00  0.00     0.127 C 
BRANCH  22  23
HETATM   23  N   UNL     1       6.780  24.006  54.513  1.00  0.00    -0.376 N 
HETATM   24  H   UNL     1       5.813  24.063  54.203  1.00  0.00     0.161 HD
BRANCH  23  25
HETATM   25  C   UNL     1       7.363  22.748  54.408  1.00  0.00     0.100 A 
HETATM   26  C   UNL     1       7.824  22.188  53.207  1.00  0.00     0.048 A 
HETATM   27  C   UNL     1       8.425  20.930  53.200  1.00  0.00     0.005 A 
HETATM   28  C   UNL     1       8.580  20.235  54.391  1.00  0.00     0.017 A 
HETATM   29  C   UNL     1       8.139  20.825  55.563  1.00  0.00     0.089 A 
HETATM   30  N   UNL     1       7.567  22.039  55.535  1.00  0.00    -0.353 N 
HETATM   31  H   UNL     1       7.280  22.448  56.419  1.00  0.00     0.166 HD
ENDBRANCH  23  25
ENDBRANCH  22  23
ENDBRANCH   1  22
TORSDOF 6
ENDMDL
MODEL 9
REMARK VINA RESULT:      -8.3      2.490      3.445
REMARK  6 active torsions:
REMARK  status: ('A' for Active; 'I' for Inactive)
REMARK    1  A    between atoms: C_3  and  N_4 
REMARK    2  A    between atoms: N_4  and  C_5 
REMARK    3  A    between atoms: C_5  and  C_6 
REMARK    4  A    between atoms: N_8  and  C_10 
REMARK    5  A    between atoms: C_10  and  C_11 
REMARK    6  A    between atoms: C_12  and  C_13 
ROOT
HETATM    1  C   UNL     1       6.816  27.504  55.759  1.00  0.00     0.031 C 
HETATM    2  C   UNL     1       5.901  27.226  54.566  1.00  0.00     0.241 C 
HETATM    3  N   UNL     1       5.016  26.078  55.013  1.00  0.00    -0.067 N 
HETATM    4  H   UNL     1       4.036  26.376  54.915  1.00  0.00     0.280 HD
HETATM    5  C   UNL     1       5.273  25.838  56.483  1.00  0.00     0.235 C 
HETATM    6  C   UNL     1       5.939  27.121  56.949  1.00  0.00     0.035 C 
ENDROOT
BRANCH   3   7
HETATM    7  C   UNL     1       5.120  24.816  54.186  1.00  0.00     0.277 C 
BRANCH   7   8
HETATM    8  C   UNL     1       6.295  24.767  53.278  1.00  0.00     0.016 A 
HETATM    9  C   UNL     1       7.462  23.948  53.441  1.00  0.00     0.102 A 
HETATM   10  N   UNL     1       8.334  24.176  52.453  1.00  0.00    -0.174 NA
HETATM   11  N   UNL     1       7.739  25.047  51.639  1.00  0.00    -0.288 N 
HETATM   12  H   UNL     1       8.229  25.321  50.790  1.00  0.00     0.188 HD
HETATM   13  C   UNL     1       6.515  25.451  52.094  1.00  0.00     0.120 A 
BRANCH   9  14
HETATM   14  C   UNL     1       7.758  22.956  54.468  1.00  0.00     0.072 A 
HETATM   15  C   UNL     1       7.700  21.589  54.182  1.00  0.00     0.132 A 
HETATM   16  F   UNL     1       7.292  21.168  52.975  1.00  0.00    -0.205 F 
HETATM   17  C   UNL     1       8.034  20.629  55.138  1.00  0.00     0.043 A 
HETATM   18  C   UNL     1       8.434  21.030  56.411  1.00  0.00     0.006 A 
HETATM   19  C   UNL     1       8.482  22.388  56.722  1.00  0.00     0.043 A 
HETATM   20  C   UNL     1       8.145  23.338  55.756  1.00  0.00     0.132 A 
HETATM   21  F   UNL     1       8.154  24.631  56.112  1.00  0.00    -0.205 F 
ENDBRANCH   9  14
ENDBRANCH   7   8
ENDBRANCH   3   7
BRANCH   1  22
HETATM   22  C   UNL     1       7.313  28.956  55.796  1.00  0.00     0.127 C 
BRANCH  22  23
HETATM   23  N   UNL     1       6.190  29.881  55.598  1.00  0.00    -0.376 N 
HETATM   24  H   UNL     1       5.383  29.444  55.159  1.00  0.00     0.161 HD
BRANCH  23  25
HETATM   25  C   UNL     1       5.894  30.823  56.576  1.00  0.00     0.100 A 
HETATM   26  C   UNL     1       6.395  30.786  57.886  1.00  0.00     0.048 A 
HETATM   27  C   UNL     1       6.070  31.793  58.795  1.00  0.00     0.005 A 
HETATM   28  C   UNL     1       5.256  32.843  58.396  1.00  0.00     0.017 A 
HETATM   29  C   UNL     1       4.799  32.865  57.090  1.00  0.00     0.089 A 
HETATM   30  N   UNL     1       5.133  31.882  56.239  1.00  0.00    -0.353 N 
HETATM   31  H   UNL     1       4.798  31.948  55.283  1.00  0.00     0.166 HD
ENDBRANCH  23  25
ENDBRANCH  22  23
ENDBRANCH   1  22
TORSDOF 6
ENDMDL
MODEL 10
REMARK VINA RESULT:      -8.2      2.156      3.411
REMARK  6 active torsions:
REMARK  status: ('A' for Active; 'I' for Inactive)
REMARK    1  A    between atoms: C_3  and  N_4 
REMARK    2  A    between atoms: N_4  and  C_5 
REMARK    3  A    between atoms: C_5  and  C_6 
REMARK    4  A    between atoms: N_8  and  C_10 
REMARK    5  A    between atoms: C_10  and  C_11 
REMARK    6  A    between atoms: C_12  and  C_13 
ROOT
HETATM    1  C   UNL     1       9.017  30.815  58.144  1.00  0.00     0.031 C 
HETATM    2  C   UNL     1       8.473  29.402  58.348  1.00  0.00     0.241 C 
HETATM    3  N   UNL     1       9.053  28.593  57.205  1.00  0.00    -0.067 N 
HETATM    4  H   UNL     1       9.565  27.795  57.607  1.00  0.00     0.280 HD
HETATM    5  C   UNL     1      10.059  29.461  56.484  1.00  0.00     0.235 C 
HETATM    6  C   UNL     1      10.370  30.561  57.484  1.00  0.00     0.035 C 
ENDROOT
BRANCH   3   7
HETATM    7  C   UNL     1       8.041  27.968  56.269  1.00  0.00     0.277 C 
BRANCH   7   8
HETATM    8  C   UNL     1       7.684  26.564  56.596  1.00  0.00     0.016 A 
HETATM    9  C   UNL     1       7.076  25.612  55.710  1.00  0.00     0.102 A 
HETATM   10  N   UNL     1       6.870  24.451  56.340  1.00  0.00    -0.174 NA
HETATM   11  N   UNL     1       7.385  24.606  57.560  1.00  0.00    -0.288 N 
HETATM   12  H   UNL     1       7.367  23.808  58.192  1.00  0.00     0.188 HD
HETATM   13  C   UNL     1       7.874  25.863  57.776  1.00  0.00     0.120 A 
BRANCH   9  14
HETATM   14  C   UNL     1       6.717  25.759  54.303  1.00  0.00     0.072 A 
HETATM   15  C   UNL     1       5.645  26.569  53.918  1.00  0.00     0.132 A 
HETATM   16  F   UNL     1       4.879  27.161  54.847  1.00  0.00    -0.205 F 
HETATM   17  C   UNL     1       5.323  26.764  52.575  1.00  0.00     0.043 A 
HETATM   18  C   UNL     1       6.080  26.140  51.585  1.00  0.00     0.006 A 
HETATM   19  C   UNL     1       7.144  25.315  51.948  1.00  0.00     0.043 A 
HETATM   20  C   UNL     1       7.454  25.129  53.296  1.00  0.00     0.132 A 
HETATM   21  F   UNL     1       8.451  24.285  53.604  1.00  0.00    -0.205 F 
ENDBRANCH   9  14
ENDBRANCH   7   8
ENDBRANCH   3   7
BRANCH   1  22
HETATM   22  C   UNL     1       9.107  31.608  59.456  1.00  0.00     0.127 C 
BRANCH  22  23
HETATM   23  N   UNL     1       8.029  31.203  60.368  1.00  0.00    -0.376 N 
HETATM   24  H   UNL     1       8.052  30.213  60.599  1.00  0.00     0.161 HD
BRANCH  23  25
HETATM   25  C   UNL     1       7.655  32.046  61.408  1.00  0.00     0.100 A 
HETATM   26  C   UNL     1       6.628  32.998  61.323  1.00  0.00     0.048 A 
HETATM   27  C   UNL     1       6.298  33.782  62.428  1.00  0.00     0.005 A 
HETATM   28  C   UNL     1       6.983  33.608  63.622  1.00  0.00     0.017 A 
HETATM   29  C   UNL     1       7.973  32.643  63.683  1.00  0.00     0.089 A 
HETATM   30  N   UNL     1       8.263  31.904  62.601  1.00  0.00    -0.353 N 
HETATM   31  H   UNL     1       8.979  31.189  62.694  1.00  0.00     0.166 HD
ENDBRANCH  23  25
ENDBRANCH  22  23
ENDBRANCH   1  22
TORSDOF 6
ENDMDL
