MODEL 1
REMARK VINA RESULT:     -10.2      0.000      0.000
REMARK  4 active torsions:
REMARK  status: ('A' for Active; 'I' for Inactive)
REMARK    1  A    between atoms: C_2  and  N_3 
REMARK       I    between atoms: N_3  and  C_4 
REMARK       I    between atoms: C_4  and  N_5 
REMARK    2  A    between atoms: N_5  and  C_6 
REMARK    3  A    between atoms: C_17  and  C_18 
REMARK    4  A    between atoms: C_19  and  O_20 
ROOT
HETATM    1  C   UNL     1       8.554  31.178  59.810  1.00  0.00     0.120 C 
HETATM    2  C   UNL     1       7.961  30.336  58.660  1.00  0.00     0.202 C 
HETATM    3  N   UNL     1       8.994  30.330  57.640  1.00  0.00    -0.332 N 
HETATM    4  C   UNL     1       9.040  29.485  56.564  1.00  0.00     0.257 C 
HETATM    5  O   UNL     1       9.987  29.458  55.784  1.00  0.00    -0.267 OA
HETATM    6  C   UNL     1       7.897  28.566  56.349  1.00  0.00     0.059 A 
HETATM    7  C   UNL     1       6.552  28.946  56.491  1.00  0.00     0.050 A 
HETATM    8  N   UNL     1       6.098  30.164  57.039  1.00  0.00    -0.324 N 
HETATM    9  C   UNL     1       6.695  30.914  58.028  1.00  0.00     0.247 C 
HETATM   10  O   UNL     1       6.131  31.928  58.438  1.00  0.00    -0.271 OA
HETATM   11  C   UNL     1       8.223  27.294  55.849  1.00  0.00     0.031 A 
HETATM   12  C   UNL     1       7.230  26.374  55.484  1.00  0.00    -0.022 A 
HETATM   13  C   UNL     1       5.894  26.788  55.572  1.00  0.00     0.014 A 
HETATM   14  C   UNL     1       5.560  28.059  56.054  1.00  0.00     0.031 A 
HETATM   15  C   UNL     1       9.947  31.397  57.840  1.00  0.00     0.129 C 
HETATM   16  C   UNL     1       9.952  31.616  59.339  1.00  0.00     0.048 C 
HETATM   17  H   UNL     1       5.148  30.458  56.843  1.00  0.00     0.169 HD
ENDROOT
BRANCH   1  18
HETATM   18  N   UNL     1       8.621  30.479  61.101  1.00  0.00    -0.336 N 
HETATM   19  C   UNL     1       8.074  30.765  62.311  1.00  0.00     0.316 C 
HETATM   20  N   UNL     1       7.282  31.871  62.372  1.00  0.00    -0.339 N 
HETATM   21  O   UNL     1       8.362  30.065  63.274  1.00  0.00    -0.247 OA
HETATM   22  H   UNL     1       6.802  32.130  61.525  1.00  0.00     0.164 HD
HETATM   23  H   UNL     1       9.210  29.656  61.148  1.00  0.00     0.164 HD
BRANCH  20  24
HETATM   24  C   UNL     1       6.714  32.409  63.603  1.00  0.00     0.078 C 
HETATM   25  C   UNL     1       5.325  33.011  63.391  1.00  0.00     0.032 C 
HETATM   26  C   UNL     1       7.655  33.390  64.295  1.00  0.00     0.032 C 
ENDBRANCH  20  24
ENDBRANCH   1  18
BRANCH  12  27
HETATM   27  C   UNL     1       7.596  25.021  55.022  1.00  0.00     0.009 A 
HETATM   28  C   UNL     1       7.770  24.715  53.650  1.00  0.00     0.079 A 
HETATM   29  C   UNL     1       8.079  23.405  53.262  1.00  0.00     0.039 A 
HETATM   30  C   UNL     1       8.220  22.396  54.217  1.00  0.00     0.026 A 
HETATM   31  C   UNL     1       8.055  22.691  55.565  1.00  0.00     0.035 A 
HETATM   32 CL   UNL     1       8.223  21.447  56.740  1.00  0.00    -0.084 Cl
HETATM   33  C   UNL     1       7.747  23.989  55.969  1.00  0.00     0.039 A 
BRANCH  28  34
HETATM   34  O   UNL     1       7.591  25.753  52.770  1.00  0.00    -0.355 OA
HETATM   35  C   UNL     1       6.514  25.664  51.846  1.00  0.00     0.210 C 
ENDBRANCH  28  34
ENDBRANCH  12  27
TORSDOF 4
ENDMDL
MODEL 2
REMARK VINA RESULT:      -9.6      3.558      9.710
REMARK  4 active torsions:
REMARK  status: ('A' for Active; 'I' for Inactive)
REMARK    1  A    between atoms: C_2  and  N_3 
REMARK       I    between atoms: N_3  and  C_4 
REMARK       I    between atoms: C_4  and  N_5 
REMARK    2  A    between atoms: N_5  and  C_6 
REMARK    3  A    between atoms: C_17  and  C_18 
REMARK    4  A    between atoms: C_19  and  O_20 
ROOT
HETATM    1  C   UNL     1       6.774  28.491  56.913  1.00  0.00     0.120 C 
HETATM    2  C   UNL     1       7.253  29.425  58.044  1.00  0.00     0.202 C 
HETATM    3  N   UNL     1       6.644  30.708  57.743  1.00  0.00    -0.332 N 
HETATM    4  C   UNL     1       6.550  31.764  58.609  1.00  0.00     0.257 C 
HETATM    5  O   UNL     1       5.938  32.792  58.336  1.00  0.00    -0.267 OA
HETATM    6  C   UNL     1       7.211  31.643  59.931  1.00  0.00     0.059 A 
HETATM    7  C   UNL     1       8.492  31.097  60.116  1.00  0.00     0.050 A 
HETATM    8  N   UNL     1       9.243  30.416  59.135  1.00  0.00    -0.324 N 
HETATM    9  C   UNL     1       8.766  29.638  58.103  1.00  0.00     0.247 C 
HETATM   10  O   UNL     1       9.564  29.060  57.366  1.00  0.00    -0.271 OA
HETATM   11  C   UNL     1       6.535  32.240  61.008  1.00  0.00     0.031 A 
HETATM   12  C   UNL     1       7.108  32.307  62.285  1.00  0.00    -0.022 A 
HETATM   13  C   UNL     1       8.410  31.816  62.442  1.00  0.00     0.014 A 
HETATM   14  C   UNL     1       9.099  31.233  61.371  1.00  0.00     0.031 A 
HETATM   15  C   UNL     1       6.213  30.783  56.366  1.00  0.00     0.129 C 
HETATM   16  C   UNL     1       5.882  29.351  56.000  1.00  0.00     0.048 C 
HETATM   17  H   UNL     1      10.241  30.313  59.275  1.00  0.00     0.169 HD
ENDROOT
BRANCH   1  18
HETATM   18  N   UNL     1       6.062  27.293  57.377  1.00  0.00    -0.336 N 
HETATM   19  C   UNL     1       5.900  26.066  56.816  1.00  0.00     0.316 C 
HETATM   20  N   UNL     1       6.525  25.856  55.626  1.00  0.00    -0.339 N 
HETATM   21  O   UNL     1       5.168  25.253  57.368  1.00  0.00    -0.247 OA
HETATM   22  H   UNL     1       7.369  26.381  55.460  1.00  0.00     0.164 HD
HETATM   23  H   UNL     1       5.548  27.371  58.247  1.00  0.00     0.164 HD
BRANCH  20  24
HETATM   24  C   UNL     1       6.365  24.656  54.812  1.00  0.00     0.078 C 
HETATM   25  C   UNL     1       7.696  23.955  54.537  1.00  0.00     0.032 C 
HETATM   26  C   UNL     1       5.593  24.926  53.526  1.00  0.00     0.032 C 
ENDBRANCH  20  24
ENDBRANCH   1  18
BRANCH  12  27
HETATM   27  C   UNL     1       6.352  32.883  63.415  1.00  0.00     0.009 A 
HETATM   28  C   UNL     1       4.961  33.138  63.339  1.00  0.00     0.079 A 
HETATM   29  C   UNL     1       4.298  33.722  64.426  1.00  0.00     0.039 A 
HETATM   30  C   UNL     1       4.999  34.055  65.589  1.00  0.00     0.026 A 
HETATM   31  C   UNL     1       6.363  33.803  65.670  1.00  0.00     0.035 A 
HETATM   32 CL   UNL     1       7.224  34.218  67.100  1.00  0.00    -0.084 Cl
HETATM   33  C   UNL     1       7.037  33.222  64.598  1.00  0.00     0.039 A 
BRANCH  28  34
HETATM   34  O   UNL     1       4.348  32.807  62.156  1.00  0.00    -0.355 OA
HETATM   35  C   UNL     1       3.126  33.459  61.834  1.00  0.00     0.210 C 
ENDBRANCH  28  34
ENDBRANCH  12  27
TORSDOF 4
ENDMDL
MODEL 3
REMARK VINA RESULT:      -9.4      2.052      2.644
REMARK  4 active torsions:
REMARK  status: ('A' for Active; 'I' for Inactive)
REMARK    1  A    between atoms: C_2  and  N_3 
REMARK       I    between atoms: N_3  and  C_4 
REMARK       I    between atoms: C_4  and  N_5 
REMARK    2  A    between atoms: N_5  and  C_6 
REMARK    3  A    between atoms: C_17  and  C_18 
REMARK    4  A    between atoms: C_19  and  O_20 
ROOT
HETATM    1  C   UNL     1       6.564  32.208  60.348  1.00  0.00     0.120 C 
HETATM    2  C   UNL     1       6.448  31.493  58.985  1.00  0.00     0.202 C 
HETATM    3  N   UNL     1       7.819  31.215  58.597  1.00  0.00    -0.332 N 
HETATM    4  C   UNL     1       8.203  30.352  57.607  1.00  0.00     0.257 C 
HETATM    5  O   UNL     1       9.379  30.080  57.386  1.00  0.00    -0.267 OA
HETATM    6  C   UNL     1       7.145  29.720  56.783  1.00  0.00     0.059 A 
HETATM    7  C   UNL     1       6.024  30.408  56.289  1.00  0.00     0.050 A 
HETATM    8  N   UNL     1       5.638  31.714  56.655  1.00  0.00    -0.324 N 
HETATM    9  C   UNL     1       5.817  32.333  57.873  1.00  0.00     0.247 C 
HETATM   10  O   UNL     1       5.362  33.463  58.047  1.00  0.00    -0.271 OA
HETATM   11  C   UNL     1       7.388  28.392  56.392  1.00  0.00     0.031 A 
HETATM   12  C   UNL     1       6.531  27.721  55.510  1.00  0.00    -0.022 A 
HETATM   13  C   UNL     1       5.453  28.438  54.976  1.00  0.00     0.014 A 
HETATM   14  C   UNL     1       5.211  29.766  55.347  1.00  0.00     0.031 A 
HETATM   15  C   UNL     1       8.756  32.036  59.330  1.00  0.00     0.129 C 
HETATM   16  C   UNL     1       8.070  32.292  60.656  1.00  0.00     0.048 C 
HETATM   17  H   UNL     1       4.998  32.216  56.051  1.00  0.00     0.169 HD
ENDROOT
BRANCH   1  18
HETATM   18  N   UNL     1       5.833  31.551  61.441  1.00  0.00    -0.336 N 
HETATM   19  C   UNL     1       5.534  31.963  62.700  1.00  0.00     0.316 C 
HETATM   20  N   UNL     1       5.933  33.220  63.038  1.00  0.00    -0.339 N 
HETATM   21  O   UNL     1       4.987  31.179  63.467  1.00  0.00    -0.247 OA
HETATM   22  H   UNL     1       5.998  33.889  62.289  1.00  0.00     0.164 HD
HETATM   23  H   UNL     1       5.521  30.601  61.279  1.00  0.00     0.164 HD
BRANCH  20  24
HETATM   24  C   UNL     1       5.817  33.787  64.377  1.00  0.00     0.078 C 
HETATM   25  C   UNL     1       5.434  35.267  64.352  1.00  0.00     0.032 C 
HETATM   26  C   UNL     1       7.063  33.540  65.221  1.00  0.00     0.032 C 
ENDBRANCH  20  24
ENDBRANCH   1  18
BRANCH  12  27
HETATM   27  C   UNL     1       6.773  26.306  55.164  1.00  0.00     0.009 A 
HETATM   28  C   UNL     1       6.542  25.255  56.085  1.00  0.00     0.079 A 
HETATM   29  C   UNL     1       6.826  23.933  55.719  1.00  0.00     0.039 A 
HETATM   30  C   UNL     1       7.333  23.640  54.450  1.00  0.00     0.026 A 
HETATM   31  C   UNL     1       7.558  24.667  53.541  1.00  0.00     0.035 A 
HETATM   32 CL   UNL     1       8.187  24.306  51.983  1.00  0.00    -0.084 Cl
HETATM   33  C   UNL     1       7.281  25.988  53.889  1.00  0.00     0.039 A 
BRANCH  28  34
HETATM   34  O   UNL     1       6.067  25.624  57.319  1.00  0.00    -0.355 OA
HETATM   35  C   UNL     1       4.675  25.477  57.567  1.00  0.00     0.210 C 
ENDBRANCH  28  34
ENDBRANCH  12  27
TORSDOF 4
ENDMDL
MODEL 4
REMARK VINA RESULT:      -9.1      3.651      5.832
REMARK  4 active torsions:
REMARK  status: ('A' for Active; 'I' for Inactive)
REMARK    1  A    between atoms: C_2  and  N_3 
REMARK       I    between atoms: N_3  and  C_4 
REMARK       I    between atoms: C_4  and  N_5 
REMARK    2  A    between atoms: N_5  and  C_6 
REMARK    3  A    between atoms: C_17  and  C_18 
REMARK    4  A    between atoms: C_19  and  O_20 
ROOT
HETATM    1  C   UNL     1       7.071  28.656  57.433  1.00  0.00     0.120 C 
HETATM    2  C   UNL     1       6.530  27.832  56.246  1.00  0.00     0.202 C 
HETATM    3  N   UNL     1       5.216  28.389  55.981  1.00  0.00    -0.332 N 
HETATM    4  C   UNL     1       4.477  28.173  54.850  1.00  0.00     0.257 C 
HETATM    5  O   UNL     1       3.413  28.747  54.634  1.00  0.00    -0.267 OA
HETATM    6  C   UNL     1       4.998  27.212  53.848  1.00  0.00     0.059 A 
HETATM    7  C   UNL     1       5.576  25.975  54.180  1.00  0.00     0.050 A 
HETATM    8  N   UNL     1       5.924  25.556  55.481  1.00  0.00    -0.324 N 
HETATM    9  C   UNL     1       6.347  26.341  56.532  1.00  0.00     0.247 C 
HETATM   10  O   UNL     1       6.672  25.805  57.591  1.00  0.00    -0.271 OA
HETATM   11  C   UNL     1       4.759  27.542  52.504  1.00  0.00     0.031 A 
HETATM   12  C   UNL     1       5.088  26.662  51.464  1.00  0.00    -0.022 A 
HETATM   13  C   UNL     1       5.605  25.407  51.812  1.00  0.00     0.014 A 
HETATM   14  C   UNL     1       5.832  25.062  53.150  1.00  0.00     0.031 A 
HETATM   15  C   UNL     1       4.721  29.146  57.109  1.00  0.00     0.129 C 
HETATM   16  C   UNL     1       5.971  29.676  57.779  1.00  0.00     0.048 C 
HETATM   17  H   UNL     1       6.066  24.567  55.649  1.00  0.00     0.169 HD
ENDROOT
BRANCH   1  18
HETATM   18  N   UNL     1       8.353  29.325  57.172  1.00  0.00    -0.336 N 
HETATM   19  C   UNL     1       9.159  30.074  57.970  1.00  0.00     0.316 C 
HETATM   20  N   UNL     1       8.761  30.225  59.263  1.00  0.00    -0.339 N 
HETATM   21  O   UNL     1      10.146  30.610  57.481  1.00  0.00    -0.247 OA
HETATM   22  H   UNL     1       8.211  29.478  59.656  1.00  0.00     0.164 HD
HETATM   23  H   UNL     1       8.710  29.280  56.225  1.00  0.00     0.164 HD
BRANCH  20  24
HETATM   24  C   UNL     1       9.421  31.093  60.231  1.00  0.00     0.078 C 
HETATM   25  C   UNL     1       9.458  30.483  61.632  1.00  0.00     0.032 C 
HETATM   26  C   UNL     1       8.834  32.500  60.242  1.00  0.00     0.032 C 
ENDBRANCH  20  24
ENDBRANCH   1  18
BRANCH  12  27
HETATM   27  C   UNL     1       4.886  27.057  50.056  1.00  0.00     0.009 A 
HETATM   28  C   UNL     1       5.359  28.291  49.545  1.00  0.00     0.079 A 
HETATM   29  C   UNL     1       5.106  28.636  48.211  1.00  0.00     0.039 A 
HETATM   30  C   UNL     1       4.391  27.771  47.378  1.00  0.00     0.026 A 
HETATM   31  C   UNL     1       3.928  26.558  47.873  1.00  0.00     0.035 A 
HETATM   32 CL   UNL     1       3.045  25.498  46.847  1.00  0.00    -0.084 Cl
HETATM   33  C   UNL     1       4.172  26.200  49.197  1.00  0.00     0.039 A 
BRANCH  28  34
HETATM   34  O   UNL     1       6.030  29.097  50.431  1.00  0.00    -0.355 OA
HETATM   35  C   UNL     1       5.710  30.481  50.446  1.00  0.00     0.210 C 
ENDBRANCH  28  34
ENDBRANCH  12  27
TORSDOF 4
ENDMDL
MODEL 5
REMARK VINA RESULT:      -8.7      2.895      3.742
REMARK  4 active torsions:
REMARK  status: ('A' for Active; 'I' for Inactive)
REMARK    1  A    between atoms: C_2  and  N_3 
REMARK       I    between atoms: N_3  and  C_4 
REMARK       I    between atoms: C_4  and  N_5 
REMARK    2  A    between atoms: N_5  and  C_6 
REMARK    3  A    between atoms: C_17  and  C_18 
REMARK    4  A    between atoms: C_19  and  O_20 
ROOT
HETATM    1  C   UNL     1       5.000  30.723  57.474  1.00  0.00     0.120 C 
HETATM    2  C   UNL     1       5.392  29.632  56.456  1.00  0.00     0.202 C 
HETATM    3  N   UNL     1       6.834  29.519  56.575  1.00  0.00    -0.332 N 
HETATM    4  C   UNL     1       7.593  28.494  56.080  1.00  0.00     0.257 C 
HETATM    5  O   UNL     1       8.798  28.399  56.294  1.00  0.00    -0.267 OA
HETATM    6  C   UNL     1       6.918  27.458  55.262  1.00  0.00     0.059 A 
HETATM    7  C   UNL     1       5.956  27.743  54.279  1.00  0.00     0.050 A 
HETATM    8  N   UNL     1       5.354  29.001  54.061  1.00  0.00    -0.324 N 
HETATM    9  C   UNL     1       5.077  29.972  54.999  1.00  0.00     0.247 C 
HETATM   10  O   UNL     1       4.488  30.994  54.650  1.00  0.00    -0.271 OA
HETATM   11  C   UNL     1       7.394  26.146  55.424  1.00  0.00     0.031 A 
HETATM   12  C   UNL     1       6.930  25.094  54.623  1.00  0.00    -0.022 A 
HETATM   13  C   UNL     1       6.018  25.404  53.605  1.00  0.00     0.014 A 
HETATM   14  C   UNL     1       5.549  26.710  53.425  1.00  0.00     0.031 A 
HETATM   15  C   UNL     1       7.408  30.682  57.214  1.00  0.00     0.129 C 
HETATM   16  C   UNL     1       6.313  31.180  58.134  1.00  0.00     0.048 C 
HETATM   17  H   UNL     1       4.898  29.171  53.173  1.00  0.00     0.169 HD
ENDROOT
BRANCH   1  18
HETATM   18  N   UNL     1       4.021  30.290  58.480  1.00  0.00    -0.336 N 
HETATM   19  C   UNL     1       3.319  30.984  59.413  1.00  0.00     0.316 C 
HETATM   20  N   UNL     1       3.498  32.334  59.427  1.00  0.00    -0.339 N 
HETATM   21  O   UNL     1       2.624  30.369  60.213  1.00  0.00    -0.247 OA
HETATM   22  H   UNL     1       3.739  32.765  58.549  1.00  0.00     0.164 HD
HETATM   23  H   UNL     1       3.846  29.294  58.552  1.00  0.00     0.164 HD
BRANCH  20  24
HETATM   24  C   UNL     1       2.934  33.228  60.431  1.00  0.00     0.078 C 
HETATM   25  C   UNL     1       2.570  34.596  59.855  1.00  0.00     0.032 C 
HETATM   26  C   UNL     1       3.825  33.352  61.662  1.00  0.00     0.032 C 
ENDBRANCH  20  24
ENDBRANCH   1  18
BRANCH  12  27
HETATM   27  C   UNL     1       7.398  23.714  54.855  1.00  0.00     0.009 A 
HETATM   28  C   UNL     1       7.776  23.252  56.139  1.00  0.00     0.079 A 
HETATM   29  C   UNL     1       8.251  21.944  56.299  1.00  0.00     0.039 A 
HETATM   30  C   UNL     1       8.356  21.088  55.199  1.00  0.00     0.026 A 
HETATM   31  C   UNL     1       7.983  21.534  53.937  1.00  0.00     0.035 A 
HETATM   32 CL   UNL     1       8.117  20.481  52.584  1.00  0.00    -0.084 Cl
HETATM   33  C   UNL     1       7.508  22.832  53.762  1.00  0.00     0.039 A 
BRANCH  28  34
HETATM   34  O   UNL     1       7.669  24.158  57.165  1.00  0.00    -0.355 OA
HETATM   35  C   UNL     1       8.835  24.442  57.927  1.00  0.00     0.210 C 
ENDBRANCH  28  34
ENDBRANCH  12  27
TORSDOF 4
ENDMDL
MODEL 6
REMARK VINA RESULT:      -8.5      3.960      6.297
REMARK  4 active torsions:
REMARK  status: ('A' for Active; 'I' for Inactive)
REMARK    1  A    between atoms: C_2  and  N_3 
REMARK       I    between atoms: N_3  and  C_4 
REMARK       I    between atoms: C_4  and  N_5 
REMARK    2  A    between atoms: N_5  and  C_6 
REMARK    3  A    between atoms: C_17  and  C_18 
REMARK    4  A    between atoms: C_19  and  O_20 
ROOT
HETATM    1  C   UNL     1       7.839  28.085  57.091  1.00  0.00     0.120 C 
HETATM    2  C   UNL     1       7.266  27.480  55.792  1.00  0.00     0.202 C 
HETATM    3  N   UNL     1       5.863  27.849  55.802  1.00  0.00    -0.332 N 
HETATM    4  C   UNL     1       5.017  27.779  54.728  1.00  0.00     0.257 C 
HETATM    5  O   UNL     1       3.863  28.197  54.766  1.00  0.00    -0.267 OA
HETATM    6  C   UNL     1       5.531  27.182  53.472  1.00  0.00     0.059 A 
HETATM    7  C   UNL     1       6.320  26.021  53.425  1.00  0.00     0.050 A 
HETATM    8  N   UNL     1       6.895  25.375  54.540  1.00  0.00    -0.324 N 
HETATM    9  C   UNL     1       7.339  25.955  55.709  1.00  0.00     0.247 C 
HETATM   10  O   UNL     1       7.877  25.251  56.563  1.00  0.00    -0.271 OA
HETATM   11  C   UNL     1       5.069  27.771  52.283  1.00  0.00     0.031 A 
HETATM   12  C   UNL     1       5.378  27.227  51.029  1.00  0.00    -0.022 A 
HETATM   13  C   UNL     1       6.112  26.033  50.999  1.00  0.00     0.014 A 
HETATM   14  C   UNL     1       6.563  25.431  52.179  1.00  0.00     0.031 A 
HETATM   15  C   UNL     1       5.420  28.226  57.125  1.00  0.00     0.129 C 
HETATM   16  C   UNL     1       6.661  28.792  57.785  1.00  0.00     0.048 C 
HETATM   17  H   UNL     1       7.199  24.414  54.439  1.00  0.00     0.169 HD
ENDROOT
BRANCH   1  18
HETATM   18  N   UNL     1       8.965  29.006  56.885  1.00  0.00    -0.336 N 
HETATM   19  C   UNL     1       9.526  29.940  57.697  1.00  0.00     0.316 C 
HETATM   20  N   UNL     1       9.003  30.049  58.949  1.00  0.00    -0.339 N 
HETATM   21  O   UNL     1      10.411  30.660  57.251  1.00  0.00    -0.247 OA
HETATM   22  H   UNL     1       8.595  29.215  59.342  1.00  0.00     0.164 HD
HETATM   23  H   UNL     1       9.398  29.005  55.969  1.00  0.00     0.164 HD
BRANCH  20  24
HETATM   24  C   UNL     1       9.383  31.074  59.914  1.00  0.00     0.078 C 
HETATM   25  C   UNL     1       9.385  30.552  61.350  1.00  0.00     0.032 C 
HETATM   26  C   UNL     1       8.544  32.340  59.774  1.00  0.00     0.032 C 
ENDBRANCH  20  24
ENDBRANCH   1  18
BRANCH  12  27
HETATM   27  C   UNL     1       4.935  27.899  49.792  1.00  0.00     0.009 A 
HETATM   28  C   UNL     1       4.200  27.221  48.788  1.00  0.00     0.079 A 
HETATM   29  C   UNL     1       3.838  27.895  47.615  1.00  0.00     0.039 A 
HETATM   30  C   UNL     1       4.193  29.233  47.425  1.00  0.00     0.026 A 
HETATM   31  C   UNL     1       4.911  29.903  48.408  1.00  0.00     0.035 A 
HETATM   32 CL   UNL     1       5.353  31.548  48.171  1.00  0.00    -0.084 Cl
HETATM   33  C   UNL     1       5.279  29.248  49.581  1.00  0.00     0.039 A 
BRANCH  28  34
HETATM   34  O   UNL     1       3.910  25.902  49.035  1.00  0.00    -0.355 OA
HETATM   35  C   UNL     1       3.145  25.196  48.067  1.00  0.00     0.210 C 
ENDBRANCH  28  34
ENDBRANCH  12  27
TORSDOF 4
ENDMDL
MODEL 7
REMARK VINA RESULT:      -8.4      3.236      5.292
REMARK  4 active torsions:
REMARK  status: ('A' for Active; 'I' for Inactive)
REMARK    1  A    between atoms: C_2  and  N_3 
REMARK       I    between atoms: N_3  and  C_4 
REMARK       I    between atoms: C_4  and  N_5 
REMARK    2  A    between atoms: N_5  and  C_6 
REMARK    3  A    between atoms: C_17  and  C_18 
REMARK    4  A    between atoms: C_19  and  O_20 
ROOT
HETATM    1  C   UNL     1       4.779  32.326  55.837  1.00  0.00     0.120 C 
HETATM    2  C   UNL     1       5.496  31.020  56.239  1.00  0.00     0.202 C 
HETATM    3  N   UNL     1       4.425  30.059  56.434  1.00  0.00    -0.332 N 
HETATM    4  C   UNL     1       4.584  28.703  56.522  1.00  0.00     0.257 C 
HETATM    5  O   UNL     1       3.635  27.928  56.589  1.00  0.00    -0.267 OA
HETATM    6  C   UNL     1       5.964  28.160  56.525  1.00  0.00     0.059 A 
HETATM    7  C   UNL     1       7.024  28.726  57.252  1.00  0.00     0.050 A 
HETATM    8  N   UNL     1       6.992  29.973  57.912  1.00  0.00    -0.324 N 
HETATM    9  C   UNL     1       6.286  31.099  57.545  1.00  0.00     0.247 C 
HETATM   10  O   UNL     1       6.418  32.132  58.200  1.00  0.00    -0.271 OA
HETATM   11  C   UNL     1       6.141  26.938  55.854  1.00  0.00     0.031 A 
HETATM   12  C   UNL     1       7.364  26.256  55.887  1.00  0.00    -0.022 A 
HETATM   13  C   UNL     1       8.393  26.799  56.667  1.00  0.00     0.014 A 
HETATM   14  C   UNL     1       8.222  28.008  57.352  1.00  0.00     0.031 A 
HETATM   15  C   UNL     1       3.150  30.713  56.618  1.00  0.00     0.129 C 
HETATM   16  C   UNL     1       3.275  32.001  55.832  1.00  0.00     0.048 C 
HETATM   17  H   UNL     1       7.685  30.161  58.626  1.00  0.00     0.169 HD
ENDROOT
BRANCH   1  18
HETATM   18  N   UNL     1       5.207  32.880  54.545  1.00  0.00    -0.336 N 
HETATM   19  C   UNL     1       5.459  34.155  54.149  1.00  0.00     0.316 C 
HETATM   20  N   UNL     1       5.340  35.120  55.101  1.00  0.00    -0.339 N 
HETATM   21  O   UNL     1       5.715  34.371  52.971  1.00  0.00    -0.247 OA
HETATM   22  H   UNL     1       5.519  34.840  56.052  1.00  0.00     0.164 HD
HETATM   23  H   UNL     1       5.298  32.229  53.773  1.00  0.00     0.164 HD
BRANCH  20  24
HETATM   24  C   UNL     1       5.444  36.551  54.840  1.00  0.00     0.078 C 
HETATM   25  C   UNL     1       6.894  37.023  54.740  1.00  0.00     0.032 C 
HETATM   26  C   UNL     1       4.647  37.382  55.840  1.00  0.00     0.032 C 
ENDBRANCH  20  24
ENDBRANCH   1  18
BRANCH  12  27
HETATM   27  C   UNL     1       7.545  25.006  55.122  1.00  0.00     0.009 A 
HETATM   28  C   UNL     1       7.695  25.000  53.714  1.00  0.00     0.079 A 
HETATM   29  C   UNL     1       7.823  23.783  53.031  1.00  0.00     0.039 A 
HETATM   30  C   UNL     1       7.806  22.572  53.729  1.00  0.00     0.026 A 
HETATM   31  C   UNL     1       7.663  22.573  55.112  1.00  0.00     0.035 A 
HETATM   32 CL   UNL     1       7.637  21.082  55.968  1.00  0.00    -0.084 Cl
HETATM   33  C   UNL     1       7.534  23.774  55.805  1.00  0.00     0.039 A 
BRANCH  28  34
HETATM   34  O   UNL     1       7.677  26.226  53.097  1.00  0.00    -0.355 OA
HETATM   35  C   UNL     1       6.602  26.510  52.211  1.00  0.00     0.210 C 
ENDBRANCH  28  34
ENDBRANCH  12  27
TORSDOF 4
ENDMDL
MODEL 8
REMARK VINA RESULT:      -8.4      4.581      7.777
REMARK  4 active torsions:
REMARK  status: ('A' for Active; 'I' for Inactive)
REMARK    1  A    between atoms: C_2  and  N_3 
REMARK       I    between atoms: N_3  and  C_4 
REMARK       I    between atoms: C_4  and  N_5 
REMARK    2  A    between atoms: N_5  and  C_6 
REMARK    3  A    between atoms: C_17  and  C_18 
REMARK    4  A    between atoms: C_19  and  O_20 
ROOT
HETATM    1  C   UNL     1       5.328  36.942  63.007  1.00  0.00     0.120 C 
HETATM    2  C   UNL     1       5.776  35.490  62.732  1.00  0.00     0.202 C 
HETATM    3  N   UNL     1       4.726  34.933  61.898  1.00  0.00    -0.332 N 
HETATM    4  C   UNL     1       4.818  33.775  61.176  1.00  0.00     0.257 C 
HETATM    5  O   UNL     1       3.935  33.400  60.410  1.00  0.00    -0.267 OA
HETATM    6  C   UNL     1       6.044  32.954  61.327  1.00  0.00     0.059 A 
HETATM    7  C   UNL     1       6.664  32.696  62.561  1.00  0.00     0.050 A 
HETATM    8  N   UNL     1       6.346  33.322  63.784  1.00  0.00    -0.324 N 
HETATM    9  C   UNL     1       5.890  34.609  63.976  1.00  0.00     0.247 C 
HETATM   10  O   UNL     1       5.719  35.022  65.122  1.00  0.00    -0.271 OA
HETATM   11  C   UNL     1       6.496  32.313  60.161  1.00  0.00     0.031 A 
HETATM   12  C   UNL     1       7.568  31.410  60.191  1.00  0.00    -0.022 A 
HETATM   13  C   UNL     1       8.136  31.114  61.437  1.00  0.00     0.014 A 
HETATM   14  C   UNL     1       7.682  31.736  62.606  1.00  0.00     0.031 A 
HETATM   15  C   UNL     1       3.509  35.709  61.984  1.00  0.00     0.129 C 
HETATM   16  C   UNL     1       3.986  37.118  62.274  1.00  0.00     0.048 C 
HETATM   17  H   UNL     1       6.643  32.879  64.646  1.00  0.00     0.169 HD
ENDROOT
BRANCH   1  18
HETATM   18  N   UNL     1       6.298  37.964  62.593  1.00  0.00    -0.336 N 
HETATM   19  C   UNL     1       6.705  39.115  63.189  1.00  0.00     0.316 C 
HETATM   20  N   UNL     1       6.167  39.389  64.409  1.00  0.00    -0.339 N 
HETATM   21  O   UNL     1       7.469  39.858  62.585  1.00  0.00    -0.247 OA
HETATM   22  H   UNL     1       5.893  38.598  64.969  1.00  0.00     0.164 HD
HETATM   23  H   UNL     1       6.729  37.847  61.683  1.00  0.00     0.164 HD
BRANCH  20  24
HETATM   24  C   UNL     1       6.381  40.632  65.142  1.00  0.00     0.078 C 
HETATM   25  C   UNL     1       6.110  40.481  66.639  1.00  0.00     0.032 C 
HETATM   26  C   UNL     1       5.604  41.799  64.542  1.00  0.00     0.032 C 
ENDBRANCH  20  24
ENDBRANCH   1  18
BRANCH  12  27
HETATM   27  C   UNL     1       8.065  30.798  58.944  1.00  0.00     0.009 A 
HETATM   28  C   UNL     1       7.190  30.284  57.956  1.00  0.00     0.079 A 
HETATM   29  C   UNL     1       7.715  29.677  56.807  1.00  0.00     0.039 A 
HETATM   30  C   UNL     1       9.097  29.575  56.626  1.00  0.00     0.026 A 
HETATM   31  C   UNL     1       9.960  30.080  57.591  1.00  0.00     0.035 A 
HETATM   32 CL   UNL     1      11.660  29.949  57.370  1.00  0.00    -0.084 Cl
HETATM   33  C   UNL     1       9.455  30.687  58.739  1.00  0.00     0.039 A 
BRANCH  28  34
HETATM   34  O   UNL     1       5.847  30.399  58.216  1.00  0.00    -0.355 OA
HETATM   35  C   UNL     1       4.945  29.683  57.384  1.00  0.00     0.210 C 
ENDBRANCH  28  34
ENDBRANCH  12  27
TORSDOF 4
ENDMDL
MODEL 9
REMARK VINA RESULT:      -8.3      5.901      8.340
REMARK  4 active torsions:
REMARK  status: ('A' for Active; 'I' for Inactive)
REMARK    1  A    between atoms: C_2  and  N_3 
REMARK       I    between atoms: N_3  and  C_4 
REMARK       I    between atoms: C_4  and  N_5 
REMARK    2  A    between atoms: N_5  and  C_6 
REMARK    3  A    between atoms: C_17  and  C_18 
REMARK    4  A    between atoms: C_19  and  O_20 
ROOT
HETATM    1  C   UNL     1       4.531  29.628  49.377  1.00  0.00     0.120 C 
HETATM    2  C   UNL     1       4.571  28.660  50.578  1.00  0.00     0.202 C 
HETATM    3  N   UNL     1       4.299  27.353  50.007  1.00  0.00    -0.332 N 
HETATM    4  C   UNL     1       4.509  26.155  50.633  1.00  0.00     0.257 C 
HETATM    5  O   UNL     1       4.354  25.076  50.068  1.00  0.00    -0.267 OA
HETATM    6  C   UNL     1       4.950  26.175  52.048  1.00  0.00     0.059 A 
HETATM    7  C   UNL     1       4.416  27.037  53.021  1.00  0.00     0.050 A 
HETATM    8  N   UNL     1       3.549  28.120  52.768  1.00  0.00    -0.324 N 
HETATM    9  C   UNL     1       3.511  28.922  51.648  1.00  0.00     0.247 C 
HETATM   10  O   UNL     1       2.728  29.871  51.613  1.00  0.00    -0.271 OA
HETATM   11  C   UNL     1       5.860  25.170  52.418  1.00  0.00     0.031 A 
HETATM   12  C   UNL     1       6.261  24.999  53.750  1.00  0.00    -0.022 A 
HETATM   13  C   UNL     1       5.673  25.824  54.718  1.00  0.00     0.014 A 
HETATM   14  C   UNL     1       4.754  26.818  54.362  1.00  0.00     0.031 A 
HETATM   15  C   UNL     1       3.685  27.460  48.703  1.00  0.00     0.129 C 
HETATM   16  C   UNL     1       4.223  28.761  48.143  1.00  0.00     0.048 C 
HETATM   17  H   UNL     1       3.007  28.495  53.538  1.00  0.00     0.169 HD
ENDROOT
BRANCH   1  18
HETATM   18  N   UNL     1       5.762  30.407  49.185  1.00  0.00    -0.336 N 
HETATM   19  C   UNL     1       6.145  31.620  49.662  1.00  0.00     0.316 C 
HETATM   20  N   UNL     1       5.275  32.243  50.503  1.00  0.00    -0.339 N 
HETATM   21  O   UNL     1       7.200  32.105  49.272  1.00  0.00    -0.247 OA
HETATM   22  H   UNL     1       4.674  31.649  51.053  1.00  0.00     0.164 HD
HETATM   23  H   UNL     1       6.455  30.023  48.552  1.00  0.00     0.164 HD
BRANCH  20  24
HETATM   24  C   UNL     1       5.450  33.598  51.012  1.00  0.00     0.078 C 
HETATM   25  C   UNL     1       4.995  33.740  52.464  1.00  0.00     0.032 C 
HETATM   26  C   UNL     1       4.800  34.644  50.112  1.00  0.00     0.032 C 
ENDBRANCH  20  24
ENDBRANCH   1  18
BRANCH  12  27
HETATM   27  C   UNL     1       7.266  23.978  54.104  1.00  0.00     0.009 A 
HETATM   28  C   UNL     1       8.157  24.144  55.192  1.00  0.00     0.079 A 
HETATM   29  C   UNL     1       9.119  23.162  55.462  1.00  0.00     0.039 A 
HETATM   30  C   UNL     1       9.207  22.017  54.666  1.00  0.00     0.026 A 
HETATM   31  C   UNL     1       8.332  21.847  53.599  1.00  0.00     0.035 A 
HETATM   32 CL   UNL     1       8.445  20.440  52.618  1.00  0.00    -0.084 Cl
HETATM   33  C   UNL     1       7.370  22.814  53.318  1.00  0.00     0.039 A 
BRANCH  28  34
HETATM   34  O   UNL     1       8.026  25.305  55.912  1.00  0.00    -0.355 OA
HETATM   35  C   UNL     1       8.423  25.291  57.277  1.00  0.00     0.210 C 
ENDBRANCH  28  34
ENDBRANCH  12  27
TORSDOF 4
ENDMDL
MODEL 10
REMARK VINA RESULT:      -7.8      5.944     10.280
REMARK  4 active torsions:
REMARK  status: ('A' for Active; 'I' for Inactive)
REMARK    1  A    between atoms: C_2  and  N_3 
REMARK       I    between atoms: N_3  and  C_4 
REMARK       I    between atoms: C_4  and  N_5 
REMARK    2  A    between atoms: N_5  and  C_6 
REMARK    3  A    between atoms: C_17  and  C_18 
REMARK    4  A    between atoms: C_19  and  O_20 
ROOT
HETATM    1  C   UNL     1       7.225  31.375  62.457  1.00  0.00     0.120 C 
HETATM    2  C   UNL     1       5.995  32.260  62.164  1.00  0.00     0.202 C 
HETATM    3  N   UNL     1       6.269  33.510  62.850  1.00  0.00    -0.332 N 
HETATM    4  C   UNL     1       5.603  34.688  62.647  1.00  0.00     0.257 C 
HETATM    5  O   UNL     1       5.939  35.739  63.183  1.00  0.00    -0.267 OA
HETATM    6  C   UNL     1       4.435  34.681  61.733  1.00  0.00     0.059 A 
HETATM    7  C   UNL     1       3.458  33.672  61.721  1.00  0.00     0.050 A 
HETATM    8  N   UNL     1       3.538  32.446  62.414  1.00  0.00    -0.324 N 
HETATM    9  C   UNL     1       4.672  31.719  62.706  1.00  0.00     0.247 C 
HETATM   10  O   UNL     1       4.560  30.630  63.268  1.00  0.00    -0.271 OA
HETATM   11  C   UNL     1       4.271  35.833  60.945  1.00  0.00     0.031 A 
HETATM   12  C   UNL     1       3.142  36.009  60.132  1.00  0.00    -0.022 A 
HETATM   13  C   UNL     1       2.146  35.025  60.179  1.00  0.00     0.014 A 
HETATM   14  C   UNL     1       2.294  33.881  60.972  1.00  0.00     0.031 A 
HETATM   15  C   UNL     1       7.290  33.350  63.860  1.00  0.00     0.129 C 
HETATM   16  C   UNL     1       8.160  32.226  63.336  1.00  0.00     0.048 C 
HETATM   17  H   UNL     1       2.685  31.922  62.570  1.00  0.00     0.169 HD
ENDROOT
BRANCH   1  18
HETATM   18  N   UNL     1       7.920  30.886  61.259  1.00  0.00    -0.336 N 
HETATM   19  C   UNL     1       7.613  30.978  59.938  1.00  0.00     0.316 C 
HETATM   20  N   UNL     1       6.486  31.673  59.624  1.00  0.00    -0.339 N 
HETATM   21  O   UNL     1       8.318  30.394  59.124  1.00  0.00    -0.247 OA
HETATM   22  H   UNL     1       6.217  32.408  60.259  1.00  0.00     0.164 HD
HETATM   23  H   UNL     1       8.759  30.337  61.406  1.00  0.00     0.164 HD
BRANCH  20  24
HETATM   24  C   UNL     1       5.927  31.771  58.281  1.00  0.00     0.078 C 
HETATM   25  C   UNL     1       4.907  32.902  58.153  1.00  0.00     0.032 C 
HETATM   26  C   UNL     1       5.361  30.442  57.791  1.00  0.00     0.032 C 
ENDBRANCH  20  24
ENDBRANCH   1  18
BRANCH  12  27
HETATM   27  C   UNL     1       3.022  37.198  59.266  1.00  0.00     0.009 A 
HETATM   28  C   UNL     1       3.728  37.313  58.044  1.00  0.00     0.079 A 
HETATM   29  C   UNL     1       3.610  38.480  57.278  1.00  0.00     0.039 A 
HETATM   30  C   UNL     1       2.799  39.533  57.709  1.00  0.00     0.026 A 
HETATM   31  C   UNL     1       2.101  39.424  58.905  1.00  0.00     0.035 A 
HETATM   32 CL   UNL     1       1.107  40.722  59.437  1.00  0.00    -0.084 Cl
HETATM   33  C   UNL     1       2.207  38.270  59.679  1.00  0.00     0.039 A 
BRANCH  28  34
HETATM   34  O   UNL     1       4.524  36.249  57.700  1.00  0.00    -0.355 OA
HETATM   35  C   UNL     1       4.852  36.079  56.327  1.00  0.00     0.210 C 
ENDBRANCH  28  34
ENDBRANCH  12  27
TORSDOF 4
ENDMDL
