MODEL 1
REMARK VINA RESULT:      -9.4      0.000      0.000
REMARK  2 active torsions:
REMARK  status: ('A' for Active; 'I' for Inactive)
REMARK    1  A    between atoms: C_6  and  N_7 
REMARK    2  A    between atoms: N_7  and  C_8 
ROOT
HETATM    1  C   UNL     1       7.473  27.247  57.625  1.00  0.00     0.093 C 
HETATM    2  C   UNL     1       7.584  26.089  56.682  1.00  0.00     0.125 A 
HETATM    3  N   UNL     1       7.848  24.891  57.210  1.00  0.00    -0.226 NA
HETATM    4  C   UNL     1       7.936  23.922  56.286  1.00  0.00     0.114 A 
HETATM    5  C   UNL     1       7.782  24.070  54.907  1.00  0.00     0.053 A 
HETATM    6  C   UNL     1       7.510  25.377  54.449  1.00  0.00     0.143 A 
HETATM    7  N   UNL     1       7.414  26.362  55.375  1.00  0.00    -0.215 NA
HETATM    8  S   UNL     1       8.274  22.302  56.764  1.00  0.00    -0.073 SA
HETATM    9  C   UNL     1       8.206  21.800  55.173  1.00  0.00    -0.008 A 
HETATM   10  C   UNL     1       7.938  22.800  54.279  1.00  0.00    -0.028 A 
HETATM   11  C   UNL     1       7.883  22.263  52.895  1.00  0.00     0.041 C 
HETATM   12  C   UNL     1       7.817  20.722  53.133  1.00  0.00     0.010 C 
HETATM   13  C   UNL     1       8.378  20.462  54.562  1.00  0.00     0.047 C 
ENDROOT
BRANCH   6  14
HETATM   14  N   UNL     1       7.388  25.661  53.080  1.00  0.00    -0.340 N 
HETATM   15  H   UNL     1       8.119  25.254  52.515  1.00  0.00     0.167 HD
BRANCH  14  16
HETATM   16  C   UNL     1       6.469  26.448  52.364  1.00  0.00     0.036 A 
HETATM   17  C   UNL     1       5.889  25.916  51.200  1.00  0.00     0.069 A 
HETATM   18  C   UNL     1       4.997  26.665  50.432  1.00  0.00     0.104 A 
HETATM   19  C   UNL     1       4.688  27.976  50.798  1.00  0.00     0.102 A 
HETATM   20  O   UNL     1       4.475  26.053  49.321  1.00  0.00    -0.346 OA
HETATM   21  O   UNL     1       3.850  28.784  50.074  1.00  0.00    -0.346 OA
HETATM   22  C   UNL     1       5.240  28.517  51.953  1.00  0.00     0.042 A 
HETATM   23  C   UNL     1       3.650  28.268  48.754  1.00  0.00     0.202 C 
HETATM   24  C   UNL     1       3.354  26.778  48.801  1.00  0.00     0.202 C 
HETATM   25  C   UNL     1       6.130  27.759  52.723  1.00  0.00     0.032 A 
ENDBRANCH  14  16
ENDBRANCH   6  14
TORSDOF 2
ENDMDL
MODEL 2
REMARK VINA RESULT:      -9.3      3.569      7.351
REMARK  2 active torsions:
REMARK  status: ('A' for Active; 'I' for Inactive)
REMARK    1  A    between atoms: C_6  and  N_7 
REMARK    2  A    between atoms: N_7  and  C_8 
ROOT
HETATM    1  C   UNL     1       4.719  26.585  49.517  1.00  0.00     0.093 C 
HETATM    2  C   UNL     1       5.106  26.841  50.941  1.00  0.00     0.125 A 
HETATM    3  N   UNL     1       4.402  27.755  51.614  1.00  0.00    -0.226 NA
HETATM    4  C   UNL     1       4.828  27.917  52.876  1.00  0.00     0.114 A 
HETATM    5  C   UNL     1       5.885  27.243  53.490  1.00  0.00     0.053 A 
HETATM    6  C   UNL     1       6.570  26.302  52.692  1.00  0.00     0.143 A 
HETATM    7  N   UNL     1       6.143  26.127  51.418  1.00  0.00    -0.215 NA
HETATM    8  S   UNL     1       4.052  29.054  53.909  1.00  0.00    -0.073 SA
HETATM    9  C   UNL     1       5.088  28.655  55.156  1.00  0.00    -0.008 A 
HETATM   10  C   UNL     1       6.008  27.694  54.836  1.00  0.00    -0.028 A 
HETATM   11  C   UNL     1       6.877  27.393  56.003  1.00  0.00     0.041 C 
HETATM   12  C   UNL     1       6.110  28.075  57.180  1.00  0.00     0.010 C 
HETATM   13  C   UNL     1       5.181  29.153  56.548  1.00  0.00     0.047 C 
ENDROOT
BRANCH   6  14
HETATM   14  N   UNL     1       7.683  25.601  53.182  1.00  0.00    -0.340 N 
HETATM   15  H   UNL     1       8.527  26.153  53.211  1.00  0.00     0.167 HD
BRANCH  14  16
HETATM   16  C   UNL     1       7.846  24.264  53.583  1.00  0.00     0.036 A 
HETATM   17  C   UNL     1       8.082  23.994  54.942  1.00  0.00     0.069 A 
HETATM   18  C   UNL     1       8.286  22.688  55.392  1.00  0.00     0.104 A 
HETATM   19  C   UNL     1       8.285  21.627  54.485  1.00  0.00     0.102 A 
HETATM   20  O   UNL     1       8.495  22.526  56.738  1.00  0.00    -0.346 OA
HETATM   21  O   UNL     1       8.514  20.325  54.847  1.00  0.00    -0.346 OA
HETATM   22  C   UNL     1       8.041  21.872  53.139  1.00  0.00     0.042 A 
HETATM   23  C   UNL     1       9.108  20.248  56.148  1.00  0.00     0.202 C 
HETATM   24  C   UNL     1       8.374  21.152  57.125  1.00  0.00     0.202 C 
HETATM   25  C   UNL     1       7.832  23.182  52.694  1.00  0.00     0.032 A 
ENDBRANCH  14  16
ENDBRANCH   6  14
TORSDOF 2
ENDMDL
MODEL 3
REMARK VINA RESULT:      -9.2      3.510      6.137
REMARK  2 active torsions:
REMARK  status: ('A' for Active; 'I' for Inactive)
REMARK    1  A    between atoms: C_6  and  N_7 
REMARK    2  A    between atoms: N_7  and  C_8 
ROOT
HETATM    1  C   UNL     1       4.985  26.697  50.628  1.00  0.00     0.093 C 
HETATM    2  C   UNL     1       5.517  26.104  51.896  1.00  0.00     0.125 A 
HETATM    3  N   UNL     1       6.300  25.027  51.788  1.00  0.00    -0.226 NA
HETATM    4  C   UNL     1       6.721  24.566  52.975  1.00  0.00     0.114 A 
HETATM    5  C   UNL     1       6.415  25.097  54.229  1.00  0.00     0.053 A 
HETATM    6  C   UNL     1       5.575  26.231  54.236  1.00  0.00     0.143 A 
HETATM    7  N   UNL     1       5.150  26.708  53.041  1.00  0.00    -0.215 NA
HETATM    8  S   UNL     1       7.739  23.180  53.052  1.00  0.00    -0.073 SA
HETATM    9  C   UNL     1       7.788  23.286  54.718  1.00  0.00    -0.008 A 
HETATM   10  C   UNL     1       7.065  24.326  55.236  1.00  0.00    -0.028 A 
HETATM   11  C   UNL     1       7.175  24.351  56.717  1.00  0.00     0.041 C 
HETATM   12  C   UNL     1       8.359  23.370  56.985  1.00  0.00     0.010 C 
HETATM   13  C   UNL     1       8.480  22.456  55.730  1.00  0.00     0.047 C 
ENDROOT
BRANCH   6  14
HETATM   14  N   UNL     1       5.155  26.822  55.438  1.00  0.00    -0.340 N 
HETATM   15  H   UNL     1       4.403  26.325  55.892  1.00  0.00     0.167 HD
BRANCH  14  16
HETATM   16  C   UNL     1       5.551  28.002  56.092  1.00  0.00     0.036 A 
HETATM   17  C   UNL     1       6.613  27.938  57.009  1.00  0.00     0.069 A 
HETATM   18  C   UNL     1       7.027  29.071  57.712  1.00  0.00     0.104 A 
HETATM   19  C   UNL     1       6.366  30.287  57.531  1.00  0.00     0.102 A 
HETATM   20  O   UNL     1       8.081  28.910  58.576  1.00  0.00    -0.346 OA
HETATM   21  O   UNL     1       6.692  31.432  58.212  1.00  0.00    -0.346 OA
HETATM   22  C   UNL     1       5.322  30.375  56.618  1.00  0.00     0.042 A 
HETATM   23  C   UNL     1       7.500  31.138  59.357  1.00  0.00     0.202 C 
HETATM   24  C   UNL     1       8.616  30.172  58.991  1.00  0.00     0.202 C 
HETATM   25  C   UNL     1       4.915  29.236  55.912  1.00  0.00     0.032 A 
ENDBRANCH  14  16
ENDBRANCH   6  14
TORSDOF 2
ENDMDL
MODEL 4
REMARK VINA RESULT:      -9.0      1.614      2.206
REMARK  2 active torsions:
REMARK  status: ('A' for Active; 'I' for Inactive)
REMARK    1  A    between atoms: C_6  and  N_7 
REMARK    2  A    between atoms: N_7  and  C_8 
ROOT
HETATM    1  C   UNL     1       5.371  27.931  57.019  1.00  0.00     0.093 C 
HETATM    2  C   UNL     1       5.927  26.787  56.229  1.00  0.00     0.125 A 
HETATM    3  N   UNL     1       6.925  26.089  56.779  1.00  0.00    -0.226 NA
HETATM    4  C   UNL     1       7.358  25.092  55.993  1.00  0.00     0.114 A 
HETATM    5  C   UNL     1       6.873  24.758  54.728  1.00  0.00     0.053 A 
HETATM    6  C   UNL     1       5.822  25.559  54.234  1.00  0.00     0.143 A 
HETATM    7  N   UNL     1       5.373  26.565  55.023  1.00  0.00    -0.215 NA
HETATM    8  S   UNL     1       8.645  24.076  56.520  1.00  0.00    -0.073 SA
HETATM    9  C   UNL     1       8.555  23.197  55.103  1.00  0.00    -0.008 A 
HETATM   10  C   UNL     1       7.592  23.632  54.233  1.00  0.00    -0.028 A 
HETATM   11  C   UNL     1       7.574  22.788  53.011  1.00  0.00     0.041 C 
HETATM   12  C   UNL     1       8.445  21.563  53.433  1.00  0.00     0.010 C 
HETATM   13  C   UNL     1       9.329  22.028  54.627  1.00  0.00     0.047 C 
ENDROOT
BRANCH   6  14
HETATM   14  N   UNL     1       5.287  25.354  52.953  1.00  0.00    -0.340 N 
HETATM   15  H   UNL     1       4.923  24.424  52.810  1.00  0.00     0.167 HD
BRANCH  14  16
HETATM   16  C   UNL     1       5.217  26.187  51.822  1.00  0.00     0.036 A 
HETATM   17  C   UNL     1       5.555  27.543  51.963  1.00  0.00     0.069 A 
HETATM   18  C   UNL     1       5.471  28.423  50.883  1.00  0.00     0.104 A 
HETATM   19  C   UNL     1       5.019  27.968  49.643  1.00  0.00     0.102 A 
HETATM   20  O   UNL     1       5.836  29.725  51.118  1.00  0.00    -0.346 OA
HETATM   21  O   UNL     1       4.876  28.780  48.548  1.00  0.00    -0.346 OA
HETATM   22  C   UNL     1       4.692  26.627  49.479  1.00  0.00     0.042 A 
HETATM   23  C   UNL     1       4.879  30.161  48.926  1.00  0.00     0.202 C 
HETATM   24  C   UNL     1       6.015  30.448  49.895  1.00  0.00     0.202 C 
HETATM   25  C   UNL     1       4.784  25.748  50.565  1.00  0.00     0.032 A 
ENDBRANCH  14  16
ENDBRANCH   6  14
TORSDOF 2
ENDMDL
MODEL 5
REMARK VINA RESULT:      -8.8      3.700      6.944
REMARK  2 active torsions:
REMARK  status: ('A' for Active; 'I' for Inactive)
REMARK    1  A    between atoms: C_6  and  N_7 
REMARK    2  A    between atoms: N_7  and  C_8 
ROOT
HETATM    1  C   UNL     1       7.817  22.270  54.815  1.00  0.00     0.093 C 
HETATM    2  C   UNL     1       7.083  23.554  54.577  1.00  0.00     0.125 A 
HETATM    3  N   UNL     1       6.694  23.816  53.327  1.00  0.00    -0.226 NA
HETATM    4  C   UNL     1       6.053  24.989  53.215  1.00  0.00     0.114 A 
HETATM    5  C   UNL     1       5.785  25.892  54.244  1.00  0.00     0.053 A 
HETATM    6  C   UNL     1       6.243  25.526  55.528  1.00  0.00     0.143 A 
HETATM    7  N   UNL     1       6.887  24.340  55.652  1.00  0.00    -0.215 NA
HETATM    8  S   UNL     1       5.472  25.512  51.680  1.00  0.00    -0.073 SA
HETATM    9  C   UNL     1       4.864  26.907  52.366  1.00  0.00    -0.008 A 
HETATM   10  C   UNL     1       5.076  27.009  53.714  1.00  0.00    -0.028 A 
HETATM   11  C   UNL     1       4.492  28.270  54.240  1.00  0.00     0.041 C 
HETATM   12  C   UNL     1       3.592  28.746  53.057  1.00  0.00     0.010 C 
HETATM   13  C   UNL     1       4.130  28.048  51.773  1.00  0.00     0.047 C 
ENDROOT
BRANCH   6  14
HETATM   14  N   UNL     1       6.080  26.377  56.632  1.00  0.00    -0.340 N 
HETATM   15  H   UNL     1       5.351  26.084  57.264  1.00  0.00     0.167 HD
BRANCH  14  16
HETATM   16  C   UNL     1       6.707  27.585  56.985  1.00  0.00     0.036 A 
HETATM   17  C   UNL     1       8.100  27.689  56.835  1.00  0.00     0.069 A 
HETATM   18  C   UNL     1       8.780  28.852  57.201  1.00  0.00     0.104 A 
HETATM   19  C   UNL     1       8.081  29.926  57.753  1.00  0.00     0.102 A 
HETATM   20  O   UNL     1      10.138  28.860  57.004  1.00  0.00    -0.346 OA
HETATM   21  O   UNL     1       8.684  31.085  58.169  1.00  0.00    -0.346 OA
HETATM   22  C   UNL     1       6.701  29.849  57.897  1.00  0.00     0.042 A 
HETATM   23  C   UNL     1      10.097  30.906  58.317  1.00  0.00     0.202 C 
HETATM   24  C   UNL     1      10.674  30.184  57.110  1.00  0.00     0.202 C 
HETATM   25  C   UNL     1       6.024  28.683  57.523  1.00  0.00     0.032 A 
ENDBRANCH  14  16
ENDBRANCH   6  14
TORSDOF 2
ENDMDL
MODEL 6
REMARK VINA RESULT:      -8.8      1.432      3.622
REMARK  2 active torsions:
REMARK  status: ('A' for Active; 'I' for Inactive)
REMARK    1  A    between atoms: C_6  and  N_7 
REMARK    2  A    between atoms: N_7  and  C_8 
ROOT
HETATM    1  C   UNL     1       8.529  21.102  53.157  1.00  0.00     0.093 C 
HETATM    2  C   UNL     1       8.068  22.342  53.860  1.00  0.00     0.125 A 
HETATM    3  N   UNL     1       8.692  22.672  54.994  1.00  0.00    -0.226 NA
HETATM    4  C   UNL     1       8.205  23.791  55.550  1.00  0.00     0.114 A 
HETATM    5  C   UNL     1       7.161  24.578  55.061  1.00  0.00     0.053 A 
HETATM    6  C   UNL     1       6.563  24.140  53.859  1.00  0.00     0.143 A 
HETATM    7  N   UNL     1       7.053  23.014  53.286  1.00  0.00    -0.215 NA
HETATM    8  S   UNL     1       8.873  24.385  57.022  1.00  0.00    -0.073 SA
HETATM    9  C   UNL     1       7.808  25.671  57.008  1.00  0.00    -0.008 A 
HETATM   10  C   UNL     1       6.956  25.683  55.937  1.00  0.00    -0.028 A 
HETATM   11  C   UNL     1       6.057  26.863  55.999  1.00  0.00     0.041 C 
HETATM   12  C   UNL     1       6.734  27.748  57.092  1.00  0.00     0.010 C 
HETATM   13  C   UNL     1       7.629  26.802  57.946  1.00  0.00     0.047 C 
ENDROOT
BRANCH   6  14
HETATM   14  N   UNL     1       5.470  24.818  53.298  1.00  0.00    -0.340 N 
HETATM   15  H   UNL     1       4.575  24.450  53.584  1.00  0.00     0.167 HD
BRANCH  14  16
HETATM   16  C   UNL     1       5.397  25.874  52.372  1.00  0.00     0.036 A 
HETATM   17  C   UNL     1       4.971  25.593  51.063  1.00  0.00     0.069 A 
HETATM   18  C   UNL     1       4.912  26.595  50.094  1.00  0.00     0.104 A 
HETATM   19  C   UNL     1       5.305  27.897  50.409  1.00  0.00     0.102 A 
HETATM   20  O   UNL     1       4.471  26.224  48.849  1.00  0.00    -0.346 OA
HETATM   21  O   UNL     1       5.308  28.925  49.501  1.00  0.00    -0.346 OA
HETATM   22  C   UNL     1       5.716  28.199  51.701  1.00  0.00     0.042 A 
HETATM   23  C   UNL     1       5.232  28.428  48.160  1.00  0.00     0.202 C 
HETATM   24  C   UNL     1       4.152  27.365  48.045  1.00  0.00     0.202 C 
HETATM   25  C   UNL     1       5.769  27.191  52.671  1.00  0.00     0.032 A 
ENDBRANCH  14  16
ENDBRANCH   6  14
TORSDOF 2
ENDMDL
MODEL 7
REMARK VINA RESULT:      -8.7      1.860      2.762
REMARK  2 active torsions:
REMARK  status: ('A' for Active; 'I' for Inactive)
REMARK    1  A    between atoms: C_6  and  N_7 
REMARK    2  A    between atoms: N_7  and  C_8 
ROOT
HETATM    1  C   UNL     1       4.203  28.857  56.270  1.00  0.00     0.093 C 
HETATM    2  C   UNL     1       4.971  27.790  55.553  1.00  0.00     0.125 A 
HETATM    3  N   UNL     1       5.359  26.729  56.265  1.00  0.00    -0.226 NA
HETATM    4  C   UNL     1       6.045  25.834  55.538  1.00  0.00     0.114 A 
HETATM    5  C   UNL     1       6.360  25.931  54.182  1.00  0.00     0.053 A 
HETATM    6  C   UNL     1       5.910  27.094  53.520  1.00  0.00     0.143 A 
HETATM    7  N   UNL     1       5.212  28.000  54.245  1.00  0.00    -0.215 NA
HETATM    8  S   UNL     1       6.637  24.395  56.274  1.00  0.00    -0.073 SA
HETATM    9  C   UNL     1       7.291  23.899  54.820  1.00  0.00    -0.008 A 
HETATM   10  C   UNL     1       7.088  24.771  53.786  1.00  0.00    -0.028 A 
HETATM   11  C   UNL     1       7.689  24.246  52.534  1.00  0.00     0.041 C 
HETATM   12  C   UNL     1       7.984  22.757  52.899  1.00  0.00     0.010 C 
HETATM   13  C   UNL     1       8.045  22.678  54.453  1.00  0.00     0.047 C 
ENDROOT
BRANCH   6  14
HETATM   14  N   UNL     1       6.212  27.329  52.170  1.00  0.00    -0.340 N 
HETATM   15  H   UNL     1       7.145  27.681  52.019  1.00  0.00     0.167 HD
BRANCH  14  16
HETATM   16  C   UNL     1       5.436  27.217  51.003  1.00  0.00     0.036 A 
HETATM   17  C   UNL     1       5.051  28.392  50.335  1.00  0.00     0.069 A 
HETATM   18  C   UNL     1       4.252  28.342  49.192  1.00  0.00     0.104 A 
HETATM   19  C   UNL     1       3.799  27.114  48.708  1.00  0.00     0.102 A 
HETATM   20  O   UNL     1       3.940  29.542  48.605  1.00  0.00    -0.346 OA
HETATM   21  O   UNL     1       2.983  26.989  47.613  1.00  0.00    -0.346 OA
HETATM   22  C   UNL     1       4.179  25.939  49.345  1.00  0.00     0.042 A 
HETATM   23  C   UNL     1       2.371  28.240  47.281  1.00  0.00     0.202 C 
HETATM   24  C   UNL     1       3.401  29.358  47.291  1.00  0.00     0.202 C 
HETATM   25  C   UNL     1       4.985  25.995  50.489  1.00  0.00     0.032 A 
ENDBRANCH  14  16
ENDBRANCH   6  14
TORSDOF 2
ENDMDL
MODEL 8
REMARK VINA RESULT:      -8.6      3.603      7.064
REMARK  2 active torsions:
REMARK  status: ('A' for Active; 'I' for Inactive)
REMARK    1  A    between atoms: C_6  and  N_7 
REMARK    2  A    between atoms: N_7  and  C_8 
ROOT
HETATM    1  C   UNL     1       3.207  28.481  52.579  1.00  0.00     0.093 C 
HETATM    2  C   UNL     1       4.250  28.651  53.640  1.00  0.00     0.125 A 
HETATM    3  N   UNL     1       4.075  29.641  54.519  1.00  0.00    -0.226 NA
HETATM    4  C   UNL     1       5.063  29.716  55.424  1.00  0.00     0.114 A 
HETATM    5  C   UNL     1       6.185  28.890  55.501  1.00  0.00     0.053 A 
HETATM    6  C   UNL     1       6.280  27.877  54.523  1.00  0.00     0.143 A 
HETATM    7  N   UNL     1       5.284  27.790  53.609  1.00  0.00    -0.215 NA
HETATM    8  S   UNL     1       5.025  30.930  56.644  1.00  0.00    -0.073 SA
HETATM    9  C   UNL     1       6.463  30.365  57.276  1.00  0.00    -0.008 A 
HETATM   10  C   UNL     1       6.987  29.292  56.608  1.00  0.00    -0.028 A 
HETATM   11  C   UNL     1       8.254  28.849  57.244  1.00  0.00     0.041 C 
HETATM   12  C   UNL     1       8.232  29.608  58.608  1.00  0.00     0.010 C 
HETATM   13  C   UNL     1       7.267  30.818  58.435  1.00  0.00     0.047 C 
ENDROOT
BRANCH   6  14
HETATM   14  N   UNL     1       7.388  27.018  54.466  1.00  0.00    -0.340 N 
HETATM   15  H   UNL     1       8.260  27.465  54.707  1.00  0.00     0.167 HD
BRANCH  14  16
HETATM   16  C   UNL     1       7.511  25.671  54.082  1.00  0.00     0.036 A 
HETATM   17  C   UNL     1       7.516  24.685  55.082  1.00  0.00     0.069 A 
HETATM   18  C   UNL     1       7.670  23.334  54.762  1.00  0.00     0.104 A 
HETATM   19  C   UNL     1       7.850  22.947  53.434  1.00  0.00     0.102 A 
HETATM   20  O   UNL     1       7.649  22.447  55.808  1.00  0.00    -0.346 OA
HETATM   21  O   UNL     1       8.042  21.645  53.047  1.00  0.00    -0.346 OA
HETATM   22  C   UNL     1       7.834  23.905  52.428  1.00  0.00     0.042 A 
HETATM   23  C   UNL     1       8.406  20.825  54.163  1.00  0.00     0.202 C 
HETATM   24  C   UNL     1       7.495  21.099  55.348  1.00  0.00     0.202 C 
HETATM   25  C   UNL     1       7.674  25.257  52.754  1.00  0.00     0.032 A 
ENDBRANCH  14  16
ENDBRANCH   6  14
TORSDOF 2
ENDMDL
MODEL 9
REMARK VINA RESULT:      -8.2      8.182     11.473
REMARK  2 active torsions:
REMARK  status: ('A' for Active; 'I' for Inactive)
REMARK    1  A    between atoms: C_6  and  N_7 
REMARK    2  A    between atoms: N_7  and  C_8 
ROOT
HETATM    1  C   UNL     1       5.433  33.465  65.226  1.00  0.00     0.093 C 
HETATM    2  C   UNL     1       5.271  33.528  63.739  1.00  0.00     0.125 A 
HETATM    3  N   UNL     1       4.532  34.524  63.243  1.00  0.00    -0.226 NA
HETATM    4  C   UNL     1       4.440  34.491  61.905  1.00  0.00     0.114 A 
HETATM    5  C   UNL     1       5.023  33.550  61.055  1.00  0.00     0.053 A 
HETATM    6  C   UNL     1       5.780  32.534  61.677  1.00  0.00     0.143 A 
HETATM    7  N   UNL     1       5.883  32.563  63.027  1.00  0.00    -0.215 NA
HETATM    8  S   UNL     1       3.527  35.689  61.072  1.00  0.00    -0.073 SA
HETATM    9  C   UNL     1       3.905  34.984  59.607  1.00  0.00    -0.008 A 
HETATM   10  C   UNL     1       4.696  33.872  59.706  1.00  0.00    -0.028 A 
HETATM   11  C   UNL     1       4.992  33.320  58.359  1.00  0.00     0.041 C 
HETATM   12  C   UNL     1       4.541  34.477  57.413  1.00  0.00     0.010 C 
HETATM   13  C   UNL     1       3.539  35.355  58.220  1.00  0.00     0.047 C 
ENDROOT
BRANCH   6  14
HETATM   14  N   UNL     1       6.370  31.501  60.931  1.00  0.00    -0.340 N 
HETATM   15  H   UNL     1       5.892  30.617  61.016  1.00  0.00     0.167 HD
BRANCH  14  16
HETATM   16  C   UNL     1       7.529  31.463  60.136  1.00  0.00     0.036 A 
HETATM   17  C   UNL     1       7.604  30.516  59.101  1.00  0.00     0.069 A 
HETATM   18  C   UNL     1       8.744  30.410  58.302  1.00  0.00     0.104 A 
HETATM   19  C   UNL     1       9.845  31.234  58.542  1.00  0.00     0.102 A 
HETATM   20  O   UNL     1       8.715  29.464  57.310  1.00  0.00    -0.346 OA
HETATM   21  O   UNL     1      11.010  31.164  57.823  1.00  0.00    -0.346 OA
HETATM   22  C   UNL     1       9.786  32.187  59.552  1.00  0.00     0.042 A 
HETATM   23  C   UNL     1      11.090  29.937  57.090  1.00  0.00     0.202 C 
HETATM   24  C   UNL     1       9.780  29.657  56.371  1.00  0.00     0.202 C 
HETATM   25  C   UNL     1       8.638  32.292  60.346  1.00  0.00     0.032 A 
ENDBRANCH  14  16
ENDBRANCH   6  14
TORSDOF 2
ENDMDL
MODEL 10
REMARK VINA RESULT:      -8.2      3.653      6.830
REMARK  2 active torsions:
REMARK  status: ('A' for Active; 'I' for Inactive)
REMARK    1  A    between atoms: C_6  and  N_7 
REMARK    2  A    between atoms: N_7  and  C_8 
ROOT
HETATM    1  C   UNL     1       7.766  29.279  58.523  1.00  0.00     0.093 C 
HETATM    2  C   UNL     1       6.827  29.115  57.368  1.00  0.00     0.125 A 
HETATM    3  N   UNL     1       6.390  30.227  56.770  1.00  0.00    -0.226 NA
HETATM    4  C   UNL     1       5.551  29.977  55.754  1.00  0.00     0.114 A 
HETATM    5  C   UNL     1       5.131  28.722  55.311  1.00  0.00     0.053 A 
HETATM    6  C   UNL     1       5.645  27.611  56.012  1.00  0.00     0.143 A 
HETATM    7  N   UNL     1       6.498  27.853  57.037  1.00  0.00    -0.215 NA
HETATM    8  S   UNL     1       4.873  31.280  54.855  1.00  0.00    -0.073 SA
HETATM    9  C   UNL     1       4.045  30.202  53.885  1.00  0.00    -0.008 A 
HETATM   10  C   UNL     1       4.250  28.888  54.203  1.00  0.00    -0.028 A 
HETATM   11  C   UNL     1       3.489  28.003  53.284  1.00  0.00     0.041 C 
HETATM   12  C   UNL     1       3.067  28.982  52.144  1.00  0.00     0.010 C 
HETATM   13  C   UNL     1       3.134  30.421  52.738  1.00  0.00     0.047 C 
ENDROOT
BRANCH   6  14
HETATM   14  N   UNL     1       5.254  26.301  55.694  1.00  0.00    -0.340 N 
HETATM   15  H   UNL     1       4.363  26.038  56.088  1.00  0.00     0.167 HD
BRANCH  14  16
HETATM   16  C   UNL     1       5.900  25.278  54.977  1.00  0.00     0.036 A 
HETATM   17  C   UNL     1       6.735  24.391  55.676  1.00  0.00     0.069 A 
HETATM   18  C   UNL     1       7.428  23.378  55.011  1.00  0.00     0.104 A 
HETATM   19  C   UNL     1       7.320  23.250  53.625  1.00  0.00     0.102 A 
HETATM   20  O   UNL     1       8.208  22.555  55.783  1.00  0.00    -0.346 OA
HETATM   21  O   UNL     1       7.997  22.304  52.900  1.00  0.00    -0.346 OA
HETATM   22  C   UNL     1       6.488  24.109  52.917  1.00  0.00     0.042 A 
HETATM   23  C   UNL     1       9.073  21.745  53.660  1.00  0.00     0.202 C 
HETATM   24  C   UNL     1       8.607  21.384  55.061  1.00  0.00     0.202 C 
HETATM   25  C   UNL     1       5.792  25.120  53.590  1.00  0.00     0.032 A 
ENDBRANCH  14  16
ENDBRANCH   6  14
TORSDOF 2
ENDMDL
