MODEL 1
REMARK VINA RESULT:      -9.0      0.000      0.000
REMARK  7 active torsions:
REMARK  status: ('A' for Active; 'I' for Inactive)
REMARK    1  A    between atoms: C_4  and  C_5 
REMARK    2  A    between atoms: C_10  and  C_11 
REMARK       I    between atoms: C_11  and  N_12 
REMARK    3  A    between atoms: N_12  and  C_13 
REMARK    4  A    between atoms: C_13  and  C_14 
REMARK    5  A    between atoms: C_14  and  C_15 
REMARK    6  A    between atoms: C_15  and  N_16 
REMARK    7  A    between atoms: C_26  and  C_27 
ROOT
HETATM    1  C   UNL     1       7.006  27.126  55.383  1.00  0.00     0.125 C 
HETATM    2  N   UNL     1       8.253  27.687  55.917  1.00  0.00    -0.365 N 
HETATM    3  C   UNL     1       8.236  28.653  56.866  1.00  0.00     0.141 A 
HETATM    4  N   UNL     1       7.083  28.968  57.532  1.00  0.00    -0.238 N 
HETATM    5  N   UNL     1       7.243  29.887  58.504  1.00  0.00    -0.163 NA
HETATM    6  C   UNL     1       8.547  30.242  58.399  1.00  0.00     0.165 A 
HETATM    7  C   UNL     1       9.194  29.478  57.398  1.00  0.00     0.092 A 
HETATM    8 BR   UNL     1      11.001  29.558  56.912  1.00  0.00    -0.044 Br
HETATM    9  C   UNL     1       5.790  28.369  57.248  1.00  0.00     0.221 C 
HETATM   10  C   UNL     1       5.978  27.022  56.529  1.00  0.00     0.067 C 
HETATM   11  H   UNL     1       9.054  27.602  55.288  1.00  0.00     0.162 HD
ENDROOT
BRANCH   6  12
HETATM   12  C   UNL     1       9.095  31.284  59.275  1.00  0.00     0.273 C 
HETATM   13  N   UNL     1       9.024  30.976  60.619  1.00  0.00    -0.355 N 
HETATM   14  H   UNL     1       8.517  30.113  60.827  1.00  0.00     0.162 HD
HETATM   15  O   UNL     1       9.607  32.338  58.894  1.00  0.00    -0.266 OA
BRANCH  13  16
HETATM   16  C   UNL     1       9.291  31.931  61.666  1.00  0.00     0.124 C 
BRANCH  16  17
HETATM   17  C   UNL     1       8.152  32.078  62.675  1.00  0.00     0.047 C 
BRANCH  17  18
HETATM   18  C   UNL     1       6.736  31.783  62.179  1.00  0.00     0.236 C 
BRANCH  18  19
HETATM   19  N   UNL     1       5.702  32.775  62.636  1.00  0.00    -0.067 N 
HETATM   20  H   UNL     1       6.011  33.711  62.294  1.00  0.00     0.280 HD
HETATM   21  C   UNL     1       4.290  32.515  62.145  1.00  0.00     0.261 C 
HETATM   22  C   UNL     1       3.347  33.602  62.671  1.00  0.00     0.195 C 
HETATM   23  O   UNL     1       3.383  33.670  64.100  1.00  0.00    -0.388 OA
HETATM   24  C   UNL     1       4.696  33.999  64.573  1.00  0.00     0.195 C 
HETATM   25  C   UNL     1       5.706  32.924  64.157  1.00  0.00     0.261 C 
ENDBRANCH  18  19
ENDBRANCH  17  18
ENDBRANCH  16  17
ENDBRANCH  13  16
ENDBRANCH   6  12
BRANCH   9  26
HETATM   26  C   UNL     1       4.946  29.337  56.447  1.00  0.00     0.409 C 
HETATM   27  F   UNL     1       4.062  28.717  55.638  1.00  0.00    -0.169 F 
HETATM   28  F   UNL     1       4.233  30.135  57.278  1.00  0.00    -0.169 F 
HETATM   29  F   UNL     1       5.701  30.155  55.679  1.00  0.00    -0.169 F 
ENDBRANCH   9  26
BRANCH   1  30
HETATM   30  C   UNL     1       7.200  25.773  54.743  1.00  0.00     0.005 A 
HETATM   31  S   UNL     1       6.970  24.347  55.670  1.00  0.00    -0.104 SA
HETATM   32  C   UNL     1       7.358  23.342  54.344  1.00  0.00     0.050 A 
HETATM   33  C   UNL     1       7.660  24.069  53.214  1.00  0.00     0.008 A 
HETATM   34  C   UNL     1       7.569  25.472  53.445  1.00  0.00     0.017 A 
ENDBRANCH   1  30
TORSDOF 7
ENDMDL
MODEL 2
REMARK VINA RESULT:      -9.0      4.259      9.767
REMARK  7 active torsions:
REMARK  status: ('A' for Active; 'I' for Inactive)
REMARK    1  A    between atoms: C_4  and  C_5 
REMARK    2  A    between atoms: C_10  and  C_11 
REMARK       I    between atoms: C_11  and  N_12 
REMARK    3  A    between atoms: N_12  and  C_13 
REMARK    4  A    between atoms: C_13  and  C_14 
REMARK    5  A    between atoms: C_14  and  C_15 
REMARK    6  A    between atoms: C_15  and  N_16 
REMARK    7  A    between atoms: C_26  and  C_27 
ROOT
HETATM    1  C   UNL     1       8.097  31.232  58.687  1.00  0.00     0.125 C 
HETATM    2  N   UNL     1       6.930  30.787  57.916  1.00  0.00    -0.365 N 
HETATM    3  C   UNL     1       7.047  29.841  56.954  1.00  0.00     0.141 A 
HETATM    4  N   UNL     1       8.188  29.098  56.829  1.00  0.00    -0.238 N 
HETATM    5  N   UNL     1       8.121  28.141  55.883  1.00  0.00    -0.163 NA
HETATM    6  C   UNL     1       6.907  28.336  55.314  1.00  0.00     0.165 A 
HETATM    7  C   UNL     1       6.208  29.379  55.972  1.00  0.00     0.092 A 
HETATM    8 BR   UNL     1       4.478  29.989  55.594  1.00  0.00    -0.044 Br
HETATM    9  C   UNL     1       9.378  29.289  57.643  1.00  0.00     0.221 C 
HETATM   10  C   UNL     1       9.013  30.017  58.948  1.00  0.00     0.067 C 
HETATM   11  H   UNL     1       6.172  31.470  57.874  1.00  0.00     0.162 HD
ENDROOT
BRANCH   6  12
HETATM   12  C   UNL     1       6.484  27.504  54.183  1.00  0.00     0.273 C 
HETATM   13  N   UNL     1       5.953  26.284  54.556  1.00  0.00    -0.355 N 
HETATM   14  H   UNL     1       6.012  26.088  55.558  1.00  0.00     0.162 HD
HETATM   15  O   UNL     1       6.551  27.827  52.995  1.00  0.00    -0.266 OA
BRANCH  13  16
HETATM   16  C   UNL     1       5.682  25.219  53.622  1.00  0.00     0.124 C 
BRANCH  16  17
HETATM   17  C   UNL     1       6.890  24.327  53.334  1.00  0.00     0.047 C 
BRANCH  17  18
HETATM   18  C   UNL     1       7.821  24.012  54.505  1.00  0.00     0.236 C 
BRANCH  18  19
HETATM   19  N   UNL     1       8.481  22.663  54.422  1.00  0.00    -0.067 N 
HETATM   20  H   UNL     1       9.479  22.830  54.170  1.00  0.00     0.280 HD
HETATM   21  C   UNL     1       8.429  21.835  55.693  1.00  0.00     0.261 C 
HETATM   22  C   UNL     1       9.145  20.498  55.475  1.00  0.00     0.195 C 
HETATM   23  O   UNL     1       8.573  19.779  54.377  1.00  0.00    -0.388 OA
HETATM   24  C   UNL     1       8.693  20.516  53.154  1.00  0.00     0.195 C 
HETATM   25  C   UNL     1       7.940  21.848  53.248  1.00  0.00     0.261 C 
ENDBRANCH  18  19
ENDBRANCH  17  18
ENDBRANCH  16  17
ENDBRANCH  13  16
ENDBRANCH   6  12
BRANCH   9  26
HETATM   26  C   UNL     1      10.425  30.032  56.842  1.00  0.00     0.409 C 
HETATM   27  F   UNL     1      10.602  31.303  57.262  1.00  0.00    -0.169 F 
HETATM   28  F   UNL     1      11.623  29.408  56.946  1.00  0.00    -0.169 F 
HETATM   29  F   UNL     1      10.124  30.075  55.525  1.00  0.00    -0.169 F 
ENDBRANCH   9  26
BRANCH   1  30
HETATM   30  C   UNL     1       7.720  31.880  59.997  1.00  0.00     0.005 A 
HETATM   31  S   UNL     1       6.145  32.527  60.211  1.00  0.00    -0.104 SA
HETATM   32  C   UNL     1       6.498  33.040  61.801  1.00  0.00     0.050 A 
HETATM   33  C   UNL     1       7.788  32.731  62.171  1.00  0.00     0.008 A 
HETATM   34  C   UNL     1       8.494  32.062  61.130  1.00  0.00     0.017 A 
ENDBRANCH   1  30
TORSDOF 7
ENDMDL
MODEL 3
REMARK VINA RESULT:      -8.8      2.996      4.689
REMARK  7 active torsions:
REMARK  status: ('A' for Active; 'I' for Inactive)
REMARK    1  A    between atoms: C_4  and  C_5 
REMARK    2  A    between atoms: C_10  and  C_11 
REMARK       I    between atoms: C_11  and  N_12 
REMARK    3  A    between atoms: N_12  and  C_13 
REMARK    4  A    between atoms: C_13  and  C_14 
REMARK    5  A    between atoms: C_14  and  C_15 
REMARK    6  A    between atoms: C_15  and  N_16 
REMARK    7  A    between atoms: C_26  and  C_27 
ROOT
HETATM    1  C   UNL     1       6.954  24.513  53.681  1.00  0.00     0.125 C 
HETATM    2  N   UNL     1       6.990  25.299  54.920  1.00  0.00    -0.365 N 
HETATM    3  C   UNL     1       6.230  26.411  55.066  1.00  0.00     0.141 A 
HETATM    4  N   UNL     1       5.232  26.705  54.177  1.00  0.00    -0.238 N 
HETATM    5  N   UNL     1       4.511  27.796  54.502  1.00  0.00    -0.163 NA
HETATM    6  C   UNL     1       5.130  28.273  55.609  1.00  0.00     0.165 A 
HETATM    7  C   UNL     1       6.195  27.421  55.993  1.00  0.00     0.092 A 
HETATM    8 BR   UNL     1       7.316  27.619  57.480  1.00  0.00    -0.044 Br
HETATM    9  C   UNL     1       4.944  25.921  52.988  1.00  0.00     0.221 C 
HETATM   10  C   UNL     1       5.507  24.498  53.144  1.00  0.00     0.067 C 
HETATM   11  H   UNL     1       7.852  25.194  55.457  1.00  0.00     0.162 HD
ENDROOT
BRANCH   6  12
HETATM   12  C   UNL     1       4.655  29.510  56.239  1.00  0.00     0.273 C 
HETATM   13  N   UNL     1       5.562  30.550  56.176  1.00  0.00    -0.355 N 
HETATM   14  H   UNL     1       6.471  30.293  55.786  1.00  0.00     0.162 HD
HETATM   15  O   UNL     1       3.551  29.665  56.764  1.00  0.00    -0.266 OA
BRANCH  13  16
HETATM   16  C   UNL     1       5.410  31.779  56.915  1.00  0.00     0.124 C 
BRANCH  16  17
HETATM   17  C   UNL     1       5.837  31.677  58.380  1.00  0.00     0.047 C 
BRANCH  17  18
HETATM   18  C   UNL     1       7.232  31.118  58.664  1.00  0.00     0.236 C 
BRANCH  18  19
HETATM   19  N   UNL     1       7.509  30.859  60.119  1.00  0.00    -0.067 N 
HETATM   20  H   UNL     1       6.981  29.998  60.377  1.00  0.00     0.280 HD
HETATM   21  C   UNL     1       8.970  30.665  60.478  1.00  0.00     0.261 C 
HETATM   22  C   UNL     1       9.106  30.398  61.981  1.00  0.00     0.195 C 
HETATM   23  O   UNL     1       8.532  31.461  62.749  1.00  0.00    -0.388 OA
HETATM   24  C   UNL     1       7.131  31.599  62.480  1.00  0.00     0.195 C 
HETATM   25  C   UNL     1       6.894  31.943  61.005  1.00  0.00     0.261 C 
ENDBRANCH  18  19
ENDBRANCH  17  18
ENDBRANCH  16  17
ENDBRANCH  13  16
ENDBRANCH   6  12
BRANCH   9  26
HETATM   26  C   UNL     1       5.494  26.629  51.768  1.00  0.00     0.409 C 
HETATM   27  F   UNL     1       5.946  25.773  50.827  1.00  0.00    -0.169 F 
HETATM   28  F   UNL     1       4.529  27.384  51.190  1.00  0.00    -0.169 F 
HETATM   29  F   UNL     1       6.508  27.467  52.080  1.00  0.00    -0.169 F 
ENDBRANCH   9  26
BRANCH   1  30
HETATM   30  C   UNL     1       7.445  23.098  53.871  1.00  0.00     0.005 A 
HETATM   31  S   UNL     1       7.658  22.472  55.455  1.00  0.00    -0.104 SA
HETATM   32  C   UNL     1       8.197  20.965  54.858  1.00  0.00     0.050 A 
HETATM   33  C   UNL     1       8.218  20.930  53.482  1.00  0.00     0.008 A 
HETATM   34  C   UNL     1       7.785  22.162  52.912  1.00  0.00     0.017 A 
ENDBRANCH   1  30
TORSDOF 7
ENDMDL
MODEL 4
REMARK VINA RESULT:      -8.6      4.170      6.043
REMARK  7 active torsions:
REMARK  status: ('A' for Active; 'I' for Inactive)
REMARK    1  A    between atoms: C_4  and  C_5 
REMARK    2  A    between atoms: C_10  and  C_11 
REMARK       I    between atoms: C_11  and  N_12 
REMARK    3  A    between atoms: N_12  and  C_13 
REMARK    4  A    between atoms: C_13  and  C_14 
REMARK    5  A    between atoms: C_14  and  C_15 
REMARK    6  A    between atoms: C_15  and  N_16 
REMARK    7  A    between atoms: C_26  and  C_27 
ROOT
HETATM    1  C   UNL     1       8.292  30.731  59.142  1.00  0.00     0.125 C 
HETATM    2  N   UNL     1       6.880  31.088  58.958  1.00  0.00    -0.365 N 
HETATM    3  C   UNL     1       6.255  31.934  59.811  1.00  0.00     0.141 A 
HETATM    4  N   UNL     1       6.964  32.671  60.720  1.00  0.00    -0.238 N 
HETATM    5  N   UNL     1       6.213  33.528  61.439  1.00  0.00    -0.163 NA
HETATM    6  C   UNL     1       4.948  33.267  61.030  1.00  0.00     0.165 A 
HETATM    7  C   UNL     1       4.945  32.290  60.004  1.00  0.00     0.092 A 
HETATM    8 BR   UNL     1       3.455  31.631  59.080  1.00  0.00    -0.044 Br
HETATM    9  C   UNL     1       8.402  32.571  60.905  1.00  0.00     0.221 C 
HETATM   10  C   UNL     1       9.056  31.974  59.647  1.00  0.00     0.067 C 
HETATM   11  H   UNL     1       6.339  30.398  58.433  1.00  0.00     0.162 HD
ENDROOT
BRANCH   6  12
HETATM   12  C   UNL     1       3.819  33.980  61.638  1.00  0.00     0.273 C 
HETATM   13  N   UNL     1       3.947  35.355  61.608  1.00  0.00    -0.355 N 
HETATM   14  H   UNL     1       4.847  35.686  61.254  1.00  0.00     0.162 HD
HETATM   15  O   UNL     1       2.816  33.449  62.119  1.00  0.00    -0.266 OA
BRANCH  13  16
HETATM   16  C   UNL     1       3.080  36.248  62.338  1.00  0.00     0.124 C 
BRANCH  16  17
HETATM   17  C   UNL     1       3.818  37.163  63.316  1.00  0.00     0.047 C 
BRANCH  17  18
HETATM   18  C   UNL     1       5.278  36.826  63.623  1.00  0.00     0.236 C 
BRANCH  18  19
HETATM   19  N   UNL     1       5.481  36.084  64.916  1.00  0.00    -0.067 N 
HETATM   20  H   UNL     1       6.286  36.537  65.400  1.00  0.00     0.280 HD
HETATM   21  C   UNL     1       4.288  36.073  65.853  1.00  0.00     0.261 C 
HETATM   22  C   UNL     1       4.635  35.298  67.129  1.00  0.00     0.195 C 
HETATM   23  O   UNL     1       5.055  33.964  66.825  1.00  0.00    -0.388 OA
HETATM   24  C   UNL     1       6.232  33.962  66.008  1.00  0.00     0.195 C 
HETATM   25  C   UNL     1       5.963  34.654  64.668  1.00  0.00     0.261 C 
ENDBRANCH  18  19
ENDBRANCH  17  18
ENDBRANCH  16  17
ENDBRANCH  13  16
ENDBRANCH   6  12
BRANCH   9  26
HETATM   26  C   UNL     1       8.698  31.760  62.149  1.00  0.00     0.409 C 
HETATM   27  F   UNL     1       7.795  30.780  62.363  1.00  0.00    -0.169 F 
HETATM   28  F   UNL     1       9.912  31.167  62.043  1.00  0.00    -0.169 F 
HETATM   29  F   UNL     1       8.738  32.529  63.260  1.00  0.00    -0.169 F 
ENDBRANCH   9  26
BRANCH   1  30
HETATM   30  C   UNL     1       8.934  30.213  57.878  1.00  0.00     0.005 A 
HETATM   31  S   UNL     1       7.970  29.455  56.677  1.00  0.00    -0.104 SA
HETATM   32  C   UNL     1       9.324  29.172  55.675  1.00  0.00     0.050 A 
HETATM   33  C   UNL     1      10.491  29.640  56.236  1.00  0.00     0.008 A 
HETATM   34  C   UNL     1      10.266  30.241  57.508  1.00  0.00     0.017 A 
ENDBRANCH   1  30
TORSDOF 7
ENDMDL
MODEL 5
REMARK VINA RESULT:      -8.6      6.468      9.587
REMARK  7 active torsions:
REMARK  status: ('A' for Active; 'I' for Inactive)
REMARK    1  A    between atoms: C_4  and  C_5 
REMARK    2  A    between atoms: C_10  and  C_11 
REMARK       I    between atoms: C_11  and  N_12 
REMARK    3  A    between atoms: N_12  and  C_13 
REMARK    4  A    between atoms: C_13  and  C_14 
REMARK    5  A    between atoms: C_14  and  C_15 
REMARK    6  A    between atoms: C_15  and  N_16 
REMARK    7  A    between atoms: C_26  and  C_27 
ROOT
HETATM    1  C   UNL     1       6.969  23.690  55.041  1.00  0.00     0.125 C 
HETATM    2  N   UNL     1       6.508  24.198  53.743  1.00  0.00    -0.365 N 
HETATM    3  C   UNL     1       6.291  25.521  53.546  1.00  0.00     0.141 A 
HETATM    4  N   UNL     1       6.719  26.449  54.456  1.00  0.00    -0.238 N 
HETATM    5  N   UNL     1       6.505  27.725  54.080  1.00  0.00    -0.163 NA
HETATM    6  C   UNL     1       5.832  27.608  52.910  1.00  0.00     0.165 A 
HETATM    7  C   UNL     1       5.698  26.246  52.545  1.00  0.00     0.092 A 
HETATM    8 BR   UNL     1       4.893  25.569  50.995  1.00  0.00    -0.044 Br
HETATM    9  C   UNL     1       7.363  26.118  55.716  1.00  0.00     0.221 C 
HETATM   10  C   UNL     1       7.964  24.703  55.646  1.00  0.00     0.067 C 
HETATM   11  H   UNL     1       6.013  23.508  53.175  1.00  0.00     0.162 HD
ENDROOT
BRANCH   6  12
HETATM   12  C   UNL     1       5.367  28.809  52.208  1.00  0.00     0.273 C 
HETATM   13  N   UNL     1       4.105  29.223  52.586  1.00  0.00    -0.355 N 
HETATM   14  H   UNL     1       3.629  28.587  53.231  1.00  0.00     0.162 HD
HETATM   15  O   UNL     1       6.016  29.442  51.372  1.00  0.00    -0.266 OA
BRANCH  13  16
HETATM   16  C   UNL     1       3.357  30.234  51.880  1.00  0.00     0.124 C 
BRANCH  16  17
HETATM   17  C   UNL     1       2.308  29.672  50.921  1.00  0.00     0.047 C 
BRANCH  17  18
HETATM   18  C   UNL     1       2.662  29.649  49.433  1.00  0.00     0.236 C 
BRANCH  18  19
HETATM   19  N   UNL     1       3.174  28.323  48.940  1.00  0.00    -0.067 N 
HETATM   20  H   UNL     1       3.584  27.834  49.765  1.00  0.00     0.280 HD
HETATM   21  C   UNL     1       2.133  27.421  48.303  1.00  0.00     0.261 C 
HETATM   22  C   UNL     1       2.784  26.106  47.860  1.00  0.00     0.195 C 
HETATM   23  O   UNL     1       3.870  26.345  46.959  1.00  0.00    -0.388 OA
HETATM   24  C   UNL     1       4.899  27.127  47.578  1.00  0.00     0.195 C 
HETATM   25  C   UNL     1       4.360  28.500  47.993  1.00  0.00     0.261 C 
ENDBRANCH  18  19
ENDBRANCH  17  18
ENDBRANCH  16  17
ENDBRANCH  13  16
ENDBRANCH   6  12
BRANCH   9  26
HETATM   26  C   UNL     1       6.369  26.267  56.848  1.00  0.00     0.409 C 
HETATM   27  F   UNL     1       5.104  25.982  56.475  1.00  0.00    -0.169 F 
HETATM   28  F   UNL     1       6.685  25.426  57.862  1.00  0.00    -0.169 F 
HETATM   29  F   UNL     1       6.371  27.516  57.366  1.00  0.00    -0.169 F 
ENDBRANCH   9  26
BRANCH   1  30
HETATM   30  C   UNL     1       7.618  22.331  54.940  1.00  0.00     0.005 A 
HETATM   31  S   UNL     1       8.054  21.703  53.404  1.00  0.00    -0.104 SA
HETATM   32  C   UNL     1       8.657  20.260  54.091  1.00  0.00     0.050 A 
HETATM   33  C   UNL     1       8.532  20.248  55.462  1.00  0.00     0.008 A 
HETATM   34  C   UNL     1       7.932  21.443  55.952  1.00  0.00     0.017 A 
ENDBRANCH   1  30
TORSDOF 7
ENDMDL
MODEL 6
REMARK VINA RESULT:      -8.3      4.258      9.297
REMARK  7 active torsions:
REMARK  status: ('A' for Active; 'I' for Inactive)
REMARK    1  A    between atoms: C_4  and  C_5 
REMARK    2  A    between atoms: C_10  and  C_11 
REMARK       I    between atoms: C_11  and  N_12 
REMARK    3  A    between atoms: N_12  and  C_13 
REMARK    4  A    between atoms: C_13  and  C_14 
REMARK    5  A    between atoms: C_14  and  C_15 
REMARK    6  A    between atoms: C_15  and  N_16 
REMARK    7  A    between atoms: C_26  and  C_27 
ROOT
HETATM    1  C   UNL     1       7.123  32.972  62.355  1.00  0.00     0.125 C 
HETATM    2  N   UNL     1       6.021  32.996  61.386  1.00  0.00    -0.365 N 
HETATM    3  C   UNL     1       6.104  32.318  60.215  1.00  0.00     0.141 A 
HETATM    4  N   UNL     1       7.096  31.402  59.999  1.00  0.00    -0.238 N 
HETATM    5  N   UNL     1       6.996  30.750  58.825  1.00  0.00    -0.163 NA
HETATM    6  C   UNL     1       5.935  31.337  58.220  1.00  0.00     0.165 A 
HETATM    7  C   UNL     1       5.349  32.308  59.070  1.00  0.00     0.092 A 
HETATM    8 BR   UNL     1       3.835  33.351  58.714  1.00  0.00    -0.044 Br
HETATM    9  C   UNL     1       8.167  31.123  60.942  1.00  0.00     0.221 C 
HETATM   10  C   UNL     1       7.752  31.562  62.357  1.00  0.00     0.067 C 
HETATM   11  H   UNL     1       5.414  33.814  61.461  1.00  0.00     0.162 HD
ENDROOT
BRANCH   6  12
HETATM   12  C   UNL     1       5.540  30.925  56.869  1.00  0.00     0.273 C 
HETATM   13  N   UNL     1       5.436  29.556  56.712  1.00  0.00    -0.355 N 
HETATM   14  H   UNL     1       5.739  29.015  57.526  1.00  0.00     0.162 HD
HETATM   15  O   UNL     1       5.286  31.689  55.935  1.00  0.00    -0.266 OA
BRANCH  13  16
HETATM   16  C   UNL     1       5.284  28.915  55.429  1.00  0.00     0.124 C 
BRANCH  16  17
HETATM   17  C   UNL     1       5.475  27.399  55.469  1.00  0.00     0.047 C 
BRANCH  17  18
HETATM   18  C   UNL     1       5.741  26.763  56.834  1.00  0.00     0.236 C 
BRANCH  18  19
HETATM   19  N   UNL     1       6.529  25.483  56.777  1.00  0.00    -0.067 N 
HETATM   20  H   UNL     1       6.110  24.840  57.482  1.00  0.00     0.280 HD
HETATM   21  C   UNL     1       6.544  24.790  55.427  1.00  0.00     0.261 C 
HETATM   22  C   UNL     1       7.367  23.500  55.513  1.00  0.00     0.195 C 
HETATM   23  O   UNL     1       8.700  23.767  55.961  1.00  0.00    -0.388 OA
HETATM   24  C   UNL     1       8.702  24.346  57.272  1.00  0.00     0.195 C 
HETATM   25  C   UNL     1       7.961  25.687  57.273  1.00  0.00     0.261 C 
ENDBRANCH  18  19
ENDBRANCH  17  18
ENDBRANCH  16  17
ENDBRANCH  13  16
ENDBRANCH   6  12
BRANCH   9  26
HETATM   26  C   UNL     1       9.439  31.799  60.478  1.00  0.00     0.409 C 
HETATM   27  F   UNL     1       9.214  32.996  59.896  1.00  0.00    -0.169 F 
HETATM   28  F   UNL     1      10.264  32.016  61.530  1.00  0.00    -0.169 F 
HETATM   29  F   UNL     1      10.127  31.039  59.597  1.00  0.00    -0.169 F 
ENDBRANCH   9  26
BRANCH   1  30
HETATM   30  C   UNL     1       6.681  33.338  63.751  1.00  0.00     0.005 A 
HETATM   31  S   UNL     1       5.009  33.489  64.109  1.00  0.00    -0.104 SA
HETATM   32  C   UNL     1       5.326  33.899  65.736  1.00  0.00     0.050 A 
HETATM   33  C   UNL     1       6.675  33.924  66.011  1.00  0.00     0.008 A 
HETATM   34  C   UNL     1       7.457  33.601  64.866  1.00  0.00     0.017 A 
ENDBRANCH   1  30
TORSDOF 7
ENDMDL
MODEL 7
REMARK VINA RESULT:      -8.3      1.572      1.949
REMARK  7 active torsions:
REMARK  status: ('A' for Active; 'I' for Inactive)
REMARK    1  A    between atoms: C_4  and  C_5 
REMARK    2  A    between atoms: C_10  and  C_11 
REMARK       I    between atoms: C_11  and  N_12 
REMARK    3  A    between atoms: N_12  and  C_13 
REMARK    4  A    between atoms: C_13  and  C_14 
REMARK    5  A    between atoms: C_14  and  C_15 
REMARK    6  A    between atoms: C_15  and  N_16 
REMARK    7  A    between atoms: C_26  and  C_27 
ROOT
HETATM    1  C   UNL     1       6.749  26.478  54.981  1.00  0.00     0.125 C 
HETATM    2  N   UNL     1       7.693  27.225  55.820  1.00  0.00    -0.365 N 
HETATM    3  C   UNL     1       7.284  28.281  56.564  1.00  0.00     0.141 A 
HETATM    4  N   UNL     1       5.954  28.538  56.753  1.00  0.00    -0.238 N 
HETATM    5  N   UNL     1       5.706  29.569  57.584  1.00  0.00    -0.163 NA
HETATM    6  C   UNL     1       6.939  30.050  57.876  1.00  0.00     0.165 A 
HETATM    7  C   UNL     1       7.943  29.257  57.267  1.00  0.00     0.092 A 
HETATM    8 BR   UNL     1       9.797  29.479  57.412  1.00  0.00    -0.044 Br
HETATM    9  C   UNL     1       4.882  27.775  56.137  1.00  0.00     0.221 C 
HETATM   10  C   UNL     1       5.395  26.387  55.717  1.00  0.00     0.067 C 
HETATM   11  H   UNL     1       8.666  27.159  55.516  1.00  0.00     0.162 HD
ENDROOT
BRANCH   6  12
HETATM   12  C   UNL     1       7.081  31.234  58.731  1.00  0.00     0.273 C 
HETATM   13  N   UNL     1       7.640  30.965  59.966  1.00  0.00    -0.355 N 
HETATM   14  H   UNL     1       7.791  29.971  60.152  1.00  0.00     0.162 HD
HETATM   15  O   UNL     1       6.772  32.384  58.414  1.00  0.00    -0.266 OA
BRANCH  13  16
HETATM   16  C   UNL     1       7.669  31.920  61.047  1.00  0.00     0.124 C 
BRANCH  16  17
HETATM   17  C   UNL     1       7.053  31.402  62.347  1.00  0.00     0.047 C 
BRANCH  17  18
HETATM   18  C   UNL     1       5.620  31.832  62.661  1.00  0.00     0.236 C 
BRANCH  18  19
HETATM   19  N   UNL     1       5.473  32.598  63.947  1.00  0.00    -0.067 N 
HETATM   20  H   UNL     1       5.100  31.930  64.655  1.00  0.00     0.280 HD
HETATM   21  C   UNL     1       6.750  33.218  64.483  1.00  0.00     0.261 C 
HETATM   22  C   UNL     1       6.462  33.954  65.796  1.00  0.00     0.195 C 
HETATM   23  O   UNL     1       5.449  34.950  65.618  1.00  0.00    -0.388 OA
HETATM   24  C   UNL     1       4.212  34.365  65.192  1.00  0.00     0.195 C 
HETATM   25  C   UNL     1       4.382  33.663  63.840  1.00  0.00     0.261 C 
ENDBRANCH  18  19
ENDBRANCH  17  18
ENDBRANCH  16  17
ENDBRANCH  13  16
ENDBRANCH   6  12
BRANCH   9  26
HETATM   26  C   UNL     1       4.309  28.554  54.972  1.00  0.00     0.409 C 
HETATM   27  F   UNL     1       3.761  27.759  54.029  1.00  0.00    -0.169 F 
HETATM   28  F   UNL     1       3.334  29.390  55.403  1.00  0.00    -0.169 F 
HETATM   29  F   UNL     1       5.240  29.325  54.367  1.00  0.00    -0.169 F 
ENDBRANCH   9  26
BRANCH   1  30
HETATM   30  C   UNL     1       7.240  25.092  54.639  1.00  0.00     0.005 A 
HETATM   31  S   UNL     1       7.588  24.686  53.008  1.00  0.00    -0.104 SA
HETATM   32  C   UNL     1       8.031  23.091  53.429  1.00  0.00     0.050 A 
HETATM   33  C   UNL     1       7.917  22.862  54.782  1.00  0.00     0.008 A 
HETATM   34  C   UNL     1       7.460  24.017  55.480  1.00  0.00     0.017 A 
ENDBRANCH   1  30
TORSDOF 7
ENDMDL
MODEL 8
REMARK VINA RESULT:      -8.3      4.345      6.192
REMARK  7 active torsions:
REMARK  status: ('A' for Active; 'I' for Inactive)
REMARK    1  A    between atoms: C_4  and  C_5 
REMARK    2  A    between atoms: C_10  and  C_11 
REMARK       I    between atoms: C_11  and  N_12 
REMARK    3  A    between atoms: N_12  and  C_13 
REMARK    4  A    between atoms: C_13  and  C_14 
REMARK    5  A    between atoms: C_14  and  C_15 
REMARK    6  A    between atoms: C_15  and  N_16 
REMARK    7  A    between atoms: C_26  and  C_27 
ROOT
HETATM    1  C   UNL     1       6.978  23.653  54.487  1.00  0.00     0.125 C 
HETATM    2  N   UNL     1       6.577  24.334  53.250  1.00  0.00    -0.365 N 
HETATM    3  C   UNL     1       6.376  25.673  53.222  1.00  0.00     0.141 A 
HETATM    4  N   UNL     1       6.770  26.468  54.264  1.00  0.00    -0.238 N 
HETATM    5  N   UNL     1       6.580  27.785  54.052  1.00  0.00    -0.163 NA
HETATM    6  C   UNL     1       5.957  27.831  52.849  1.00  0.00     0.165 A 
HETATM    7  C   UNL     1       5.831  26.531  52.301  1.00  0.00     0.092 A 
HETATM    8 BR   UNL     1       5.090  26.074  50.643  1.00  0.00    -0.044 Br
HETATM    9  C   UNL     1       7.357  25.966  55.494  1.00  0.00     0.221 C 
HETATM   10  C   UNL     1       7.952  24.566  55.263  1.00  0.00     0.067 C 
HETATM   11  H   UNL     1       6.103  23.730  52.576  1.00  0.00     0.162 HD
ENDROOT
BRANCH   6  12
HETATM   12  C   UNL     1       5.530  29.120  52.294  1.00  0.00     0.273 C 
HETATM   13  N   UNL     1       4.707  29.844  53.134  1.00  0.00    -0.355 N 
HETATM   14  H   UNL     1       4.430  29.346  53.983  1.00  0.00     0.162 HD
HETATM   15  O   UNL     1       5.870  29.571  51.198  1.00  0.00    -0.266 OA
BRANCH  13  16
HETATM   16  C   UNL     1       3.989  31.023  52.716  1.00  0.00     0.124 C 
BRANCH  16  17
HETATM   17  C   UNL     1       3.904  32.108  53.790  1.00  0.00     0.047 C 
BRANCH  17  18
HETATM   18  C   UNL     1       3.060  31.803  55.028  1.00  0.00     0.236 C 
BRANCH  18  19
HETATM   19  N   UNL     1       3.793  31.965  56.331  1.00  0.00    -0.067 N 
HETATM   20  H   UNL     1       3.210  31.505  57.063  1.00  0.00     0.280 HD
HETATM   21  C   UNL     1       5.188  31.370  56.370  1.00  0.00     0.261 C 
HETATM   22  C   UNL     1       5.812  31.594  57.752  1.00  0.00     0.195 C 
HETATM   23  O   UNL     1       5.843  32.986  58.084  1.00  0.00    -0.388 OA
HETATM   24  C   UNL     1       4.522  33.539  58.134  1.00  0.00     0.195 C 
HETATM   25  C   UNL     1       3.838  33.429  56.767  1.00  0.00     0.261 C 
ENDBRANCH  18  19
ENDBRANCH  17  18
ENDBRANCH  16  17
ENDBRANCH  13  16
ENDBRANCH   6  12
BRANCH   9  26
HETATM   26  C   UNL     1       6.316  25.975  56.594  1.00  0.00     0.409 C 
HETATM   27  F   UNL     1       6.280  27.143  57.269  1.00  0.00    -0.169 F 
HETATM   28  F   UNL     1       5.082  25.779  56.071  1.00  0.00    -0.169 F 
HETATM   29  F   UNL     1       6.518  24.988  57.494  1.00  0.00    -0.169 F 
ENDBRANCH   9  26
BRANCH   1  30
HETATM   30  C   UNL     1       7.623  22.312  54.235  1.00  0.00     0.005 A 
HETATM   31  S   UNL     1       8.042  21.301  55.557  1.00  0.00    -0.104 SA
HETATM   32  C   UNL     1       8.672  20.097  54.523  1.00  0.00     0.050 A 
HETATM   33  C   UNL     1       8.571  20.449  53.196  1.00  0.00     0.008 A 
HETATM   34  C   UNL     1       7.966  21.728  53.029  1.00  0.00     0.017 A 
ENDBRANCH   1  30
TORSDOF 7
ENDMDL
MODEL 9
REMARK VINA RESULT:      -8.2      3.031      4.105
REMARK  7 active torsions:
REMARK  status: ('A' for Active; 'I' for Inactive)
REMARK    1  A    between atoms: C_4  and  C_5 
REMARK    2  A    between atoms: C_10  and  C_11 
REMARK       I    between atoms: C_11  and  N_12 
REMARK    3  A    between atoms: N_12  and  C_13 
REMARK    4  A    between atoms: C_13  and  C_14 
REMARK    5  A    between atoms: C_14  and  C_15 
REMARK    6  A    between atoms: C_15  and  N_16 
REMARK    7  A    between atoms: C_26  and  C_27 
ROOT
HETATM    1  C   UNL     1       7.252  24.682  53.716  1.00  0.00     0.125 C 
HETATM    2  N   UNL     1       7.485  25.554  54.873  1.00  0.00    -0.365 N 
HETATM    3  C   UNL     1       6.713  26.646  55.092  1.00  0.00     0.141 A 
HETATM    4  N   UNL     1       5.551  26.840  54.396  1.00  0.00    -0.238 N 
HETATM    5  N   UNL     1       4.852  27.924  54.786  1.00  0.00    -0.163 NA
HETATM    6  C   UNL     1       5.647  28.500  55.720  1.00  0.00     0.165 A 
HETATM    7  C   UNL     1       6.806  27.717  55.943  1.00  0.00     0.092 A 
HETATM    8 BR   UNL     1       8.178  28.061  57.170  1.00  0.00    -0.044 Br
HETATM    9  C   UNL     1       5.080  25.964  53.337  1.00  0.00     0.221 C 
HETATM   10  C   UNL     1       5.732  24.576  53.471  1.00  0.00     0.067 C 
HETATM   11  H   UNL     1       8.438  25.520  55.238  1.00  0.00     0.162 HD
ENDROOT
BRANCH   6  12
HETATM   12  C   UNL     1       5.240  29.761  56.351  1.00  0.00     0.273 C 
HETATM   13  N   UNL     1       4.034  29.686  57.020  1.00  0.00    -0.355 N 
HETATM   14  H   UNL     1       3.544  28.796  56.906  1.00  0.00     0.162 HD
HETATM   15  O   UNL     1       5.892  30.808  56.337  1.00  0.00    -0.266 OA
BRANCH  13  16
HETATM   16  C   UNL     1       3.332  30.843  57.518  1.00  0.00     0.124 C 
BRANCH  16  17
HETATM   17  C   UNL     1       3.624  31.159  58.985  1.00  0.00     0.047 C 
BRANCH  17  18
HETATM   18  C   UNL     1       4.556  32.337  59.274  1.00  0.00     0.236 C 
BRANCH  18  19
HETATM   19  N   UNL     1       4.247  33.071  60.550  1.00  0.00    -0.067 N 
HETATM   20  H   UNL     1       4.811  33.948  60.537  1.00  0.00     0.280 HD
HETATM   21  C   UNL     1       2.787  33.429  60.755  1.00  0.00     0.261 C 
HETATM   22  C   UNL     1       2.616  34.181  62.080  1.00  0.00     0.195 C 
HETATM   23  O   UNL     1       3.108  33.408  63.179  1.00  0.00    -0.388 OA
HETATM   24  C   UNL     1       4.508  33.134  63.038  1.00  0.00     0.195 C 
HETATM   25  C   UNL     1       4.774  32.316  61.770  1.00  0.00     0.261 C 
ENDBRANCH  18  19
ENDBRANCH  17  18
ENDBRANCH  16  17
ENDBRANCH  13  16
ENDBRANCH   6  12
BRANCH   9  26
HETATM   26  C   UNL     1       5.353  26.602  51.992  1.00  0.00     0.409 C 
HETATM   27  F   UNL     1       4.318  27.345  51.546  1.00  0.00    -0.169 F 
HETATM   28  F   UNL     1       6.428  27.423  52.073  1.00  0.00    -0.169 F 
HETATM   29  F   UNL     1       5.637  25.684  51.041  1.00  0.00    -0.169 F 
ENDBRANCH   9  26
BRANCH   1  30
HETATM   30  C   UNL     1       7.839  23.302  53.896  1.00  0.00     0.005 A 
HETATM   31  S   UNL     1       8.688  22.915  55.336  1.00  0.00    -0.104 SA
HETATM   32  C   UNL     1       9.012  21.327  54.797  1.00  0.00     0.050 A 
HETATM   33  C   UNL     1       8.489  21.088  53.546  1.00  0.00     0.008 A 
HETATM   34  C   UNL     1       7.813  22.228  53.025  1.00  0.00     0.017 A 
ENDBRANCH   1  30
TORSDOF 7
ENDMDL
MODEL 10
REMARK VINA RESULT:      -8.1      4.835      9.444
REMARK  7 active torsions:
REMARK  status: ('A' for Active; 'I' for Inactive)
REMARK    1  A    between atoms: C_4  and  C_5 
REMARK    2  A    between atoms: C_10  and  C_11 
REMARK       I    between atoms: C_11  and  N_12 
REMARK    3  A    between atoms: N_12  and  C_13 
REMARK    4  A    between atoms: C_13  and  C_14 
REMARK    5  A    between atoms: C_14  and  C_15 
REMARK    6  A    between atoms: C_15  and  N_16 
REMARK    7  A    between atoms: C_26  and  C_27 
ROOT
HETATM    1  C   UNL     1       5.603  34.022  63.701  1.00  0.00     0.125 C 
HETATM    2  N   UNL     1       4.896  34.331  62.452  1.00  0.00    -0.365 N 
HETATM    3  C   UNL     1       5.152  33.643  61.314  1.00  0.00     0.141 A 
HETATM    4  N   UNL     1       5.889  32.490  61.337  1.00  0.00    -0.238 N 
HETATM    5  N   UNL     1       5.986  31.876  60.142  1.00  0.00    -0.163 NA
HETATM    6  C   UNL     1       5.352  32.721  59.294  1.00  0.00     0.165 A 
HETATM    7  C   UNL     1       4.808  33.823  59.999  1.00  0.00     0.092 A 
HETATM    8 BR   UNL     1       3.801  35.232  59.285  1.00  0.00    -0.044 Br
HETATM    9  C   UNL     1       6.509  31.944  62.533  1.00  0.00     0.221 C 
HETATM   10  C   UNL     1       5.812  32.495  63.789  1.00  0.00     0.067 C 
HETATM   11  H   UNL     1       4.530  35.283  62.403  1.00  0.00     0.162 HD
ENDROOT
BRANCH   6  12
HETATM   12  C   UNL     1       5.294  32.415  57.860  1.00  0.00     0.273 C 
HETATM   13  N   UNL     1       5.101  31.075  57.584  1.00  0.00    -0.355 N 
HETATM   14  H   UNL     1       5.118  30.469  58.407  1.00  0.00     0.162 HD
HETATM   15  O   UNL     1       5.378  33.242  56.950  1.00  0.00    -0.266 OA
BRANCH  13  16
HETATM   16  C   UNL     1       5.236  30.511  56.263  1.00  0.00     0.124 C 
BRANCH  16  17
HETATM   17  C   UNL     1       6.416  29.550  56.118  1.00  0.00     0.047 C 
BRANCH  17  18
HETATM   18  C   UNL     1       7.037  29.006  57.406  1.00  0.00     0.236 C 
BRANCH  18  19
HETATM   19  N   UNL     1       8.468  29.413  57.621  1.00  0.00    -0.067 N 
HETATM   20  H   UNL     1       8.878  28.727  58.292  1.00  0.00     0.280 HD
HETATM   21  C   UNL     1       9.328  29.450  56.371  1.00  0.00     0.261 C 
HETATM   22  C   UNL     1      10.758  29.865  56.735  1.00  0.00     0.195 C 
HETATM   23  O   UNL     1      10.775  31.132  57.401  1.00  0.00    -0.388 OA
HETATM   24  C   UNL     1      10.035  31.085  58.627  1.00  0.00     0.195 C 
HETATM   25  C   UNL     1       8.564  30.748  58.360  1.00  0.00     0.261 C 
ENDBRANCH  18  19
ENDBRANCH  17  18
ENDBRANCH  16  17
ENDBRANCH  13  16
ENDBRANCH   6  12
BRANCH   9  26
HETATM   26  C   UNL     1       7.992  32.245  62.517  1.00  0.00     0.409 C 
HETATM   27  F   UNL     1       8.430  32.782  63.676  1.00  0.00    -0.169 F 
HETATM   28  F   UNL     1       8.699  31.108  62.313  1.00  0.00    -0.169 F 
HETATM   29  F   UNL     1       8.329  33.095  61.521  1.00  0.00    -0.169 F 
ENDBRANCH   9  26
BRANCH   1  30
HETATM   30  C   UNL     1       4.868  34.509  64.926  1.00  0.00     0.005 A 
HETATM   31  S   UNL     1       4.189  36.086  64.946  1.00  0.00    -0.104 SA
HETATM   32  C   UNL     1       3.603  35.886  66.538  1.00  0.00     0.050 A 
HETATM   33  C   UNL     1       3.915  34.647  67.053  1.00  0.00     0.008 A 
HETATM   34  C   UNL     1       4.645  33.853  66.123  1.00  0.00     0.017 A 
ENDBRANCH   1  30
TORSDOF 7
ENDMDL
