MODEL 1
REMARK VINA RESULT:     -10.4      0.000      0.000
REMARK  8 active torsions:
REMARK  status: ('A' for Active; 'I' for Inactive)
REMARK    1  A    between atoms: O_2  and  C_3 
REMARK    2  A    between atoms: C_5  and  N_6 
REMARK       I    between atoms: N_6  and  C_7 
REMARK    3  A    between atoms: C_7  and  C_8 
REMARK    4  A    between atoms: C_8  and  O_9 
REMARK    5  A    between atoms: O_9  and  C_10 
REMARK    6  A    between atoms: C_13  and  C_14 
REMARK       I    between atoms: C_14  and  N_15 
REMARK    7  A    between atoms: N_15  and  C_16 
REMARK    8  A    between atoms: C_19  and  N_20 
ROOT
HETATM    1  C   UNL     1       5.480  32.045  58.741  1.00  0.00     0.069 A 
HETATM    2  C   UNL     1       5.159  31.218  57.668  1.00  0.00     0.038 A 
HETATM    3  C   UNL     1       6.043  30.202  57.282  1.00  0.00     0.020 A 
HETATM    4  C   UNL     1       7.254  30.011  57.960  1.00  0.00     0.032 A 
HETATM    5  C   UNL     1       7.592  30.882  59.004  1.00  0.00     0.020 A 
HETATM    6  C   UNL     1       6.716  31.905  59.375  1.00  0.00     0.038 A 
ENDROOT
BRANCH   4   7
HETATM    7  C   UNL     1       8.068  28.794  57.641  1.00  0.00     0.256 C 
HETATM    8  N   UNL     1       7.364  27.607  57.559  1.00  0.00    -0.323 N 
HETATM    9  H   UNL     1       6.457  27.568  58.002  1.00  0.00     0.169 HD
HETATM   10  O   UNL     1       9.270  28.930  57.443  1.00  0.00    -0.267 OA
BRANCH   8  11
HETATM   11  C   UNL     1       7.711  26.480  56.787  1.00  0.00     0.035 A 
HETATM   12  C   UNL     1       7.339  26.302  55.458  1.00  0.00     0.032 A 
HETATM   13  C   UNL     1       7.564  25.076  54.813  1.00  0.00     0.031 A 
HETATM   14  C   UNL     1       8.163  23.993  55.469  1.00  0.00     0.030 A 
HETATM   15  C   UNL     1       8.583  24.215  56.789  1.00  0.00     0.031 A 
HETATM   16  C   UNL     1       8.368  25.437  57.440  1.00  0.00     0.032 A 
BRANCH  14  17
HETATM   17  N   UNL     1       8.268  22.721  54.909  1.00  0.00    -0.381 N 
HETATM   18  C   UNL     1       8.925  21.685  55.720  1.00  0.00     0.123 C 
HETATM   19  C   UNL     1       8.383  20.315  55.309  1.00  0.00     0.020 C 
HETATM   20  C   UNL     1       8.551  20.077  53.810  1.00  0.00     0.003 C 
HETATM   21  C   UNL     1       7.949  21.226  53.003  1.00  0.00     0.020 C 
HETATM   22  C   UNL     1       8.482  22.583  53.464  1.00  0.00     0.123 C 
ENDBRANCH  14  17
ENDBRANCH   8  11
ENDBRANCH   4   7
BRANCH   1  23
HETATM   23  O   UNL     1       4.651  32.962  59.325  1.00  0.00    -0.342 OA
BRANCH  23  24
HETATM   24  C   UNL     1       3.662  32.478  60.227  1.00  0.00     0.278 C 
BRANCH  24  25
HETATM   25  C   UNL     1       4.020  32.369  61.726  1.00  0.00     0.246 C 
HETATM   26  N   UNL     1       4.776  33.431  62.190  1.00  0.00    -0.325 N 
HETATM   27  H   UNL     1       5.008  34.136  61.501  1.00  0.00     0.169 HD
HETATM   28  O   UNL     1       3.636  31.405  62.384  1.00  0.00    -0.271 OA
BRANCH  26  29
HETATM   29  C   UNL     1       5.395  33.574  63.448  1.00  0.00     0.037 A 
HETATM   30  C   UNL     1       4.700  33.785  64.643  1.00  0.00     0.066 A 
HETATM   31  C   UNL     1       5.390  33.893  65.855  1.00  0.00     0.070 A 
HETATM   32  C   UNL     1       6.782  33.774  65.868  1.00  0.00     0.037 A 
HETATM   33  C   UNL     1       7.484  33.566  64.685  1.00  0.00     0.005 A 
HETATM   34  C   UNL     1       6.792  33.477  63.478  1.00  0.00     0.029 A 
BRANCH  31  35
HETATM   35  O   UNL     1       4.828  34.107  67.086  1.00  0.00    -0.356 OA
HETATM   36  C   UNL     1       5.717  34.426  68.149  1.00  0.00     0.210 C 
ENDBRANCH  31  35
ENDBRANCH  26  29
ENDBRANCH  24  25
ENDBRANCH  23  24
ENDBRANCH   1  23
TORSDOF 8
ENDMDL
MODEL 2
REMARK VINA RESULT:     -10.3      2.748     12.347
REMARK  8 active torsions:
REMARK  status: ('A' for Active; 'I' for Inactive)
REMARK    1  A    between atoms: O_2  and  C_3 
REMARK    2  A    between atoms: C_5  and  N_6 
REMARK       I    between atoms: N_6  and  C_7 
REMARK    3  A    between atoms: C_7  and  C_8 
REMARK    4  A    between atoms: C_8  and  O_9 
REMARK    5  A    between atoms: O_9  and  C_10 
REMARK    6  A    between atoms: C_13  and  C_14 
REMARK       I    between atoms: C_14  and  N_15 
REMARK    7  A    between atoms: N_15  and  C_16 
REMARK    8  A    between atoms: C_19  and  N_20 
ROOT
HETATM    1  C   UNL     1       8.196  29.106  56.156  1.00  0.00     0.069 A 
HETATM    2  C   UNL     1       9.443  29.350  56.725  1.00  0.00     0.038 A 
HETATM    3  C   UNL     1       9.526  29.923  58.001  1.00  0.00     0.020 A 
HETATM    4  C   UNL     1       8.367  30.262  58.711  1.00  0.00     0.032 A 
HETATM    5  C   UNL     1       7.118  30.062  58.108  1.00  0.00     0.020 A 
HETATM    6  C   UNL     1       7.040  29.505  56.829  1.00  0.00     0.038 A 
ENDROOT
BRANCH   4   7
HETATM    7  C   UNL     1       8.503  30.684  60.142  1.00  0.00     0.256 C 
HETATM    8  N   UNL     1       7.760  31.789  60.515  1.00  0.00    -0.323 N 
HETATM    9  H   UNL     1       7.436  32.406  59.783  1.00  0.00     0.169 HD
HETATM   10  O   UNL     1       9.219  30.018  60.882  1.00  0.00    -0.267 OA
BRANCH   8  11
HETATM   11  C   UNL     1       7.271  32.070  61.807  1.00  0.00     0.035 A 
HETATM   12  C   UNL     1       5.924  32.037  62.153  1.00  0.00     0.032 A 
HETATM   13  C   UNL     1       5.498  32.507  63.405  1.00  0.00     0.031 A 
HETATM   14  C   UNL     1       6.397  33.023  64.347  1.00  0.00     0.030 A 
HETATM   15  C   UNL     1       7.756  32.992  63.998  1.00  0.00     0.031 A 
HETATM   16  C   UNL     1       8.191  32.520  62.753  1.00  0.00     0.032 A 
BRANCH  14  17
HETATM   17  N   UNL     1       5.997  33.631  65.536  1.00  0.00    -0.381 N 
HETATM   18  C   UNL     1       4.695  34.316  65.533  1.00  0.00     0.123 C 
HETATM   19  C   UNL     1       4.131  34.315  66.954  1.00  0.00     0.020 C 
HETATM   20  C   UNL     1       5.115  34.936  67.944  1.00  0.00     0.003 C 
HETATM   21  C   UNL     1       6.486  34.269  67.844  1.00  0.00     0.020 C 
HETATM   22  C   UNL     1       7.004  34.251  66.405  1.00  0.00     0.123 C 
ENDBRANCH  14  17
ENDBRANCH   8  11
ENDBRANCH   4   7
BRANCH   1  23
HETATM   23  O   UNL     1       7.962  28.412  55.001  1.00  0.00    -0.342 OA
BRANCH  23  24
HETATM   24  C   UNL     1       6.631  27.970  54.755  1.00  0.00     0.278 C 
BRANCH  24  25
HETATM   25  C   UNL     1       6.382  26.461  54.543  1.00  0.00     0.246 C 
HETATM   26  N   UNL     1       7.518  25.687  54.703  1.00  0.00    -0.325 N 
HETATM   27  H   UNL     1       8.365  26.196  54.927  1.00  0.00     0.169 HD
HETATM   28  O   UNL     1       5.257  26.053  54.263  1.00  0.00    -0.271 OA
BRANCH  26  29
HETATM   29  C   UNL     1       7.680  24.312  54.439  1.00  0.00     0.037 A 
HETATM   30  C   UNL     1       7.735  23.326  55.429  1.00  0.00     0.066 A 
HETATM   31  C   UNL     1       7.873  21.978  55.079  1.00  0.00     0.070 A 
HETATM   32  C   UNL     1       7.941  21.619  53.731  1.00  0.00     0.037 A 
HETATM   33  C   UNL     1       7.889  22.592  52.738  1.00  0.00     0.005 A 
HETATM   34  C   UNL     1       7.769  23.936  53.093  1.00  0.00     0.029 A 
BRANCH  31  35
HETATM   35  O   UNL     1       7.947  20.923  55.951  1.00  0.00    -0.356 OA
HETATM   36  C   UNL     1       8.255  21.232  57.304  1.00  0.00     0.210 C 
ENDBRANCH  31  35
ENDBRANCH  26  29
ENDBRANCH  24  25
ENDBRANCH  23  24
ENDBRANCH   1  23
TORSDOF 8
ENDMDL
MODEL 3
REMARK VINA RESULT:     -10.0      2.769     12.231
REMARK  8 active torsions:
REMARK  status: ('A' for Active; 'I' for Inactive)
REMARK    1  A    between atoms: O_2  and  C_3 
REMARK    2  A    between atoms: C_5  and  N_6 
REMARK       I    between atoms: N_6  and  C_7 
REMARK    3  A    between atoms: C_7  and  C_8 
REMARK    4  A    between atoms: C_8  and  O_9 
REMARK    5  A    between atoms: O_9  and  C_10 
REMARK    6  A    between atoms: C_13  and  C_14 
REMARK       I    between atoms: C_14  and  N_15 
REMARK    7  A    between atoms: N_15  and  C_16 
REMARK    8  A    between atoms: C_19  and  N_20 
ROOT
HETATM    1  C   UNL     1       7.727  28.989  56.072  1.00  0.00     0.069 A 
HETATM    2  C   UNL     1       6.699  29.410  56.911  1.00  0.00     0.038 A 
HETATM    3  C   UNL     1       7.000  29.918  58.181  1.00  0.00     0.020 A 
HETATM    4  C   UNL     1       8.327  30.001  58.622  1.00  0.00     0.032 A 
HETATM    5  C   UNL     1       9.351  29.526  57.791  1.00  0.00     0.020 A 
HETATM    6  C   UNL     1       9.045  29.005  56.532  1.00  0.00     0.038 A 
ENDROOT
BRANCH   4   7
HETATM    7  C   UNL     1       8.611  30.733  59.900  1.00  0.00     0.256 C 
HETATM    8  N   UNL     1       7.952  31.936  60.060  1.00  0.00    -0.323 N 
HETATM    9  H   UNL     1       7.588  32.387  59.232  1.00  0.00     0.169 HD
HETATM   10  O   UNL     1       9.364  30.212  60.715  1.00  0.00    -0.267 OA
BRANCH   8  11
HETATM   11  C   UNL     1       7.595  32.537  61.285  1.00  0.00     0.035 A 
HETATM   12  C   UNL     1       8.312  32.383  62.466  1.00  0.00     0.032 A 
HETATM   13  C   UNL     1       7.795  32.858  63.681  1.00  0.00     0.031 A 
HETATM   14  C   UNL     1       6.553  33.499  63.757  1.00  0.00     0.030 A 
HETATM   15  C   UNL     1       5.875  33.696  62.545  1.00  0.00     0.031 A 
HETATM   16  C   UNL     1       6.384  33.230  61.326  1.00  0.00     0.032 A 
BRANCH  14  17
HETATM   17  N   UNL     1       5.944  33.852  64.961  1.00  0.00    -0.381 N 
HETATM   18  C   UNL     1       6.738  33.685  66.187  1.00  0.00     0.123 C 
HETATM   19  C   UNL     1       6.245  34.682  67.237  1.00  0.00     0.020 C 
HETATM   20  C   UNL     1       4.746  34.530  67.487  1.00  0.00     0.003 C 
HETATM   21  C   UNL     1       3.963  34.605  66.178  1.00  0.00     0.020 C 
HETATM   22  C   UNL     1       4.505  33.624  65.137  1.00  0.00     0.123 C 
ENDBRANCH  14  17
ENDBRANCH   8  11
ENDBRANCH   4   7
BRANCH   1  23
HETATM   23  O   UNL     1       7.596  28.627  54.759  1.00  0.00    -0.342 OA
BRANCH  23  24
HETATM   24  C   UNL     1       6.448  27.867  54.395  1.00  0.00     0.278 C 
BRANCH  24  25
HETATM   25  C   UNL     1       6.456  26.345  54.658  1.00  0.00     0.246 C 
HETATM   26  N   UNL     1       7.611  25.718  54.223  1.00  0.00    -0.325 N 
HETATM   27  H   UNL     1       8.296  26.320  53.783  1.00  0.00     0.169 HD
HETATM   28  O   UNL     1       5.498  25.808  55.207  1.00  0.00    -0.271 OA
BRANCH  26  29
HETATM   29  C   UNL     1       7.883  24.336  54.168  1.00  0.00     0.037 A 
HETATM   30  C   UNL     1       8.353  23.588  55.251  1.00  0.00     0.066 A 
HETATM   31  C   UNL     1       8.575  22.212  55.119  1.00  0.00     0.070 A 
HETATM   32  C   UNL     1       8.310  21.586  53.899  1.00  0.00     0.037 A 
HETATM   33  C   UNL     1       7.844  22.321  52.814  1.00  0.00     0.005 A 
HETATM   34  C   UNL     1       7.641  23.695  52.946  1.00  0.00     0.029 A 
BRANCH  31  35
HETATM   35  O   UNL     1       9.039  21.374  56.098  1.00  0.00    -0.356 OA
HETATM   36  C   UNL     1       8.315  21.355  57.322  1.00  0.00     0.210 C 
ENDBRANCH  31  35
ENDBRANCH  26  29
ENDBRANCH  24  25
ENDBRANCH  23  24
ENDBRANCH   1  23
TORSDOF 8
ENDMDL
MODEL 4
REMARK VINA RESULT:      -9.7      2.817     11.788
REMARK  8 active torsions:
REMARK  status: ('A' for Active; 'I' for Inactive)
REMARK    1  A    between atoms: O_2  and  C_3 
REMARK    2  A    between atoms: C_5  and  N_6 
REMARK       I    between atoms: N_6  and  C_7 
REMARK    3  A    between atoms: C_7  and  C_8 
REMARK    4  A    between atoms: C_8  and  O_9 
REMARK    5  A    between atoms: O_9  and  C_10 
REMARK    6  A    between atoms: C_13  and  C_14 
REMARK       I    between atoms: C_14  and  N_15 
REMARK    7  A    between atoms: N_15  and  C_16 
REMARK    8  A    between atoms: C_19  and  N_20 
ROOT
HETATM    1  C   UNL     1       6.425  28.149  53.844  1.00  0.00     0.069 A 
HETATM    2  C   UNL     1       5.529  28.318  54.896  1.00  0.00     0.038 A 
HETATM    3  C   UNL     1       6.005  28.671  56.166  1.00  0.00     0.020 A 
HETATM    4  C   UNL     1       7.376  28.850  56.392  1.00  0.00     0.032 A 
HETATM    5  C   UNL     1       8.273  28.626  55.339  1.00  0.00     0.020 A 
HETATM    6  C   UNL     1       7.796  28.257  54.079  1.00  0.00     0.038 A 
ENDROOT
BRANCH   4   7
HETATM    7  C   UNL     1       7.815  29.419  57.707  1.00  0.00     0.256 C 
HETATM    8  N   UNL     1       7.705  30.791  57.833  1.00  0.00    -0.323 N 
HETATM    9  H   UNL     1       7.643  31.337  56.986  1.00  0.00     0.169 HD
HETATM   10  O   UNL     1       8.201  28.647  58.578  1.00  0.00    -0.267 OA
BRANCH   8  11
HETATM   11  C   UNL     1       7.515  31.508  59.032  1.00  0.00     0.035 A 
HETATM   12  C   UNL     1       8.542  31.849  59.907  1.00  0.00     0.032 A 
HETATM   13  C   UNL     1       8.254  32.398  61.166  1.00  0.00     0.031 A 
HETATM   14  C   UNL     1       6.939  32.624  61.591  1.00  0.00     0.030 A 
HETATM   15  C   UNL     1       5.923  32.329  60.670  1.00  0.00     0.031 A 
HETATM   16  C   UNL     1       6.201  31.784  59.409  1.00  0.00     0.032 A 
BRANCH  14  17
HETATM   17  N   UNL     1       6.610  33.030  62.884  1.00  0.00    -0.381 N 
HETATM   18  C   UNL     1       7.636  32.852  63.922  1.00  0.00     0.123 C 
HETATM   19  C   UNL     1       7.414  33.892  65.022  1.00  0.00     0.020 C 
HETATM   20  C   UNL     1       5.995  33.814  65.582  1.00  0.00     0.003 C 
HETATM   21  C   UNL     1       4.959  33.898  64.463  1.00  0.00     0.020 C 
HETATM   22  C   UNL     1       5.232  32.872  63.362  1.00  0.00     0.123 C 
ENDBRANCH  14  17
ENDBRANCH   8  11
ENDBRANCH   4   7
BRANCH   1  23
HETATM   23  O   UNL     1       6.094  27.966  52.529  1.00  0.00    -0.342 OA
BRANCH  23  24
HETATM   24  C   UNL     1       5.796  26.641  52.102  1.00  0.00     0.278 C 
BRANCH  24  25
HETATM   25  C   UNL     1       6.735  25.495  52.540  1.00  0.00     0.246 C 
HETATM   26  N   UNL     1       6.358  24.900  53.731  1.00  0.00    -0.325 N 
HETATM   27  H   UNL     1       5.532  25.287  54.170  1.00  0.00     0.169 HD
HETATM   28  O   UNL     1       7.704  25.192  51.848  1.00  0.00    -0.271 OA
BRANCH  26  29
HETATM   29  C   UNL     1       7.063  23.941  54.485  1.00  0.00     0.037 A 
HETATM   30  C   UNL     1       7.377  22.659  54.024  1.00  0.00     0.066 A 
HETATM   31  C   UNL     1       8.103  21.774  54.829  1.00  0.00     0.070 A 
HETATM   32  C   UNL     1       8.526  22.184  56.096  1.00  0.00     0.037 A 
HETATM   33  C   UNL     1       8.217  23.456  56.566  1.00  0.00     0.005 A 
HETATM   34  C   UNL     1       7.479  24.328  55.766  1.00  0.00     0.029 A 
BRANCH  31  35
HETATM   35  O   UNL     1       8.465  20.495  54.498  1.00  0.00    -0.356 OA
HETATM   36  C   UNL     1       8.716  20.237  53.122  1.00  0.00     0.210 C 
ENDBRANCH  31  35
ENDBRANCH  26  29
ENDBRANCH  24  25
ENDBRANCH  23  24
ENDBRANCH   1  23
TORSDOF 8
ENDMDL
MODEL 5
REMARK VINA RESULT:      -9.5      1.396      1.791
REMARK  8 active torsions:
REMARK  status: ('A' for Active; 'I' for Inactive)
REMARK    1  A    between atoms: O_2  and  C_3 
REMARK    2  A    between atoms: C_5  and  N_6 
REMARK       I    between atoms: N_6  and  C_7 
REMARK    3  A    between atoms: C_7  and  C_8 
REMARK    4  A    between atoms: C_8  and  O_9 
REMARK    5  A    between atoms: O_9  and  C_10 
REMARK    6  A    between atoms: C_13  and  C_14 
REMARK       I    between atoms: C_14  and  N_15 
REMARK    7  A    between atoms: N_15  and  C_16 
REMARK    8  A    between atoms: C_19  and  N_20 
ROOT
HETATM    1  C   UNL     1       4.764  32.200  58.401  1.00  0.00     0.069 A 
HETATM    2  C   UNL     1       3.805  31.955  57.422  1.00  0.00     0.038 A 
HETATM    3  C   UNL     1       3.931  30.836  56.589  1.00  0.00     0.020 A 
HETATM    4  C   UNL     1       5.017  29.960  56.724  1.00  0.00     0.032 A 
HETATM    5  C   UNL     1       6.004  30.245  57.678  1.00  0.00     0.020 A 
HETATM    6  C   UNL     1       5.884  31.371  58.495  1.00  0.00     0.038 A 
ENDROOT
BRANCH   4   7
HETATM    7  C   UNL     1       5.001  28.677  55.950  1.00  0.00     0.256 C 
HETATM    8  N   UNL     1       6.215  28.023  55.852  1.00  0.00    -0.323 N 
HETATM    9  H   UNL     1       7.054  28.560  56.017  1.00  0.00     0.169 HD
HETATM   10  O   UNL     1       3.934  28.283  55.495  1.00  0.00    -0.267 OA
BRANCH   8  11
HETATM   11  C   UNL     1       6.405  26.635  55.692  1.00  0.00     0.035 A 
HETATM   12  C   UNL     1       6.807  25.781  56.714  1.00  0.00     0.032 A 
HETATM   13  C   UNL     1       7.153  24.450  56.436  1.00  0.00     0.031 A 
HETATM   14  C   UNL     1       7.111  23.930  55.137  1.00  0.00     0.030 A 
HETATM   15  C   UNL     1       6.646  24.791  54.132  1.00  0.00     0.031 A 
HETATM   16  C   UNL     1       6.294  26.120  54.400  1.00  0.00     0.032 A 
BRANCH  14  17
HETATM   17  N   UNL     1       7.585  22.662  54.803  1.00  0.00    -0.381 N 
HETATM   18  C   UNL     1       8.247  21.892  55.867  1.00  0.00     0.123 C 
HETATM   19  C   UNL     1       8.089  20.400  55.572  1.00  0.00     0.020 C 
HETATM   20  C   UNL     1       8.617  20.049  54.182  1.00  0.00     0.003 C 
HETATM   21  C   UNL     1       7.983  20.939  53.115  1.00  0.00     0.020 C 
HETATM   22  C   UNL     1       8.124  22.423  53.459  1.00  0.00     0.123 C 
ENDBRANCH  14  17
ENDBRANCH   8  11
ENDBRANCH   4   7
BRANCH   1  23
HETATM   23  O   UNL     1       4.687  33.152  59.381  1.00  0.00    -0.342 OA
BRANCH  23  24
HETATM   24  C   UNL     1       3.651  33.021  60.348  1.00  0.00     0.278 C 
BRANCH  24  25
HETATM   25  C   UNL     1       4.043  32.739  61.815  1.00  0.00     0.246 C 
HETATM   26  N   UNL     1       4.626  33.822  62.448  1.00  0.00    -0.325 N 
HETATM   27  H   UNL     1       4.733  34.654  61.880  1.00  0.00     0.169 HD
HETATM   28  O   UNL     1       3.826  31.636  62.311  1.00  0.00    -0.271 OA
BRANCH  26  29
HETATM   29  C   UNL     1       5.231  33.866  63.720  1.00  0.00     0.037 A 
HETATM   30  C   UNL     1       4.522  33.972  64.921  1.00  0.00     0.066 A 
HETATM   31  C   UNL     1       5.200  33.984  66.145  1.00  0.00     0.070 A 
HETATM   32  C   UNL     1       6.592  33.874  66.163  1.00  0.00     0.037 A 
HETATM   33  C   UNL     1       7.307  33.770  64.975  1.00  0.00     0.005 A 
HETATM   34  C   UNL     1       6.628  33.776  63.757  1.00  0.00     0.029 A 
BRANCH  31  35
HETATM   35  O   UNL     1       4.623  34.091  67.383  1.00  0.00    -0.356 OA
HETATM   36  C   UNL     1       5.486  34.421  68.465  1.00  0.00     0.210 C 
ENDBRANCH  31  35
ENDBRANCH  26  29
ENDBRANCH  24  25
ENDBRANCH  23  24
ENDBRANCH   1  23
TORSDOF 8
ENDMDL
MODEL 6
REMARK VINA RESULT:      -9.3      1.743      2.614
REMARK  8 active torsions:
REMARK  status: ('A' for Active; 'I' for Inactive)
REMARK    1  A    between atoms: O_2  and  C_3 
REMARK    2  A    between atoms: C_5  and  N_6 
REMARK       I    between atoms: N_6  and  C_7 
REMARK    3  A    between atoms: C_7  and  C_8 
REMARK    4  A    between atoms: C_8  and  O_9 
REMARK    5  A    between atoms: O_9  and  C_10 
REMARK    6  A    between atoms: C_13  and  C_14 
REMARK       I    between atoms: C_14  and  N_15 
REMARK    7  A    between atoms: N_15  and  C_16 
REMARK    8  A    between atoms: C_19  and  N_20 
ROOT
HETATM    1  C   UNL     1       4.330  32.049  58.080  1.00  0.00     0.069 A 
HETATM    2  C   UNL     1       5.696  32.315  58.054  1.00  0.00     0.038 A 
HETATM    3  C   UNL     1       6.603  31.280  57.790  1.00  0.00     0.020 A 
HETATM    4  C   UNL     1       6.151  29.975  57.557  1.00  0.00     0.032 A 
HETATM    5  C   UNL     1       4.778  29.707  57.637  1.00  0.00     0.020 A 
HETATM    6  C   UNL     1       3.879  30.738  57.918  1.00  0.00     0.038 A 
ENDROOT
BRANCH   4   7
HETATM    7  C   UNL     1       7.138  28.951  57.084  1.00  0.00     0.256 C 
HETATM    8  N   UNL     1       6.885  27.649  57.475  1.00  0.00    -0.323 N 
HETATM    9  H   UNL     1       6.275  27.507  58.267  1.00  0.00     0.169 HD
HETATM   10  O   UNL     1       8.063  29.318  56.368  1.00  0.00    -0.267 OA
BRANCH   8  11
HETATM   11  C   UNL     1       7.268  26.480  56.787  1.00  0.00     0.035 A 
HETATM   12  C   UNL     1       6.547  25.923  55.735  1.00  0.00     0.032 A 
HETATM   13  C   UNL     1       6.891  24.662  55.225  1.00  0.00     0.031 A 
HETATM   14  C   UNL     1       7.959  23.919  55.743  1.00  0.00     0.030 A 
HETATM   15  C   UNL     1       8.708  24.526  56.762  1.00  0.00     0.031 A 
HETATM   16  C   UNL     1       8.376  25.787  57.276  1.00  0.00     0.032 A 
BRANCH  14  17
HETATM   17  N   UNL     1       8.237  22.607  55.361  1.00  0.00    -0.381 N 
HETATM   18  C   UNL     1       7.705  22.160  54.065  1.00  0.00     0.123 C 
HETATM   19  C   UNL     1       8.602  21.049  53.518  1.00  0.00     0.020 C 
HETATM   20  C   UNL     1       8.743  19.904  54.518  1.00  0.00     0.003 C 
HETATM   21  C   UNL     1       9.197  20.421  55.882  1.00  0.00     0.020 C 
HETATM   22  C   UNL     1       8.303  21.556  56.383  1.00  0.00     0.123 C 
ENDBRANCH  14  17
ENDBRANCH   8  11
ENDBRANCH   4   7
BRANCH   1  23
HETATM   23  O   UNL     1       3.331  32.980  58.164  1.00  0.00    -0.342 OA
BRANCH  23  24
HETATM   24  C   UNL     1       3.148  33.641  59.411  1.00  0.00     0.278 C 
BRANCH  24  25
HETATM   25  C   UNL     1       3.836  33.057  60.664  1.00  0.00     0.246 C 
HETATM   26  N   UNL     1       5.035  33.674  60.973  1.00  0.00    -0.325 N 
HETATM   27  H   UNL     1       5.318  34.417  60.344  1.00  0.00     0.169 HD
HETATM   28  O   UNL     1       3.312  32.133  61.283  1.00  0.00    -0.271 OA
BRANCH  26  29
HETATM   29  C   UNL     1       5.983  33.299  61.945  1.00  0.00     0.037 A 
HETATM   30  C   UNL     1       6.814  32.180  61.837  1.00  0.00     0.066 A 
HETATM   31  C   UNL     1       7.748  31.891  62.839  1.00  0.00     0.070 A 
HETATM   32  C   UNL     1       7.857  32.738  63.944  1.00  0.00     0.037 A 
HETATM   33  C   UNL     1       7.034  33.853  64.063  1.00  0.00     0.005 A 
HETATM   34  C   UNL     1       6.093  34.127  63.070  1.00  0.00     0.029 A 
BRANCH  31  35
HETATM   35  O   UNL     1       8.609  30.826  62.854  1.00  0.00    -0.356 OA
HETATM   36  C   UNL     1       9.316  30.556  61.650  1.00  0.00     0.210 C 
ENDBRANCH  31  35
ENDBRANCH  26  29
ENDBRANCH  24  25
ENDBRANCH  23  24
ENDBRANCH   1  23
TORSDOF 8
ENDMDL
MODEL 7
REMARK VINA RESULT:      -8.9      3.291     11.723
REMARK  8 active torsions:
REMARK  status: ('A' for Active; 'I' for Inactive)
REMARK    1  A    between atoms: O_2  and  C_3 
REMARK    2  A    between atoms: C_5  and  N_6 
REMARK       I    between atoms: N_6  and  C_7 
REMARK    3  A    between atoms: C_7  and  C_8 
REMARK    4  A    between atoms: C_8  and  O_9 
REMARK    5  A    between atoms: O_9  and  C_10 
REMARK    6  A    between atoms: C_13  and  C_14 
REMARK       I    between atoms: C_14  and  N_15 
REMARK    7  A    between atoms: N_15  and  C_16 
REMARK    8  A    between atoms: C_19  and  N_20 
ROOT
HETATM    1  C   UNL     1       4.053  28.634  52.842  1.00  0.00     0.069 A 
HETATM    2  C   UNL     1       3.895  29.983  52.538  1.00  0.00     0.038 A 
HETATM    3  C   UNL     1       3.891  30.933  53.568  1.00  0.00     0.020 A 
HETATM    4  C   UNL     1       4.038  30.541  54.905  1.00  0.00     0.032 A 
HETATM    5  C   UNL     1       4.144  29.176  55.204  1.00  0.00     0.020 A 
HETATM    6  C   UNL     1       4.131  28.230  54.176  1.00  0.00     0.038 A 
ENDROOT
BRANCH   4   7
HETATM    7  C   UNL     1       4.228  31.603  55.945  1.00  0.00     0.256 C 
HETATM    8  N   UNL     1       4.100  31.187  57.256  1.00  0.00    -0.323 N 
HETATM    9  H   UNL     1       3.605  30.323  57.430  1.00  0.00     0.169 HD
HETATM   10  O   UNL     1       4.512  32.737  55.576  1.00  0.00    -0.267 OA
BRANCH   8  11
HETATM   11  C   UNL     1       4.724  31.764  58.382  1.00  0.00     0.035 A 
HETATM   12  C   UNL     1       6.082  31.652  58.662  1.00  0.00     0.032 A 
HETATM   13  C   UNL     1       6.595  32.094  59.891  1.00  0.00     0.031 A 
HETATM   14  C   UNL     1       5.774  32.660  60.875  1.00  0.00     0.030 A 
HETATM   15  C   UNL     1       4.419  32.817  60.547  1.00  0.00     0.031 A 
HETATM   16  C   UNL     1       3.899  32.382  59.321  1.00  0.00     0.032 A 
BRANCH  14  17
HETATM   17  N   UNL     1       6.221  32.974  62.158  1.00  0.00    -0.381 N 
HETATM   18  C   UNL     1       7.217  32.075  62.760  1.00  0.00     0.123 C 
HETATM   19  C   UNL     1       8.052  32.864  63.769  1.00  0.00     0.020 C 
HETATM   20  C   UNL     1       7.169  33.541  64.814  1.00  0.00     0.003 C 
HETATM   21  C   UNL     1       6.082  34.383  64.150  1.00  0.00     0.020 C 
HETATM   22  C   UNL     1       5.290  33.577  63.120  1.00  0.00     0.123 C 
ENDBRANCH  14  17
ENDBRANCH   8  11
ENDBRANCH   4   7
BRANCH   1  23
HETATM   23  O   UNL     1       4.237  27.623  51.939  1.00  0.00    -0.342 OA
BRANCH  23  24
HETATM   24  C   UNL     1       5.515  26.998  51.898  1.00  0.00     0.278 C 
BRANCH  24  25
HETATM   25  C   UNL     1       5.684  25.619  52.572  1.00  0.00     0.246 C 
HETATM   26  N   UNL     1       6.954  25.405  53.080  1.00  0.00    -0.325 N 
HETATM   27  H   UNL     1       7.612  26.163  52.942  1.00  0.00     0.169 HD
HETATM   28  O   UNL     1       4.739  24.835  52.620  1.00  0.00    -0.271 OA
BRANCH  26  29
HETATM   29  C   UNL     1       7.489  24.217  53.615  1.00  0.00     0.037 A 
HETATM   30  C   UNL     1       7.749  24.018  54.974  1.00  0.00     0.066 A 
HETATM   31  C   UNL     1       8.259  22.796  55.427  1.00  0.00     0.070 A 
HETATM   32  C   UNL     1       8.495  21.767  54.514  1.00  0.00     0.037 A 
HETATM   33  C   UNL     1       8.241  21.954  53.158  1.00  0.00     0.005 A 
HETATM   34  C   UNL     1       7.749  23.179  52.710  1.00  0.00     0.029 A 
BRANCH  31  35
HETATM   35  O   UNL     1       8.563  22.482  56.726  1.00  0.00    -0.356 OA
HETATM   36  C   UNL     1       8.325  21.140  57.132  1.00  0.00     0.210 C 
ENDBRANCH  31  35
ENDBRANCH  26  29
ENDBRANCH  24  25
ENDBRANCH  23  24
ENDBRANCH   1  23
TORSDOF 8
ENDMDL
MODEL 8
REMARK VINA RESULT:      -8.8      9.114     12.161
REMARK  8 active torsions:
REMARK  status: ('A' for Active; 'I' for Inactive)
REMARK    1  A    between atoms: O_2  and  C_3 
REMARK    2  A    between atoms: C_5  and  N_6 
REMARK       I    between atoms: N_6  and  C_7 
REMARK    3  A    between atoms: C_7  and  C_8 
REMARK    4  A    between atoms: C_8  and  O_9 
REMARK    5  A    between atoms: O_9  and  C_10 
REMARK    6  A    between atoms: C_13  and  C_14 
REMARK       I    between atoms: C_14  and  N_15 
REMARK    7  A    between atoms: N_15  and  C_16 
REMARK    8  A    between atoms: C_19  and  N_20 
ROOT
HETATM    1  C   UNL     1       2.985  29.317  47.781  1.00  0.00     0.069 A 
HETATM    2  C   UNL     1       2.603  29.711  49.060  1.00  0.00     0.038 A 
HETATM    3  C   UNL     1       3.229  29.145  50.179  1.00  0.00     0.020 A 
HETATM    4  C   UNL     1       4.233  28.180  50.026  1.00  0.00     0.032 A 
HETATM    5  C   UNL     1       4.573  27.752  48.736  1.00  0.00     0.020 A 
HETATM    6  C   UNL     1       3.935  28.306  47.624  1.00  0.00     0.038 A 
ENDROOT
BRANCH   4   7
HETATM    7  C   UNL     1       5.006  27.755  51.238  1.00  0.00     0.256 C 
HETATM    8  N   UNL     1       4.778  26.462  51.671  1.00  0.00    -0.323 N 
HETATM    9  H   UNL     1       3.929  26.008  51.368  1.00  0.00     0.169 HD
HETATM   10  O   UNL     1       5.797  28.549  51.734  1.00  0.00    -0.267 OA
BRANCH   8  11
HETATM   11  C   UNL     1       5.686  25.644  52.374  1.00  0.00     0.035 A 
HETATM   12  C   UNL     1       6.876  25.162  51.838  1.00  0.00     0.032 A 
HETATM   13  C   UNL     1       7.634  24.206  52.532  1.00  0.00     0.031 A 
HETATM   14  C   UNL     1       7.232  23.703  53.776  1.00  0.00     0.030 A 
HETATM   15  C   UNL     1       6.061  24.248  54.323  1.00  0.00     0.031 A 
HETATM   16  C   UNL     1       5.300  25.205  53.641  1.00  0.00     0.032 A 
BRANCH  14  17
HETATM   17  N   UNL     1       7.880  22.652  54.423  1.00  0.00    -0.381 N 
HETATM   18  C   UNL     1       8.428  22.925  55.760  1.00  0.00     0.123 C 
HETATM   19  C   UNL     1       8.472  21.618  56.554  1.00  0.00     0.020 C 
HETATM   20  C   UNL     1       9.258  20.541  55.810  1.00  0.00     0.003 C 
HETATM   21  C   UNL     1       8.727  20.359  54.389  1.00  0.00     0.020 C 
HETATM   22  C   UNL     1       8.659  21.688  53.636  1.00  0.00     0.123 C 
ENDBRANCH  14  17
ENDBRANCH   8  11
ENDBRANCH   4   7
BRANCH   1  23
HETATM   23  O   UNL     1       2.581  29.894  46.608  1.00  0.00    -0.342 OA
BRANCH  23  24
HETATM   24  C   UNL     1       2.912  31.262  46.397  1.00  0.00     0.278 C 
BRANCH  24  25
HETATM   25  C   UNL     1       4.394  31.636  46.174  1.00  0.00     0.246 C 
HETATM   26  N   UNL     1       4.804  32.729  46.917  1.00  0.00    -0.325 N 
HETATM   27  H   UNL     1       4.092  33.151  47.502  1.00  0.00     0.169 HD
HETATM   28  O   UNL     1       5.086  30.983  45.397  1.00  0.00    -0.271 OA
BRANCH  26  29
HETATM   29  C   UNL     1       6.029  33.422  46.844  1.00  0.00     0.037 A 
HETATM   30  C   UNL     1       6.538  33.989  45.672  1.00  0.00     0.066 A 
HETATM   31  C   UNL     1       7.753  34.684  45.691  1.00  0.00     0.070 A 
HETATM   32  C   UNL     1       8.449  34.821  46.894  1.00  0.00     0.037 A 
HETATM   33  C   UNL     1       7.953  34.259  48.066  1.00  0.00     0.005 A 
HETATM   34  C   UNL     1       6.750  33.553  48.038  1.00  0.00     0.029 A 
BRANCH  31  35
HETATM   35  O   UNL     1       8.360  35.274  44.614  1.00  0.00    -0.356 OA
HETATM   36  C   UNL     1       8.292  36.693  44.539  1.00  0.00     0.210 C 
ENDBRANCH  31  35
ENDBRANCH  26  29
ENDBRANCH  24  25
ENDBRANCH  23  24
ENDBRANCH   1  23
TORSDOF 8
ENDMDL
MODEL 9
REMARK VINA RESULT:      -8.8      2.711      3.764
REMARK  8 active torsions:
REMARK  status: ('A' for Active; 'I' for Inactive)
REMARK    1  A    between atoms: O_2  and  C_3 
REMARK    2  A    between atoms: C_5  and  N_6 
REMARK       I    between atoms: N_6  and  C_7 
REMARK    3  A    between atoms: C_7  and  C_8 
REMARK    4  A    between atoms: C_8  and  O_9 
REMARK    5  A    between atoms: O_9  and  C_10 
REMARK    6  A    between atoms: C_13  and  C_14 
REMARK       I    between atoms: C_14  and  N_15 
REMARK    7  A    between atoms: N_15  and  C_16 
REMARK    8  A    between atoms: C_19  and  N_20 
ROOT
HETATM    1  C   UNL     1       2.726  31.562  55.841  1.00  0.00     0.069 A 
HETATM    2  C   UNL     1       3.167  30.482  56.602  1.00  0.00     0.038 A 
HETATM    3  C   UNL     1       3.787  29.395  55.973  1.00  0.00     0.020 A 
HETATM    4  C   UNL     1       3.964  29.377  54.583  1.00  0.00     0.032 A 
HETATM    5  C   UNL     1       3.471  30.445  53.822  1.00  0.00     0.020 A 
HETATM    6  C   UNL     1       2.838  31.519  54.450  1.00  0.00     0.038 A 
ENDROOT
BRANCH   4   7
HETATM    7  C   UNL     1       4.806  28.291  53.984  1.00  0.00     0.256 C 
HETATM    8  N   UNL     1       5.961  27.979  54.676  1.00  0.00    -0.323 N 
HETATM    9  H   UNL     1       6.320  28.664  55.326  1.00  0.00     0.169 HD
HETATM   10  O   UNL     1       4.409  27.740  52.964  1.00  0.00    -0.267 OA
BRANCH   8  11
HETATM   11  C   UNL     1       6.619  26.731  54.685  1.00  0.00     0.035 A 
HETATM   12  C   UNL     1       7.415  26.263  53.645  1.00  0.00     0.032 A 
HETATM   13  C   UNL     1       7.883  24.940  53.646  1.00  0.00     0.031 A 
HETATM   14  C   UNL     1       7.574  24.046  54.679  1.00  0.00     0.030 A 
HETATM   15  C   UNL     1       6.820  24.558  55.745  1.00  0.00     0.031 A 
HETATM   16  C   UNL     1       6.352  25.878  55.756  1.00  0.00     0.032 A 
BRANCH  14  17
HETATM   17  N   UNL     1       7.898  22.690  54.642  1.00  0.00    -0.381 N 
HETATM   18  C   UNL     1       8.238  22.048  55.920  1.00  0.00     0.123 C 
HETATM   19  C   UNL     1       7.905  20.558  55.830  1.00  0.00     0.020 C 
HETATM   20  C   UNL     1       8.607  19.902  54.642  1.00  0.00     0.003 C 
HETATM   21  C   UNL     1       8.314  20.659  53.348  1.00  0.00     0.020 C 
HETATM   22  C   UNL     1       8.620  22.151  53.483  1.00  0.00     0.123 C 
ENDBRANCH  14  17
ENDBRANCH   8  11
ENDBRANCH   4   7
BRANCH   1  23
HETATM   23  O   UNL     1       2.256  32.750  56.330  1.00  0.00    -0.342 OA
BRANCH  23  24
HETATM   24  C   UNL     1       3.115  33.882  56.254  1.00  0.00     0.278 C 
BRANCH  24  25
HETATM   25  C   UNL     1       4.269  34.003  57.273  1.00  0.00     0.246 C 
HETATM   26  N   UNL     1       3.943  33.530  58.532  1.00  0.00    -0.325 N 
HETATM   27  H   UNL     1       3.000  33.177  58.635  1.00  0.00     0.169 HD
HETATM   28  O   UNL     1       5.348  34.480  56.931  1.00  0.00    -0.271 OA
BRANCH  26  29
HETATM   29  C   UNL     1       4.696  33.625  59.719  1.00  0.00     0.037 A 
HETATM   30  C   UNL     1       4.528  34.633  60.674  1.00  0.00     0.066 A 
HETATM   31  C   UNL     1       5.302  34.641  61.840  1.00  0.00     0.070 A 
HETATM   32  C   UNL     1       6.236  33.625  62.054  1.00  0.00     0.037 A 
HETATM   33  C   UNL     1       6.413  32.618  61.110  1.00  0.00     0.005 A 
HETATM   34  C   UNL     1       5.651  32.624  59.942  1.00  0.00     0.029 A 
BRANCH  31  35
HETATM   35  O   UNL     1       5.239  35.573  62.842  1.00  0.00    -0.356 OA
HETATM   36  C   UNL     1       5.797  35.203  64.097  1.00  0.00     0.210 C 
ENDBRANCH  31  35
ENDBRANCH  26  29
ENDBRANCH  24  25
ENDBRANCH  23  24
ENDBRANCH   1  23
TORSDOF 8
ENDMDL
MODEL 10
REMARK VINA RESULT:      -8.7      2.779     12.413
REMARK  8 active torsions:
REMARK  status: ('A' for Active; 'I' for Inactive)
REMARK    1  A    between atoms: O_2  and  C_3 
REMARK    2  A    between atoms: C_5  and  N_6 
REMARK       I    between atoms: N_6  and  C_7 
REMARK    3  A    between atoms: C_7  and  C_8 
REMARK    4  A    between atoms: C_8  and  O_9 
REMARK    5  A    between atoms: O_9  and  C_10 
REMARK    6  A    between atoms: C_13  and  C_14 
REMARK       I    between atoms: C_14  and  N_15 
REMARK    7  A    between atoms: N_15  and  C_16 
REMARK    8  A    between atoms: C_19  and  N_20 
ROOT
HETATM    1  C   UNL     1       5.599  28.830  55.099  1.00  0.00     0.069 A 
HETATM    2  C   UNL     1       5.112  30.129  55.220  1.00  0.00     0.038 A 
HETATM    3  C   UNL     1       5.304  30.836  56.414  1.00  0.00     0.020 A 
HETATM    4  C   UNL     1       5.975  30.248  57.495  1.00  0.00     0.032 A 
HETATM    5  C   UNL     1       6.414  28.922  57.381  1.00  0.00     0.020 A 
HETATM    6  C   UNL     1       6.206  28.215  56.195  1.00  0.00     0.038 A 
ENDROOT
BRANCH   4   7
HETATM    7  C   UNL     1       6.329  31.108  58.670  1.00  0.00     0.256 C 
HETATM    8  N   UNL     1       5.301  31.881  59.177  1.00  0.00    -0.323 N 
HETATM    9  H   UNL     1       4.507  32.059  58.579  1.00  0.00     0.169 HD
HETATM   10  O   UNL     1       7.468  31.046  59.117  1.00  0.00    -0.267 OA
BRANCH   8  11
HETATM   11  C   UNL     1       5.170  32.327  60.509  1.00  0.00     0.035 A 
HETATM   12  C   UNL     1       4.001  32.218  61.255  1.00  0.00     0.032 A 
HETATM   13  C   UNL     1       3.890  32.849  62.503  1.00  0.00     0.031 A 
HETATM   14  C   UNL     1       4.936  33.606  63.045  1.00  0.00     0.030 A 
HETATM   15  C   UNL     1       6.125  33.654  62.302  1.00  0.00     0.031 A 
HETATM   16  C   UNL     1       6.247  33.023  61.057  1.00  0.00     0.032 A 
BRANCH  14  17
HETATM   17  N   UNL     1       4.811  34.364  64.209  1.00  0.00    -0.381 N 
HETATM   18  C   UNL     1       5.316  35.744  64.166  1.00  0.00     0.123 C 
HETATM   19  C   UNL     1       4.541  36.587  65.181  1.00  0.00     0.020 C 
HETATM   20  C   UNL     1       4.616  35.980  66.580  1.00  0.00     0.003 C 
HETATM   21  C   UNL     1       4.184  34.516  66.566  1.00  0.00     0.020 C 
HETATM   22  C   UNL     1       4.949  33.710  65.515  1.00  0.00     0.123 C 
ENDBRANCH  14  17
ENDBRANCH   8  11
ENDBRANCH   4   7
BRANCH   1  23
HETATM   23  O   UNL     1       5.627  28.087  53.951  1.00  0.00    -0.342 OA
BRANCH  23  24
HETATM   24  C   UNL     1       4.608  27.110  53.771  1.00  0.00     0.278 C 
BRANCH  24  25
HETATM   25  C   UNL     1       5.016  25.621  53.707  1.00  0.00     0.246 C 
HETATM   26  N   UNL     1       6.234  25.357  54.308  1.00  0.00    -0.325 N 
HETATM   27  H   UNL     1       6.709  26.160  54.703  1.00  0.00     0.169 HD
HETATM   28  O   UNL     1       4.280  24.802  53.161  1.00  0.00    -0.271 OA
BRANCH  26  29
HETATM   29  C   UNL     1       6.967  24.154  54.298  1.00  0.00     0.037 A 
HETATM   30  C   UNL     1       7.369  23.473  55.452  1.00  0.00     0.066 A 
HETATM   31  C   UNL     1       8.074  22.269  55.354  1.00  0.00     0.070 A 
HETATM   32  C   UNL     1       8.362  21.739  54.095  1.00  0.00     0.037 A 
HETATM   33  C   UNL     1       7.969  22.408  52.940  1.00  0.00     0.005 A 
HETATM   34  C   UNL     1       7.281  23.617  53.043  1.00  0.00     0.029 A 
BRANCH  31  35
HETATM   35  O   UNL     1       8.529  21.515  56.404  1.00  0.00    -0.356 OA
HETATM   36  C   UNL     1       9.153  20.278  56.081  1.00  0.00     0.210 C 
ENDBRANCH  31  35
ENDBRANCH  26  29
ENDBRANCH  24  25
ENDBRANCH  23  24
ENDBRANCH   1  23
TORSDOF 8
ENDMDL
