MODEL 1
REMARK VINA RESULT:     -10.3      0.000      0.000
REMARK  6 active torsions:
REMARK  status: ('A' for Active; 'I' for Inactive)
REMARK    1  A    between atoms: C_4  and  C_5 
REMARK    2  A    between atoms: C_5  and  O_6 
REMARK    3  A    between atoms: O_6  and  C_7 
REMARK    4  A    between atoms: C_10  and  C_11 
REMARK    5  A    between atoms: C_17  and  C_18 
REMARK    6  A    between atoms: C_26  and  N_27 
ROOT
HETATM    1  C   UNL     1       6.212  29.520  56.795  1.00  0.00     0.072 A 
HETATM    2  N   UNL     1       5.083  30.234  56.449  1.00  0.00    -0.274 N 
HETATM    3  H   UNL     1       4.455  30.057  55.672  1.00  0.00     0.189 HD
HETATM    4  N   UNL     1       4.826  31.284  57.255  1.00  0.00    -0.148 NA
HETATM    5  C   UNL     1       5.810  31.209  58.140  1.00  0.00     0.199 A 
HETATM    6  C   UNL     1       6.694  30.152  57.929  1.00  0.00     0.040 A 
HETATM    7  C   UNL     1       7.877  29.949  58.812  1.00  0.00     0.108 A 
HETATM    8  C   UNL     1       7.890  30.994  59.930  1.00  0.00     0.081 A 
HETATM    9  C   UNL     1       8.905  30.854  60.925  1.00  0.00     0.100 C 
HETATM   10  N   UNL     1       9.733  30.737  61.729  1.00  0.00    -0.191 NA
HETATM   11  C   UNL     1       6.966  31.985  60.033  1.00  0.00     0.140 A 
HETATM   12  O   UNL     1       5.913  32.124  59.119  1.00  0.00    -0.277 OA
ENDROOT
BRANCH   7  13
HETATM   13  C   UNL     1       9.165  29.951  58.030  1.00  0.00    -0.020 A 
HETATM   14  C   UNL     1      10.045  30.999  57.837  1.00  0.00     0.149 A 
HETATM   15  O   UNL     1      11.094  30.617  57.066  1.00  0.00    -0.334 OA
HETATM   16  C   UNL     1      10.899  29.311  56.754  1.00  0.00     0.142 A 
HETATM   17  C   UNL     1       9.734  28.851  57.320  1.00  0.00     0.034 A 
ENDBRANCH   7  13
BRANCH  11  18
HETATM   18  N   UNL     1       6.937  32.947  61.021  1.00  0.00    -0.282 NA
HETATM   19  H   UNL     1       6.410  32.707  61.857  1.00  0.00     0.126 HD
HETATM   20  H   UNL     1       7.868  33.308  61.226  1.00  0.00     0.126 HD
ENDBRANCH  11  18
BRANCH   1  21
HETATM   21  C   UNL     1       6.719  28.397  56.018  1.00  0.00    -0.007 A 
HETATM   22  C   UNL     1       6.733  27.109  56.565  1.00  0.00     0.016 A 
HETATM   23  C   UNL     1       7.145  26.011  55.800  1.00  0.00     0.037 A 
HETATM   24  C   UNL     1       7.540  26.192  54.476  1.00  0.00     0.069 A 
HETATM   25  C   UNL     1       7.567  27.480  53.939  1.00  0.00     0.037 A 
HETATM   26  C   UNL     1       7.154  28.577  54.702  1.00  0.00     0.016 A 
BRANCH  24  27
HETATM   27  O   UNL     1       7.923  25.198  53.618  1.00  0.00    -0.347 OA
BRANCH  27  28
HETATM   28  C   UNL     1       6.953  24.179  53.361  1.00  0.00     0.214 C 
BRANCH  28  29
HETATM   29  C   UNL     1       7.470  22.831  53.810  1.00  0.00    -0.034 A 
HETATM   30  C   UNL     1       7.448  22.489  55.171  1.00  0.00     0.009 A 
HETATM   31  C   UNL     1       7.863  21.225  55.594  1.00  0.00     0.001 A 
HETATM   32  C   UNL     1       8.297  20.285  54.661  1.00  0.00     0.000 A 
HETATM   33  C   UNL     1       8.313  20.606  53.306  1.00  0.00     0.001 A 
HETATM   34  C   UNL     1       7.895  21.869  52.882  1.00  0.00     0.009 A 
ENDBRANCH  28  29
ENDBRANCH  27  28
ENDBRANCH  24  27
ENDBRANCH   1  21
TORSDOF 6
ENDMDL
MODEL 2
REMARK VINA RESULT:      -9.6      6.239      8.560
REMARK  6 active torsions:
REMARK  status: ('A' for Active; 'I' for Inactive)
REMARK    1  A    between atoms: C_4  and  C_5 
REMARK    2  A    between atoms: C_5  and  O_6 
REMARK    3  A    between atoms: O_6  and  C_7 
REMARK    4  A    between atoms: C_10  and  C_11 
REMARK    5  A    between atoms: C_17  and  C_18 
REMARK    6  A    between atoms: C_26  and  N_27 
ROOT
HETATM    1  C   UNL     1       4.716  26.913  49.562  1.00  0.00     0.072 A 
HETATM    2  N   UNL     1       5.340  26.482  48.409  1.00  0.00    -0.274 N 
HETATM    3  H   UNL     1       6.072  25.786  48.327  1.00  0.00     0.189 HD
HETATM    4  N   UNL     1       4.903  27.089  47.286  1.00  0.00    -0.148 NA
HETATM    5  C   UNL     1       3.966  27.904  47.751  1.00  0.00     0.199 A 
HETATM    6  C   UNL     1       3.789  27.848  49.133  1.00  0.00     0.040 A 
HETATM    7  C   UNL     1       2.802  28.728  49.819  1.00  0.00     0.108 A 
HETATM    8  C   UNL     1       2.046  29.579  48.795  1.00  0.00     0.081 A 
HETATM    9  C   UNL     1       0.985  30.391  49.296  1.00  0.00     0.100 C 
HETATM   10  N   UNL     1       0.123  31.050  49.709  1.00  0.00    -0.191 NA
HETATM   11  C   UNL     1       2.310  29.545  47.462  1.00  0.00     0.140 A 
HETATM   12  O   UNL     1       3.298  28.716  46.914  1.00  0.00    -0.277 OA
ENDROOT
BRANCH   7  13
HETATM   13  C   UNL     1       3.453  29.578  50.879  1.00  0.00    -0.020 A 
HETATM   14  C   UNL     1       4.409  30.563  50.715  1.00  0.00     0.149 A 
HETATM   15  O   UNL     1       4.759  31.104  51.909  1.00  0.00    -0.334 OA
HETATM   16  C   UNL     1       4.029  30.469  52.859  1.00  0.00     0.142 A 
HETATM   17  C   UNL     1       3.210  29.526  52.285  1.00  0.00     0.034 A 
ENDBRANCH   7  13
BRANCH  11  18
HETATM   18  N   UNL     1       1.657  30.291  46.503  1.00  0.00    -0.282 NA
HETATM   19  H   UNL     1       2.253  30.823  45.874  1.00  0.00     0.126 HD
HETATM   20  H   UNL     1       0.948  29.745  46.015  1.00  0.00     0.126 HD
ENDBRANCH  11  18
BRANCH   1  21
HETATM   21  C   UNL     1       5.086  26.450  50.893  1.00  0.00    -0.007 A 
HETATM   22  C   UNL     1       4.629  25.214  51.363  1.00  0.00     0.016 A 
HETATM   23  C   UNL     1       5.041  24.726  52.608  1.00  0.00     0.037 A 
HETATM   24  C   UNL     1       5.923  25.468  53.392  1.00  0.00     0.069 A 
HETATM   25  C   UNL     1       6.348  26.720  52.946  1.00  0.00     0.037 A 
HETATM   26  C   UNL     1       5.937  27.208  51.702  1.00  0.00     0.016 A 
BRANCH  24  27
HETATM   27  O   UNL     1       6.427  25.082  54.604  1.00  0.00    -0.347 OA
BRANCH  27  28
HETATM   28  C   UNL     1       7.780  24.616  54.602  1.00  0.00     0.214 C 
BRANCH  28  29
HETATM   29  C   UNL     1       7.821  23.112  54.445  1.00  0.00    -0.034 A 
HETATM   30  C   UNL     1       8.043  22.546  53.180  1.00  0.00     0.009 A 
HETATM   31  C   UNL     1       8.147  21.162  53.029  1.00  0.00     0.001 A 
HETATM   32  C   UNL     1       8.039  20.328  54.141  1.00  0.00     0.000 A 
HETATM   33  C   UNL     1       7.831  20.878  55.404  1.00  0.00     0.001 A 
HETATM   34  C   UNL     1       7.729  22.262  55.557  1.00  0.00     0.009 A 
ENDBRANCH  28  29
ENDBRANCH  27  28
ENDBRANCH  24  27
ENDBRANCH   1  21
TORSDOF 6
ENDMDL
MODEL 3
REMARK VINA RESULT:      -9.4      1.768      2.622
REMARK  6 active torsions:
REMARK  status: ('A' for Active; 'I' for Inactive)
REMARK    1  A    between atoms: C_4  and  C_5 
REMARK    2  A    between atoms: C_5  and  O_6 
REMARK    3  A    between atoms: O_6  and  C_7 
REMARK    4  A    between atoms: C_10  and  C_11 
REMARK    5  A    between atoms: C_17  and  C_18 
REMARK    6  A    between atoms: C_26  and  N_27 
ROOT
HETATM    1  C   UNL     1       5.200  28.959  55.534  1.00  0.00     0.072 A 
HETATM    2  N   UNL     1       4.540  29.369  54.394  1.00  0.00    -0.274 N 
HETATM    3  H   UNL     1       4.267  28.800  53.601  1.00  0.00     0.189 HD
HETATM    4  N   UNL     1       4.251  30.687  54.368  1.00  0.00    -0.148 NA
HETATM    5  C   UNL     1       4.726  31.104  55.533  1.00  0.00     0.199 A 
HETATM    6  C   UNL     1       5.315  30.103  56.306  1.00  0.00     0.040 A 
HETATM    7  C   UNL     1       5.931  30.413  57.627  1.00  0.00     0.108 A 
HETATM    8  C   UNL     1       5.748  31.895  57.964  1.00  0.00     0.081 A 
HETATM    9  C   UNL     1       6.188  32.316  59.255  1.00  0.00     0.100 C 
HETATM   10  N   UNL     1       6.549  32.654  60.305  1.00  0.00    -0.191 NA
HETATM   11  C   UNL     1       5.152  32.781  57.123  1.00  0.00     0.140 A 
HETATM   12  O   UNL     1       4.646  32.402  55.872  1.00  0.00    -0.277 OA
ENDROOT
BRANCH   7  13
HETATM   13  C   UNL     1       7.380  30.004  57.677  1.00  0.00    -0.020 A 
HETATM   14  C   UNL     1       8.129  29.646  58.782  1.00  0.00     0.149 A 
HETATM   15  O   UNL     1       9.404  29.347  58.429  1.00  0.00    -0.334 OA
HETATM   16  C   UNL     1       9.490  29.509  57.086  1.00  0.00     0.142 A 
HETATM   17  C   UNL     1       8.279  29.908  56.572  1.00  0.00     0.034 A 
ENDBRANCH   7  13
BRANCH  11  18
HETATM   18  N   UNL     1       4.965  34.122  57.383  1.00  0.00    -0.282 NA
HETATM   19  H   UNL     1       5.367  34.765  56.706  1.00  0.00     0.126 HD
HETATM   20  H   UNL     1       3.993  34.334  57.605  1.00  0.00     0.126 HD
ENDBRANCH  11  18
BRANCH   1  21
HETATM   21  C   UNL     1       5.677  27.598  55.738  1.00  0.00    -0.007 A 
HETATM   22  C   UNL     1       6.712  27.087  54.947  1.00  0.00     0.016 A 
HETATM   23  C   UNL     1       7.231  25.809  55.186  1.00  0.00     0.037 A 
HETATM   24  C   UNL     1       6.722  25.032  56.226  1.00  0.00     0.069 A 
HETATM   25  C   UNL     1       5.661  25.522  56.990  1.00  0.00     0.037 A 
HETATM   26  C   UNL     1       5.144  26.799  56.753  1.00  0.00     0.016 A 
BRANCH  24  27
HETATM   27  O   UNL     1       7.169  23.790  56.583  1.00  0.00    -0.347 OA
BRANCH  27  28
HETATM   28  C   UNL     1       8.508  23.468  56.194  1.00  0.00     0.214 C 
BRANCH  28  29
HETATM   29  C   UNL     1       8.507  22.376  55.148  1.00  0.00    -0.034 A 
HETATM   30  C   UNL     1       8.802  21.054  55.515  1.00  0.00     0.009 A 
HETATM   31  C   UNL     1       8.745  20.025  54.573  1.00  0.00     0.001 A 
HETATM   32  C   UNL     1       8.383  20.303  53.256  1.00  0.00     0.000 A 
HETATM   33  C   UNL     1       8.075  21.610  52.881  1.00  0.00     0.001 A 
HETATM   34  C   UNL     1       8.130  22.639  53.822  1.00  0.00     0.009 A 
ENDBRANCH  28  29
ENDBRANCH  27  28
ENDBRANCH  24  27
ENDBRANCH   1  21
TORSDOF 6
ENDMDL
MODEL 4
REMARK VINA RESULT:      -9.4      2.836      3.861
REMARK  6 active torsions:
REMARK  status: ('A' for Active; 'I' for Inactive)
REMARK    1  A    between atoms: C_4  and  C_5 
REMARK    2  A    between atoms: C_5  and  O_6 
REMARK    3  A    between atoms: O_6  and  C_7 
REMARK    4  A    between atoms: C_10  and  C_11 
REMARK    5  A    between atoms: C_17  and  C_18 
REMARK    6  A    between atoms: C_26  and  N_27 
ROOT
HETATM    1  C   UNL     1       4.704  29.501  53.513  1.00  0.00     0.072 A 
HETATM    2  N   UNL     1       4.615  30.390  52.462  1.00  0.00    -0.274 N 
HETATM    3  H   UNL     1       4.828  30.215  51.486  1.00  0.00     0.189 HD
HETATM    4  N   UNL     1       4.205  31.625  52.817  1.00  0.00    -0.148 NA
HETATM    5  C   UNL     1       4.012  31.494  54.122  1.00  0.00     0.199 A 
HETATM    6  C   UNL     1       4.290  30.221  54.620  1.00  0.00     0.040 A 
HETATM    7  C   UNL     1       4.160  29.918  56.073  1.00  0.00     0.108 A 
HETATM    8  C   UNL     1       3.648  31.147  56.829  1.00  0.00     0.081 A 
HETATM    9  C   UNL     1       3.365  30.972  58.217  1.00  0.00     0.100 C 
HETATM   10  N   UNL     1       3.138  30.825  59.346  1.00  0.00    -0.191 NA
HETATM   11  C   UNL     1       3.411  32.343  56.229  1.00  0.00     0.140 A 
HETATM   12  O   UNL     1       3.612  32.546  54.857  1.00  0.00    -0.277 OA
ENDROOT
BRANCH   7  13
HETATM   13  C   UNL     1       5.452  29.404  56.653  1.00  0.00    -0.020 A 
HETATM   14  C   UNL     1       6.650  30.079  56.803  1.00  0.00     0.149 A 
HETATM   15  O   UNL     1       7.592  29.278  57.360  1.00  0.00    -0.334 OA
HETATM   16  C   UNL     1       7.008  28.074  57.579  1.00  0.00     0.142 A 
HETATM   17  C   UNL     1       5.697  28.095  57.166  1.00  0.00     0.034 A 
ENDBRANCH   7  13
BRANCH  11  18
HETATM   18  N   UNL     1       2.950  33.475  56.867  1.00  0.00    -0.282 NA
HETATM   19  H   UNL     1       3.615  33.941  57.480  1.00  0.00     0.126 HD
HETATM   20  H   UNL     1       2.489  34.115  56.221  1.00  0.00     0.126 HD
ENDBRANCH  11  18
BRANCH   1  21
HETATM   21  C   UNL     1       5.200  28.139  53.370  1.00  0.00    -0.007 A 
HETATM   22  C   UNL     1       4.308  27.080  53.164  1.00  0.00     0.016 A 
HETATM   23  C   UNL     1       4.779  25.780  52.948  1.00  0.00     0.037 A 
HETATM   24  C   UNL     1       6.150  25.528  52.927  1.00  0.00     0.069 A 
HETATM   25  C   UNL     1       7.042  26.573  53.173  1.00  0.00     0.037 A 
HETATM   26  C   UNL     1       6.572  27.873  53.388  1.00  0.00     0.016 A 
BRANCH  24  27
HETATM   27  O   UNL     1       6.732  24.314  52.687  1.00  0.00    -0.347 OA
BRANCH  27  28
HETATM   28  C   UNL     1       7.984  24.076  53.337  1.00  0.00     0.214 C 
BRANCH  28  29
HETATM   29  C   UNL     1       7.995  22.708  53.981  1.00  0.00    -0.034 A 
HETATM   30  C   UNL     1       8.265  21.571  53.203  1.00  0.00     0.009 A 
HETATM   31  C   UNL     1       8.341  20.308  53.794  1.00  0.00     0.001 A 
HETATM   32  C   UNL     1       8.157  20.167  55.168  1.00  0.00     0.000 A 
HETATM   33  C   UNL     1       7.900  21.289  55.953  1.00  0.00     0.001 A 
HETATM   34  C   UNL     1       7.826  22.553  55.364  1.00  0.00     0.009 A 
ENDBRANCH  28  29
ENDBRANCH  27  28
ENDBRANCH  24  27
ENDBRANCH   1  21
TORSDOF 6
ENDMDL
MODEL 5
REMARK VINA RESULT:      -9.0      2.179      4.356
REMARK  6 active torsions:
REMARK  status: ('A' for Active; 'I' for Inactive)
REMARK    1  A    between atoms: C_4  and  C_5 
REMARK    2  A    between atoms: C_5  and  O_6 
REMARK    3  A    between atoms: O_6  and  C_7 
REMARK    4  A    between atoms: C_10  and  C_11 
REMARK    5  A    between atoms: C_17  and  C_18 
REMARK    6  A    between atoms: C_26  and  N_27 
ROOT
HETATM    1  C   UNL     1       7.413  30.756  59.171  1.00  0.00     0.072 A 
HETATM    2  N   UNL     1       8.006  30.443  60.376  1.00  0.00    -0.274 N 
HETATM    3  H   UNL     1       8.675  29.703  60.561  1.00  0.00     0.189 HD
HETATM    4  N   UNL     1       7.617  31.227  61.403  1.00  0.00    -0.148 NA
HETATM    5  C   UNL     1       6.774  32.065  60.815  1.00  0.00     0.199 A 
HETATM    6  C   UNL     1       6.603  31.845  59.449  1.00  0.00     0.040 A 
HETATM    7  C   UNL     1       5.661  32.676  58.648  1.00  0.00     0.108 A 
HETATM    8  C   UNL     1       5.029  33.759  59.526  1.00  0.00     0.081 A 
HETATM    9  C   UNL     1       4.189  34.707  58.867  1.00  0.00     0.100 C 
HETATM   10  N   UNL     1       3.506  35.474  58.327  1.00  0.00    -0.191 NA
HETATM   11  C   UNL     1       5.276  33.874  60.857  1.00  0.00     0.140 A 
HETATM   12  O   UNL     1       6.144  33.008  61.536  1.00  0.00    -0.277 OA
ENDROOT
BRANCH   7  13
HETATM   13  C   UNL     1       4.618  31.834  57.962  1.00  0.00    -0.020 A 
HETATM   14  C   UNL     1       3.642  31.044  58.540  1.00  0.00     0.149 A 
HETATM   15  O   UNL     1       2.891  30.428  57.594  1.00  0.00    -0.334 OA
HETATM   16  C   UNL     1       3.377  30.816  56.389  1.00  0.00     0.142 A 
HETATM   17  C   UNL     1       4.435  31.679  56.554  1.00  0.00     0.034 A 
ENDBRANCH   7  13
BRANCH  11  18
HETATM   18  N   UNL     1       4.731  34.832  61.687  1.00  0.00    -0.282 NA
HETATM   19  H   UNL     1       3.724  34.958  61.616  1.00  0.00     0.126 HD
HETATM   20  H   UNL     1       5.052  34.728  62.649  1.00  0.00     0.126 HD
ENDBRANCH  11  18
BRANCH   1  21
HETATM   21  C   UNL     1       7.627  29.992  57.950  1.00  0.00    -0.007 A 
HETATM   22  C   UNL     1       6.628  29.141  57.465  1.00  0.00     0.016 A 
HETATM   23  C   UNL     1       6.793  28.462  56.252  1.00  0.00     0.037 A 
HETATM   24  C   UNL     1       7.958  28.636  55.508  1.00  0.00     0.069 A 
HETATM   25  C   UNL     1       8.975  29.451  56.008  1.00  0.00     0.037 A 
HETATM   26  C   UNL     1       8.810  30.130  57.219  1.00  0.00     0.016 A 
BRANCH  24  27
HETATM   27  O   UNL     1       8.219  28.061  54.294  1.00  0.00    -0.347 OA
BRANCH  27  28
HETATM   28  C   UNL     1       7.127  27.377  53.674  1.00  0.00     0.214 C 
BRANCH  28  29
HETATM   29  C   UNL     1       7.380  25.887  53.652  1.00  0.00    -0.034 A 
HETATM   30  C   UNL     1       7.110  25.113  54.792  1.00  0.00     0.009 A 
HETATM   31  C   UNL     1       7.279  23.727  54.767  1.00  0.00     0.001 A 
HETATM   32  C   UNL     1       7.710  23.097  53.601  1.00  0.00     0.000 A 
HETATM   33  C   UNL     1       7.969  23.852  52.459  1.00  0.00     0.001 A 
HETATM   34  C   UNL     1       7.799  25.237  52.482  1.00  0.00     0.009 A 
ENDBRANCH  28  29
ENDBRANCH  27  28
ENDBRANCH  24  27
ENDBRANCH   1  21
TORSDOF 6
ENDMDL
MODEL 6
REMARK VINA RESULT:      -8.9      3.512      5.205
REMARK  6 active torsions:
REMARK  status: ('A' for Active; 'I' for Inactive)
REMARK    1  A    between atoms: C_4  and  C_5 
REMARK    2  A    between atoms: C_5  and  O_6 
REMARK    3  A    between atoms: O_6  and  C_7 
REMARK    4  A    between atoms: C_10  and  C_11 
REMARK    5  A    between atoms: C_17  and  C_18 
REMARK    6  A    between atoms: C_26  and  N_27 
ROOT
HETATM    1  C   UNL     1       5.550  28.415  53.232  1.00  0.00     0.072 A 
HETATM    2  N   UNL     1       6.061  28.507  51.954  1.00  0.00    -0.274 N 
HETATM    3  H   UNL     1       6.716  27.876  51.504  1.00  0.00     0.189 HD
HETATM    4  N   UNL     1       5.623  29.578  51.260  1.00  0.00    -0.148 NA
HETATM    5  C   UNL     1       4.800  30.156  52.123  1.00  0.00     0.199 A 
HETATM    6  C   UNL     1       4.697  29.500  53.349  1.00  0.00     0.040 A 
HETATM    7  C   UNL     1       3.842  30.041  54.442  1.00  0.00     0.108 A 
HETATM    8  C   UNL     1       3.117  31.306  53.975  1.00  0.00     0.081 A 
HETATM    9  C   UNL     1       2.171  31.873  54.880  1.00  0.00     0.100 C 
HETATM   10  N   UNL     1       1.404  32.331  55.621  1.00  0.00    -0.191 NA
HETATM   11  C   UNL     1       3.300  31.855  52.745  1.00  0.00     0.140 A 
HETATM   12  O   UNL     1       4.169  31.298  51.797  1.00  0.00    -0.277 OA
ENDROOT
BRANCH   7  13
HETATM   13  C   UNL     1       4.633  30.285  55.701  1.00  0.00    -0.020 A 
HETATM   14  C   UNL     1       5.464  31.349  55.995  1.00  0.00     0.149 A 
HETATM   15  O   UNL     1       6.010  31.214  57.230  1.00  0.00    -0.334 OA
HETATM   16  C   UNL     1       5.533  30.054  57.747  1.00  0.00     0.142 A 
HETATM   17  C   UNL     1       4.683  29.445  56.855  1.00  0.00     0.034 A 
ENDBRANCH   7  13
BRANCH  11  18
HETATM   18  N   UNL     1       2.670  32.990  52.280  1.00  0.00    -0.282 NA
HETATM   19  H   UNL     1       1.654  32.972  52.297  1.00  0.00     0.126 HD
HETATM   20  H   UNL     1       3.060  33.837  52.692  1.00  0.00     0.126 HD
ENDBRANCH  11  18
BRANCH   1  21
HETATM   21  C   UNL     1       5.947  27.385  54.181  1.00  0.00    -0.007 A 
HETATM   22  C   UNL     1       5.160  26.240  54.351  1.00  0.00     0.016 A 
HETATM   23  C   UNL     1       5.572  25.208  55.202  1.00  0.00     0.037 A 
HETATM   24  C   UNL     1       6.782  25.309  55.887  1.00  0.00     0.069 A 
HETATM   25  C   UNL     1       7.549  26.467  55.753  1.00  0.00     0.037 A 
HETATM   26  C   UNL     1       7.139  27.498  54.902  1.00  0.00     0.016 A 
BRANCH  24  27
HETATM   27  O   UNL     1       7.310  24.356  56.713  1.00  0.00    -0.347 OA
BRANCH  27  28
HETATM   28  C   UNL     1       8.578  23.819  56.325  1.00  0.00     0.214 C 
BRANCH  28  29
HETATM   29  C   UNL     1       8.396  22.704  55.320  1.00  0.00    -0.034 A 
HETATM   30  C   UNL     1       8.242  21.381  55.762  1.00  0.00     0.009 A 
HETATM   31  C   UNL     1       8.011  20.349  54.850  1.00  0.00     0.001 A 
HETATM   32  C   UNL     1       7.921  20.629  53.487  1.00  0.00     0.000 A 
HETATM   33  C   UNL     1       8.060  21.940  53.036  1.00  0.00     0.001 A 
HETATM   34  C   UNL     1       8.289  22.972  53.947  1.00  0.00     0.009 A 
ENDBRANCH  28  29
ENDBRANCH  27  28
ENDBRANCH  24  27
ENDBRANCH   1  21
TORSDOF 6
ENDMDL
MODEL 7
REMARK VINA RESULT:      -8.8      4.780      7.000
REMARK  6 active torsions:
REMARK  status: ('A' for Active; 'I' for Inactive)
REMARK    1  A    between atoms: C_4  and  C_5 
REMARK    2  A    between atoms: C_5  and  O_6 
REMARK    3  A    between atoms: O_6  and  C_7 
REMARK    4  A    between atoms: C_10  and  C_11 
REMARK    5  A    between atoms: C_17  and  C_18 
REMARK    6  A    between atoms: C_26  and  N_27 
ROOT
HETATM    1  C   UNL     1       4.731  29.033  53.348  1.00  0.00     0.072 A 
HETATM    2  N   UNL     1       4.008  29.442  54.449  1.00  0.00    -0.274 N 
HETATM    3  H   UNL     1       3.974  29.003  55.363  1.00  0.00     0.189 HD
HETATM    4  N   UNL     1       3.266  30.549  54.242  1.00  0.00    -0.148 NA
HETATM    5  C   UNL     1       3.552  30.850  52.983  1.00  0.00     0.199 A 
HETATM    6  C   UNL     1       4.447  29.973  52.371  1.00  0.00     0.040 A 
HETATM    7  C   UNL     1       4.844  30.149  50.946  1.00  0.00     0.108 A 
HETATM    8  C   UNL     1       4.187  31.401  50.361  1.00  0.00     0.081 A 
HETATM    9  C   UNL     1       4.566  31.763  49.033  1.00  0.00     0.100 C 
HETATM   10  N   UNL     1       4.877  32.051  47.953  1.00  0.00    -0.191 NA
HETATM   11  C   UNL     1       3.325  32.184  51.062  1.00  0.00     0.140 A 
HETATM   12  O   UNL     1       2.972  31.908  52.390  1.00  0.00    -0.277 OA
ENDROOT
BRANCH   7  13
HETATM   13  C   UNL     1       4.536  28.923  50.126  1.00  0.00    -0.020 A 
HETATM   14  C   UNL     1       3.299  28.373  49.842  1.00  0.00     0.149 A 
HETATM   15  O   UNL     1       3.426  27.261  49.076  1.00  0.00    -0.334 OA
HETATM   16  C   UNL     1       4.752  27.081  48.857  1.00  0.00     0.142 A 
HETATM   17  C   UNL     1       5.479  28.071  49.475  1.00  0.00     0.034 A 
ENDBRANCH   7  13
BRANCH  11  18
HETATM   18  N   UNL     1       2.710  33.321  50.579  1.00  0.00    -0.282 NA
HETATM   19  H   UNL     1       2.697  34.119  51.209  1.00  0.00     0.126 HD
HETATM   20  H   UNL     1       3.034  33.558  49.642  1.00  0.00     0.126 HD
ENDBRANCH  11  18
BRANCH   1  21
HETATM   21  C   UNL     1       5.537  27.820  53.324  1.00  0.00    -0.007 A 
HETATM   22  C   UNL     1       4.961  26.597  52.962  1.00  0.00     0.016 A 
HETATM   23  C   UNL     1       5.743  25.441  52.860  1.00  0.00     0.037 A 
HETATM   24  C   UNL     1       7.113  25.500  53.112  1.00  0.00     0.069 A 
HETATM   25  C   UNL     1       7.683  26.708  53.513  1.00  0.00     0.037 A 
HETATM   26  C   UNL     1       6.903  27.864  53.614  1.00  0.00     0.016 A 
BRANCH  24  27
HETATM   27  O   UNL     1       7.986  24.452  53.008  1.00  0.00    -0.347 OA
BRANCH  27  28
HETATM   28  C   UNL     1       7.401  23.164  52.794  1.00  0.00     0.214 C 
BRANCH  28  29
HETATM   29  C   UNL     1       7.780  22.219  53.912  1.00  0.00    -0.034 A 
HETATM   30  C   UNL     1       8.199  20.913  53.613  1.00  0.00     0.009 A 
HETATM   31  C   UNL     1       8.612  20.049  54.629  1.00  0.00     0.001 A 
HETATM   32  C   UNL     1       8.619  20.482  55.954  1.00  0.00     0.000 A 
HETATM   33  C   UNL     1       8.217  21.779  56.263  1.00  0.00     0.001 A 
HETATM   34  C   UNL     1       7.806  22.645  55.248  1.00  0.00     0.009 A 
ENDBRANCH  28  29
ENDBRANCH  27  28
ENDBRANCH  24  27
ENDBRANCH   1  21
TORSDOF 6
ENDMDL
MODEL 8
REMARK VINA RESULT:      -8.6      4.952      7.049
REMARK  6 active torsions:
REMARK  status: ('A' for Active; 'I' for Inactive)
REMARK    1  A    between atoms: C_4  and  C_5 
REMARK    2  A    between atoms: C_5  and  O_6 
REMARK    3  A    between atoms: O_6  and  C_7 
REMARK    4  A    between atoms: C_10  and  C_11 
REMARK    5  A    between atoms: C_17  and  C_18 
REMARK    6  A    between atoms: C_26  and  N_27 
ROOT
HETATM    1  C   UNL     1       5.475  26.787  53.658  1.00  0.00     0.072 A 
HETATM    2  N   UNL     1       5.324  25.432  53.449  1.00  0.00    -0.274 N 
HETATM    3  H   UNL     1       4.906  24.973  52.647  1.00  0.00     0.189 HD
HETATM    4  N   UNL     1       5.791  24.663  54.455  1.00  0.00    -0.148 NA
HETATM    5  C   UNL     1       6.265  25.565  55.303  1.00  0.00     0.199 A 
HETATM    6  C   UNL     1       6.114  26.886  54.883  1.00  0.00     0.040 A 
HETATM    7  C   UNL     1       6.560  28.021  55.738  1.00  0.00     0.108 A 
HETATM    8  C   UNL     1       7.213  27.497  57.020  1.00  0.00     0.081 A 
HETATM    9  C   UNL     1       7.794  28.472  57.887  1.00  0.00     0.100 C 
HETATM   10  N   UNL     1       8.263  29.268  58.588  1.00  0.00    -0.191 NA
HETATM   11  C   UNL     1       7.302  26.175  57.321  1.00  0.00     0.140 A 
HETATM   12  O   UNL     1       6.805  25.178  56.471  1.00  0.00    -0.277 OA
ENDROOT
BRANCH   7  13
HETATM   13  C   UNL     1       5.431  28.973  56.036  1.00  0.00    -0.020 A 
HETATM   14  C   UNL     1       4.158  28.674  56.487  1.00  0.00     0.149 A 
HETATM   15  O   UNL     1       3.417  29.800  56.631  1.00  0.00    -0.334 OA
HETATM   16  C   UNL     1       4.208  30.843  56.274  1.00  0.00     0.142 A 
HETATM   17  C   UNL     1       5.453  30.394  55.902  1.00  0.00     0.034 A 
ENDBRANCH   7  13
BRANCH  11  18
HETATM   18  N   UNL     1       7.881  25.657  58.461  1.00  0.00    -0.282 NA
HETATM   19  H   UNL     1       8.342  24.757  58.353  1.00  0.00     0.126 HD
HETATM   20  H   UNL     1       8.459  26.346  58.940  1.00  0.00     0.126 HD
ENDBRANCH  11  18
BRANCH   1  21
HETATM   21  C   UNL     1       4.972  27.800  52.740  1.00  0.00    -0.007 A 
HETATM   22  C   UNL     1       5.823  28.376  51.790  1.00  0.00     0.016 A 
HETATM   23  C   UNL     1       5.332  29.292  50.853  1.00  0.00     0.037 A 
HETATM   24  C   UNL     1       3.981  29.635  50.852  1.00  0.00     0.069 A 
HETATM   25  C   UNL     1       3.138  29.094  51.824  1.00  0.00     0.037 A 
HETATM   26  C   UNL     1       3.627  28.178  52.760  1.00  0.00     0.016 A 
BRANCH  24  27
HETATM   27  O   UNL     1       3.376  30.483  49.967  1.00  0.00    -0.347 OA
BRANCH  27  28
HETATM   28  C   UNL     1       3.634  30.236  48.582  1.00  0.00     0.214 C 
BRANCH  28  29
HETATM   29  C   UNL     1       3.010  28.927  48.153  1.00  0.00    -0.034 A 
HETATM   30  C   UNL     1       3.821  27.889  47.669  1.00  0.00     0.009 A 
HETATM   31  C   UNL     1       3.267  26.654  47.328  1.00  0.00     0.001 A 
HETATM   32  C   UNL     1       1.898  26.437  47.475  1.00  0.00     0.000 A 
HETATM   33  C   UNL     1       1.083  27.455  47.966  1.00  0.00     0.001 A 
HETATM   34  C   UNL     1       1.636  28.690  48.309  1.00  0.00     0.009 A 
ENDBRANCH  28  29
ENDBRANCH  27  28
ENDBRANCH  24  27
ENDBRANCH   1  21
TORSDOF 6
ENDMDL
MODEL 9
REMARK VINA RESULT:      -8.5      3.932      7.317
REMARK  6 active torsions:
REMARK  status: ('A' for Active; 'I' for Inactive)
REMARK    1  A    between atoms: C_4  and  C_5 
REMARK    2  A    between atoms: C_5  and  O_6 
REMARK    3  A    between atoms: O_6  and  C_7 
REMARK    4  A    between atoms: C_10  and  C_11 
REMARK    5  A    between atoms: C_17  and  C_18 
REMARK    6  A    between atoms: C_26  and  N_27 
ROOT
HETATM    1  C   UNL     1       7.402  33.104  63.121  1.00  0.00     0.072 A 
HETATM    2  N   UNL     1       7.697  33.021  64.467  1.00  0.00    -0.274 N 
HETATM    3  H   UNL     1       8.412  32.453  64.908  1.00  0.00     0.189 HD
HETATM    4  N   UNL     1       6.916  33.792  65.251  1.00  0.00    -0.148 NA
HETATM    5  C   UNL     1       6.128  34.387  64.367  1.00  0.00     0.199 A 
HETATM    6  C   UNL     1       6.369  34.022  63.043  1.00  0.00     0.040 A 
HETATM    7  C   UNL     1       5.545  34.572  61.930  1.00  0.00     0.108 A 
HETATM    8  C   UNL     1       4.520  35.572  62.471  1.00  0.00     0.081 A 
HETATM    9  C   UNL     1       3.733  36.269  61.505  1.00  0.00     0.100 C 
HETATM   10  N   UNL     1       3.096  36.831  60.715  1.00  0.00    -0.191 NA
HETATM   11  C   UNL     1       4.378  35.848  63.795  1.00  0.00     0.140 A 
HETATM   12  O   UNL     1       5.171  35.238  64.776  1.00  0.00    -0.277 OA
ENDROOT
BRANCH   7  13
HETATM   13  C   UNL     1       4.889  33.479  61.128  1.00  0.00    -0.020 A 
HETATM   14  C   UNL     1       5.005  33.225  59.775  1.00  0.00     0.149 A 
HETATM   15  O   UNL     1       4.254  32.153  59.415  1.00  0.00    -0.334 OA
HETATM   16  C   UNL     1       3.645  31.703  60.539  1.00  0.00     0.142 A 
HETATM   17  C   UNL     1       3.999  32.476  61.620  1.00  0.00     0.034 A 
ENDBRANCH   7  13
BRANCH  11  18
HETATM   18  N   UNL     1       3.471  36.739  64.328  1.00  0.00    -0.282 NA
HETATM   19  H   UNL     1       3.778  37.708  64.376  1.00  0.00     0.126 HD
HETATM   20  H   UNL     1       2.546  36.634  63.913  1.00  0.00     0.126 HD
ENDBRANCH  11  18
BRANCH   1  21
HETATM   21  C   UNL     1       8.067  32.299  62.105  1.00  0.00    -0.007 A 
HETATM   22  C   UNL     1       8.453  30.984  62.387  1.00  0.00     0.016 A 
HETATM   23  C   UNL     1       9.021  30.177  61.394  1.00  0.00     0.037 A 
HETATM   24  C   UNL     1       9.200  30.678  60.105  1.00  0.00     0.069 A 
HETATM   25  C   UNL     1       8.855  32.002  59.832  1.00  0.00     0.037 A 
HETATM   26  C   UNL     1       8.287  32.808  60.822  1.00  0.00     0.016 A 
BRANCH  24  27
HETATM   27  O   UNL     1       9.706  29.978  59.044  1.00  0.00    -0.347 OA
BRANCH  27  28
HETATM   28  C   UNL     1       9.248  30.380  57.750  1.00  0.00     0.214 C 
BRANCH  28  29
HETATM   29  C   UNL     1       8.474  29.261  57.091  1.00  0.00    -0.034 A 
HETATM   30  C   UNL     1       8.480  29.133  55.693  1.00  0.00     0.009 A 
HETATM   31  C   UNL     1       7.822  28.069  55.074  1.00  0.00     0.001 A 
HETATM   32  C   UNL     1       7.158  27.115  55.843  1.00  0.00     0.000 A 
HETATM   33  C   UNL     1       7.154  27.224  57.232  1.00  0.00     0.001 A 
HETATM   34  C   UNL     1       7.813  28.286  57.853  1.00  0.00     0.009 A 
ENDBRANCH  28  29
ENDBRANCH  27  28
ENDBRANCH  24  27
ENDBRANCH   1  21
TORSDOF 6
ENDMDL
MODEL 10
REMARK VINA RESULT:      -8.3      6.188      8.540
REMARK  6 active torsions:
REMARK  status: ('A' for Active; 'I' for Inactive)
REMARK    1  A    between atoms: C_4  and  C_5 
REMARK    2  A    between atoms: C_5  and  O_6 
REMARK    3  A    between atoms: O_6  and  C_7 
REMARK    4  A    between atoms: C_10  and  C_11 
REMARK    5  A    between atoms: C_17  and  C_18 
REMARK    6  A    between atoms: C_26  and  N_27 
ROOT
HETATM    1  C   UNL     1       3.915  29.187  51.509  1.00  0.00     0.072 A 
HETATM    2  N   UNL     1       3.172  29.914  52.416  1.00  0.00    -0.274 N 
HETATM    3  H   UNL     1       3.002  29.695  53.391  1.00  0.00     0.189 HD
HETATM    4  N   UNL     1       2.616  31.031  51.903  1.00  0.00    -0.148 NA
HETATM    5  C   UNL     1       3.044  31.010  50.648  1.00  0.00     0.199 A 
HETATM    6  C   UNL     1       3.849  29.916  50.333  1.00  0.00     0.040 A 
HETATM    7  C   UNL     1       4.381  29.723  48.955  1.00  0.00     0.108 A 
HETATM    8  C   UNL     1       3.961  30.887  48.055  1.00  0.00     0.081 A 
HETATM    9  C   UNL     1       4.495  30.897  46.731  1.00  0.00     0.100 C 
HETATM   10  N   UNL     1       4.930  30.900  45.655  1.00  0.00    -0.191 NA
HETATM   11  C   UNL     1       3.167  31.905  48.479  1.00  0.00     0.140 A 
HETATM   12  O   UNL     1       2.672  31.974  49.789  1.00  0.00    -0.277 OA
ENDROOT
BRANCH   7  13
HETATM   13  C   UNL     1       3.968  28.394  48.379  1.00  0.00    -0.020 A 
HETATM   14  C   UNL     1       4.728  27.512  47.632  1.00  0.00     0.149 A 
HETATM   15  O   UNL     1       4.004  26.420  47.284  1.00  0.00    -0.334 OA
HETATM   16  C   UNL     1       2.763  26.585  47.806  1.00  0.00     0.142 A 
HETATM   17  C   UNL     1       2.685  27.777  48.489  1.00  0.00     0.034 A 
ENDBRANCH   7  13
BRANCH  11  18
HETATM   18  N   UNL     1       2.763  32.974  47.706  1.00  0.00    -0.282 NA
HETATM   19  H   UNL     1       1.773  33.203  47.749  1.00  0.00     0.126 HD
HETATM   20  H   UNL     1       3.366  33.785  47.837  1.00  0.00     0.126 HD
ENDBRANCH  11  18
BRANCH   1  21
HETATM   21  C   UNL     1       4.538  27.909  51.826  1.00  0.00    -0.007 A 
HETATM   22  C   UNL     1       4.189  27.224  52.996  1.00  0.00     0.016 A 
HETATM   23  C   UNL     1       4.722  25.960  53.271  1.00  0.00     0.037 A 
HETATM   24  C   UNL     1       5.605  25.364  52.372  1.00  0.00     0.069 A 
HETATM   25  C   UNL     1       5.987  26.061  51.225  1.00  0.00     0.037 A 
HETATM   26  C   UNL     1       5.454  27.323  50.949  1.00  0.00     0.016 A 
BRANCH  24  27
HETATM   27  O   UNL     1       6.160  24.121  52.509  1.00  0.00    -0.347 OA
BRANCH  27  28
HETATM   28  C   UNL     1       7.460  24.075  53.103  1.00  0.00     0.214 C 
BRANCH  28  29
HETATM   29  C   UNL     1       7.685  22.742  53.781  1.00  0.00    -0.034 A 
HETATM   30  C   UNL     1       8.122  21.639  53.030  1.00  0.00     0.009 A 
HETATM   31  C   UNL     1       8.394  20.419  53.652  1.00  0.00     0.001 A 
HETATM   32  C   UNL     1       8.242  20.289  55.032  1.00  0.00     0.000 A 
HETATM   33  C   UNL     1       7.822  21.380  55.790  1.00  0.00     0.001 A 
HETATM   34  C   UNL     1       7.551  22.601  55.170  1.00  0.00     0.009 A 
ENDBRANCH  28  29
ENDBRANCH  27  28
ENDBRANCH  24  27
ENDBRANCH   1  21
TORSDOF 6
ENDMDL
