MODEL 1
REMARK VINA RESULT:      -9.8      0.000      0.000
REMARK  6 active torsions:
REMARK  status: ('A' for Active; 'I' for Inactive)
REMARK    1  A    between atoms: N_2  and  C_4 
REMARK    2  A    between atoms: C_4  and  C_5 
REMARK    3  A    between atoms: C_7  and  N_8 
REMARK       I    between atoms: N_8  and  C_9 
REMARK    4  A    between atoms: C_9  and  C_10 
REMARK    5  A    between atoms: C_12  and  C_13 
REMARK    6  A    between atoms: C_20  and  C_21 
ROOT
HETATM    1  N   UNL     1       8.455  28.109  56.577  1.00  0.00    -0.322 N 
HETATM    2  C   UNL     1       7.871  27.015  57.199  1.00  0.00     0.277 C 
HETATM    3  O   UNL     1       7.739  26.884  58.413  1.00  0.00    -0.266 OA
HETATM    4  H   UNL     1       8.607  27.994  55.577  1.00  0.00     0.169 HD
ENDROOT
BRANCH   2   5
HETATM    5  C   UNL     1       7.461  25.992  56.243  1.00  0.00     0.157 A 
HETATM    6  N   UNL     1       8.108  24.763  56.139  1.00  0.00    -0.216 NA
HETATM    7  C   UNL     1       7.458  24.141  55.171  1.00  0.00     0.180 A 
HETATM    8  O   UNL     1       6.426  24.864  54.640  1.00  0.00    -0.293 OA
HETATM    9  C   UNL     1       6.429  26.046  55.326  1.00  0.00     0.094 A 
BRANCH   7  10
HETATM   10  C   UNL     1       7.684  22.818  54.595  1.00  0.00     0.017 A 
HETATM   11  C   UNL     1       7.809  21.700  55.433  1.00  0.00     0.016 A 
HETATM   12  C   UNL     1       8.031  20.427  54.900  1.00  0.00     0.001 A 
HETATM   13  C   UNL     1       8.132  20.256  53.521  1.00  0.00     0.000 A 
HETATM   14  C   UNL     1       8.012  21.354  52.675  1.00  0.00     0.001 A 
HETATM   15  C   UNL     1       7.789  22.627  53.208  1.00  0.00     0.016 A 
ENDBRANCH   7  10
BRANCH   9  16
HETATM   16  C   UNL     1       5.446  27.175  55.069  1.00  0.00     0.046 A 
HETATM   17  C   UNL     1       5.829  28.223  54.044  1.00  0.00     0.012 A 
HETATM   18  C   UNL     1       4.771  27.227  53.714  1.00  0.00     0.012 A 
ENDBRANCH   9  16
ENDBRANCH   2   5
BRANCH   1  19
HETATM   19  C   UNL     1       8.944  29.269  57.205  1.00  0.00     0.035 A 
HETATM   20  C   UNL     1       8.208  29.974  58.158  1.00  0.00     0.038 A 
HETATM   21  C   UNL     1       8.752  31.071  58.846  1.00  0.00    -0.030 A 
HETATM   22  C   UNL     1      10.046  31.491  58.526  1.00  0.00     0.009 A 
HETATM   23  C   UNL     1      10.767  30.830  57.529  1.00  0.00     0.003 A 
HETATM   24  C   UNL     1      10.218  29.725  56.870  1.00  0.00     0.029 A 
BRANCH  21  25
HETATM   25  C   UNL     1       7.945  31.728  59.933  1.00  0.00     0.272 C 
BRANCH  25  26
HETATM   26  N   UNL     1       7.804  30.884  61.184  1.00  0.00    -0.075 N 
HETATM   27  C   UNL     1       6.935  31.508  62.245  1.00  0.00     0.269 C 
HETATM   28  H   UNL     1       7.334  30.018  60.894  1.00  0.00     0.279 HD
HETATM   29  C   UNL     1       9.149  30.511  61.739  1.00  0.00     0.269 C 
ENDBRANCH  25  26
ENDBRANCH  21  25
ENDBRANCH   1  19
TORSDOF 6
ENDMDL
MODEL 2
REMARK VINA RESULT:      -9.2      1.775      2.407
REMARK  6 active torsions:
REMARK  status: ('A' for Active; 'I' for Inactive)
REMARK    1  A    between atoms: N_2  and  C_4 
REMARK    2  A    between atoms: C_4  and  C_5 
REMARK    3  A    between atoms: C_7  and  N_8 
REMARK       I    between atoms: N_8  and  C_9 
REMARK    4  A    between atoms: C_9  and  C_10 
REMARK    5  A    between atoms: C_12  and  C_13 
REMARK    6  A    between atoms: C_20  and  C_21 
ROOT
HETATM    1  N   UNL     1       6.399  27.588  56.116  1.00  0.00    -0.322 N 
HETATM    2  C   UNL     1       7.059  27.400  54.911  1.00  0.00     0.277 C 
HETATM    3  O   UNL     1       7.642  28.281  54.284  1.00  0.00    -0.266 OA
HETATM    4  H   UNL     1       5.854  26.786  56.428  1.00  0.00     0.169 HD
ENDROOT
BRANCH   2   5
HETATM    5  C   UNL     1       6.949  26.027  54.430  1.00  0.00     0.157 A 
HETATM    6  N   UNL     1       7.709  24.987  54.960  1.00  0.00    -0.216 NA
HETATM    7  C   UNL     1       7.334  23.930  54.260  1.00  0.00     0.180 A 
HETATM    8  O   UNL     1       6.378  24.196  53.319  1.00  0.00    -0.293 OA
HETATM    9  C   UNL     1       6.133  25.536  53.429  1.00  0.00     0.094 A 
BRANCH   7  10
HETATM   10  C   UNL     1       7.790  22.544  54.343  1.00  0.00     0.017 A 
HETATM   11  C   UNL     1       7.961  21.937  55.596  1.00  0.00     0.016 A 
HETATM   12  C   UNL     1       8.402  20.614  55.696  1.00  0.00     0.001 A 
HETATM   13  C   UNL     1       8.679  19.882  54.543  1.00  0.00     0.000 A 
HETATM   14  C   UNL     1       8.516  20.470  53.292  1.00  0.00     0.001 A 
HETATM   15  C   UNL     1       8.074  21.792  53.192  1.00  0.00     0.016 A 
ENDBRANCH   7  10
BRANCH   9  16
HETATM   16  C   UNL     1       5.132  26.286  52.567  1.00  0.00     0.046 A 
HETATM   17  C   UNL     1       5.669  27.094  51.404  1.00  0.00     0.012 A 
HETATM   18  C   UNL     1       4.943  25.820  51.139  1.00  0.00     0.012 A 
ENDBRANCH   9  16
ENDBRANCH   2   5
BRANCH   1  19
HETATM   19  C   UNL     1       6.322  28.783  56.853  1.00  0.00     0.035 A 
HETATM   20  C   UNL     1       7.292  29.153  57.788  1.00  0.00     0.038 A 
HETATM   21  C   UNL     1       7.250  30.394  58.441  1.00  0.00    -0.030 A 
HETATM   22  C   UNL     1       6.180  31.256  58.181  1.00  0.00     0.009 A 
HETATM   23  C   UNL     1       5.172  30.869  57.295  1.00  0.00     0.003 A 
HETATM   24  C   UNL     1       5.242  29.637  56.635  1.00  0.00     0.029 A 
BRANCH  21  25
HETATM   25  C   UNL     1       8.377  30.776  59.362  1.00  0.00     0.272 C 
BRANCH  25  26
HETATM   26  N   UNL     1       8.046  30.615  60.832  1.00  0.00    -0.075 N 
HETATM   27  C   UNL     1       7.218  31.740  61.397  1.00  0.00     0.269 C 
HETATM   28  H   UNL     1       7.473  29.766  60.905  1.00  0.00     0.279 HD
HETATM   29  C   UNL     1       9.289  30.398  61.646  1.00  0.00     0.269 C 
ENDBRANCH  25  26
ENDBRANCH  21  25
ENDBRANCH   1  19
TORSDOF 6
ENDMDL
MODEL 3
REMARK VINA RESULT:      -9.0      3.992      7.926
REMARK  6 active torsions:
REMARK  status: ('A' for Active; 'I' for Inactive)
REMARK    1  A    between atoms: N_2  and  C_4 
REMARK    2  A    between atoms: C_4  and  C_5 
REMARK    3  A    between atoms: C_7  and  N_8 
REMARK       I    between atoms: N_8  and  C_9 
REMARK    4  A    between atoms: C_9  and  C_10 
REMARK    5  A    between atoms: C_12  and  C_13 
REMARK    6  A    between atoms: C_20  and  C_21 
ROOT
HETATM    1  N   UNL     1       5.872  27.091  51.707  1.00  0.00    -0.322 N 
HETATM    2  C   UNL     1       5.259  26.694  52.886  1.00  0.00     0.277 C 
HETATM    3  O   UNL     1       4.178  27.114  53.292  1.00  0.00    -0.266 OA
HETATM    4  H   UNL     1       6.825  26.748  51.591  1.00  0.00     0.169 HD
ENDROOT
BRANCH   2   5
HETATM    5  C   UNL     1       6.068  25.739  53.635  1.00  0.00     0.157 A 
HETATM    6  N   UNL     1       6.295  24.439  53.188  1.00  0.00    -0.216 NA
HETATM    7  C   UNL     1       7.046  23.903  54.135  1.00  0.00     0.180 A 
HETATM    8  O   UNL     1       7.338  24.756  55.163  1.00  0.00    -0.293 OA
HETATM    9  C   UNL     1       6.713  25.928  54.842  1.00  0.00     0.094 A 
BRANCH   7  10
HETATM   10  C   UNL     1       7.594  22.553  54.240  1.00  0.00     0.017 A 
HETATM   11  C   UNL     1       7.986  21.863  53.082  1.00  0.00     0.016 A 
HETATM   12  C   UNL     1       8.507  20.569  53.163  1.00  0.00     0.001 A 
HETATM   13  C   UNL     1       8.641  19.946  54.402  1.00  0.00     0.000 A 
HETATM   14  C   UNL     1       8.256  20.616  55.560  1.00  0.00     0.001 A 
HETATM   15  C   UNL     1       7.736  21.910  55.480  1.00  0.00     0.016 A 
ENDBRANCH   7  10
BRANCH   9  16
HETATM   16  C   UNL     1       6.759  27.175  55.708  1.00  0.00     0.046 A 
HETATM   17  C   UNL     1       5.851  27.225  56.920  1.00  0.00     0.012 A 
HETATM   18  C   UNL     1       7.318  27.040  57.110  1.00  0.00     0.012 A 
ENDBRANCH   9  16
ENDBRANCH   2   5
BRANCH   1  19
HETATM   19  C   UNL     1       5.357  27.986  50.753  1.00  0.00     0.035 A 
HETATM   20  C   UNL     1       4.695  27.557  49.601  1.00  0.00     0.038 A 
HETATM   21  C   UNL     1       4.101  28.466  48.711  1.00  0.00    -0.030 A 
HETATM   22  C   UNL     1       4.223  29.835  48.966  1.00  0.00     0.009 A 
HETATM   23  C   UNL     1       4.937  30.276  50.083  1.00  0.00     0.003 A 
HETATM   24  C   UNL     1       5.503  29.355  50.972  1.00  0.00     0.029 A 
BRANCH  21  25
HETATM   25  C   UNL     1       3.317  27.940  47.541  1.00  0.00     0.272 C 
BRANCH  25  26
HETATM   26  N   UNL     1       2.395  26.789  47.891  1.00  0.00    -0.075 N 
HETATM   27  C   UNL     1       2.715  25.508  47.165  1.00  0.00     0.269 C 
HETATM   28  H   UNL     1       2.538  26.601  48.890  1.00  0.00     0.279 HD
HETATM   29  C   UNL     1       0.955  27.171  47.700  1.00  0.00     0.269 C 
ENDBRANCH  25  26
ENDBRANCH  21  25
ENDBRANCH   1  19
TORSDOF 6
ENDMDL
MODEL 4
REMARK VINA RESULT:      -8.9      2.174      8.684
REMARK  6 active torsions:
REMARK  status: ('A' for Active; 'I' for Inactive)
REMARK    1  A    between atoms: N_2  and  C_4 
REMARK    2  A    between atoms: C_4  and  C_5 
REMARK    3  A    between atoms: C_7  and  N_8 
REMARK       I    between atoms: N_8  and  C_9 
REMARK    4  A    between atoms: C_9  and  C_10 
REMARK    5  A    between atoms: C_12  and  C_13 
REMARK    6  A    between atoms: C_20  and  C_21 
ROOT
HETATM    1  N   UNL     1       7.309  27.079  55.507  1.00  0.00    -0.322 N 
HETATM    2  C   UNL     1       7.873  28.342  55.395  1.00  0.00     0.277 C 
HETATM    3  O   UNL     1       8.651  28.688  54.509  1.00  0.00    -0.266 OA
HETATM    4  H   UNL     1       6.797  26.922  56.374  1.00  0.00     0.169 HD
ENDROOT
BRANCH   2   5
HETATM    5  C   UNL     1       7.474  29.223  56.487  1.00  0.00     0.157 A 
HETATM    6  N   UNL     1       8.314  29.512  57.560  1.00  0.00    -0.216 NA
HETATM    7  C   UNL     1       7.593  30.317  58.321  1.00  0.00     0.180 A 
HETATM    8  O   UNL     1       6.348  30.587  57.824  1.00  0.00    -0.293 OA
HETATM    9  C   UNL     1       6.274  29.888  56.652  1.00  0.00     0.094 A 
BRANCH   7  10
HETATM   10  C   UNL     1       7.928  30.943  59.598  1.00  0.00     0.017 A 
HETATM   11  C   UNL     1       9.027  30.481  60.339  1.00  0.00     0.016 A 
HETATM   12  C   UNL     1       9.359  31.064  61.564  1.00  0.00     0.001 A 
HETATM   13  C   UNL     1       8.596  32.116  62.067  1.00  0.00     0.000 A 
HETATM   14  C   UNL     1       7.503  32.586  61.345  1.00  0.00     0.001 A 
HETATM   15  C   UNL     1       7.171  32.004  60.119  1.00  0.00     0.016 A 
ENDBRANCH   7  10
BRANCH   9  16
HETATM   16  C   UNL     1       5.055  29.885  55.745  1.00  0.00     0.046 A 
HETATM   17  C   UNL     1       4.080  28.734  55.879  1.00  0.00     0.012 A 
HETATM   18  C   UNL     1       3.698  30.080  56.388  1.00  0.00     0.012 A 
ENDBRANCH   9  16
ENDBRANCH   2   5
BRANCH   1  19
HETATM   19  C   UNL     1       7.477  26.003  54.618  1.00  0.00     0.035 A 
HETATM   20  C   UNL     1       7.532  24.676  55.047  1.00  0.00     0.038 A 
HETATM   21  C   UNL     1       7.600  23.609  54.137  1.00  0.00    -0.030 A 
HETATM   22  C   UNL     1       7.667  23.895  52.770  1.00  0.00     0.009 A 
HETATM   23  C   UNL     1       7.677  25.222  52.334  1.00  0.00     0.003 A 
HETATM   24  C   UNL     1       7.585  26.272  53.254  1.00  0.00     0.029 A 
BRANCH  21  25
HETATM   25  C   UNL     1       7.555  22.198  54.656  1.00  0.00     0.272 C 
BRANCH  25  26
HETATM   26  N   UNL     1       8.815  21.403  54.376  1.00  0.00    -0.075 N 
HETATM   27  C   UNL     1       8.684  20.439  53.226  1.00  0.00     0.269 C 
HETATM   28  H   UNL     1       9.530  22.087  54.104  1.00  0.00     0.279 HD
HETATM   29  C   UNL     1       9.299  20.704  55.614  1.00  0.00     0.269 C 
ENDBRANCH  25  26
ENDBRANCH  21  25
ENDBRANCH   1  19
TORSDOF 6
ENDMDL
MODEL 5
REMARK VINA RESULT:      -8.9      4.789      8.510
REMARK  6 active torsions:
REMARK  status: ('A' for Active; 'I' for Inactive)
REMARK    1  A    between atoms: N_2  and  C_4 
REMARK    2  A    between atoms: C_4  and  C_5 
REMARK    3  A    between atoms: C_7  and  N_8 
REMARK       I    between atoms: N_8  and  C_9 
REMARK    4  A    between atoms: C_9  and  C_10 
REMARK    5  A    between atoms: C_12  and  C_13 
REMARK    6  A    between atoms: C_20  and  C_21 
ROOT
HETATM    1  N   UNL     1       5.472  26.226  50.514  1.00  0.00    -0.322 N 
HETATM    2  C   UNL     1       5.272  26.471  51.865  1.00  0.00     0.277 C 
HETATM    3  O   UNL     1       4.461  27.273  52.321  1.00  0.00    -0.266 OA
HETATM    4  H   UNL     1       6.275  25.635  50.308  1.00  0.00     0.169 HD
ENDROOT
BRANCH   2   5
HETATM    5  C   UNL     1       6.177  25.695  52.706  1.00  0.00     0.157 A 
HETATM    6  N   UNL     1       6.186  24.302  52.708  1.00  0.00    -0.216 NA
HETATM    7  C   UNL     1       7.115  23.990  53.595  1.00  0.00     0.180 A 
HETATM    8  O   UNL     1       7.725  25.073  54.166  1.00  0.00    -0.293 OA
HETATM    9  C   UNL     1       7.124  26.161  53.598  1.00  0.00     0.094 A 
BRANCH   7  10
HETATM   10  C   UNL     1       7.572  22.679  54.047  1.00  0.00     0.017 A 
HETATM   11  C   UNL     1       7.569  22.368  55.415  1.00  0.00     0.016 A 
HETATM   12  C   UNL     1       8.008  21.121  55.867  1.00  0.00     0.001 A 
HETATM   13  C   UNL     1       8.458  20.167  54.955  1.00  0.00     0.000 A 
HETATM   14  C   UNL     1       8.468  20.459  53.594  1.00  0.00     0.001 A 
HETATM   15  C   UNL     1       8.029  21.706  53.143  1.00  0.00     0.016 A 
ENDBRANCH   7  10
BRANCH   9  16
HETATM   16  C   UNL     1       7.483  27.598  53.937  1.00  0.00     0.046 A 
HETATM   17  C   UNL     1       6.553  28.357  54.860  1.00  0.00     0.012 A 
HETATM   18  C   UNL     1       7.881  27.907  55.365  1.00  0.00     0.012 A 
ENDBRANCH   9  16
ENDBRANCH   2   5
BRANCH   1  19
HETATM   19  C   UNL     1       4.761  26.797  49.444  1.00  0.00     0.035 A 
HETATM   20  C   UNL     1       4.968  28.111  49.020  1.00  0.00     0.038 A 
HETATM   21  C   UNL     1       4.321  28.630  47.888  1.00  0.00    -0.030 A 
HETATM   22  C   UNL     1       3.409  27.822  47.203  1.00  0.00     0.009 A 
HETATM   23  C   UNL     1       3.148  26.527  47.657  1.00  0.00     0.003 A 
HETATM   24  C   UNL     1       3.819  26.017  48.774  1.00  0.00     0.029 A 
BRANCH  21  25
HETATM   25  C   UNL     1       4.661  30.020  47.423  1.00  0.00     0.272 C 
BRANCH  25  26
HETATM   26  N   UNL     1       3.636  30.616  46.479  1.00  0.00    -0.075 N 
HETATM   27  C   UNL     1       4.238  31.404  45.345  1.00  0.00     0.269 C 
HETATM   28  H   UNL     1       3.143  29.823  46.054  1.00  0.00     0.279 HD
HETATM   29  C   UNL     1       2.624  31.437  47.227  1.00  0.00     0.269 C 
ENDBRANCH  25  26
ENDBRANCH  21  25
ENDBRANCH   1  19
TORSDOF 6
ENDMDL
MODEL 6
REMARK VINA RESULT:      -8.7      2.345      3.111
REMARK  6 active torsions:
REMARK  status: ('A' for Active; 'I' for Inactive)
REMARK    1  A    between atoms: N_2  and  C_4 
REMARK    2  A    between atoms: C_4  and  C_5 
REMARK    3  A    between atoms: C_7  and  N_8 
REMARK       I    between atoms: N_8  and  C_9 
REMARK    4  A    between atoms: C_9  and  C_10 
REMARK    5  A    between atoms: C_12  and  C_13 
REMARK    6  A    between atoms: C_20  and  C_21 
ROOT
HETATM    1  N   UNL     1       6.877  27.538  56.168  1.00  0.00    -0.322 N 
HETATM    2  C   UNL     1       5.852  26.603  56.150  1.00  0.00     0.277 C 
HETATM    3  O   UNL     1       4.822  26.677  56.815  1.00  0.00    -0.266 OA
HETATM    4  H   UNL     1       7.715  27.254  55.663  1.00  0.00     0.169 HD
ENDROOT
BRANCH   2   5
HETATM    5  C   UNL     1       6.150  25.475  55.275  1.00  0.00     0.157 A 
HETATM    6  N   UNL     1       6.889  24.373  55.700  1.00  0.00    -0.216 NA
HETATM    7  C   UNL     1       6.948  23.597  54.632  1.00  0.00     0.180 A 
HETATM    8  O   UNL     1       6.293  24.100  53.541  1.00  0.00    -0.293 OA
HETATM    9  C   UNL     1       5.784  25.300  53.954  1.00  0.00     0.094 A 
BRANCH   7  10
HETATM   10  C   UNL     1       7.604  22.304  54.451  1.00  0.00     0.017 A 
HETATM   11  C   UNL     1       7.826  21.805  53.159  1.00  0.00     0.016 A 
HETATM   12  C   UNL     1       8.448  20.568  52.967  1.00  0.00     0.001 A 
HETATM   13  C   UNL     1       8.853  19.812  54.066  1.00  0.00     0.000 A 
HETATM   14  C   UNL     1       8.639  20.292  55.355  1.00  0.00     0.001 A 
HETATM   15  C   UNL     1       8.019  21.530  55.547  1.00  0.00     0.016 A 
ENDBRANCH   7  10
BRANCH   9  16
HETATM   16  C   UNL     1       4.974  26.225  53.063  1.00  0.00     0.046 A 
HETATM   17  C   UNL     1       5.723  27.288  52.286  1.00  0.00     0.012 A 
HETATM   18  C   UNL     1       5.167  26.108  51.565  1.00  0.00     0.012 A 
ENDBRANCH   9  16
ENDBRANCH   2   5
BRANCH   1  19
HETATM   19  C   UNL     1       6.901  28.743  56.893  1.00  0.00     0.035 A 
HETATM   20  C   UNL     1       6.089  29.831  56.569  1.00  0.00     0.038 A 
HETATM   21  C   UNL     1       6.056  30.987  57.364  1.00  0.00    -0.030 A 
HETATM   22  C   UNL     1       6.897  31.064  58.478  1.00  0.00     0.009 A 
HETATM   23  C   UNL     1       7.760  30.005  58.773  1.00  0.00     0.003 A 
HETATM   24  C   UNL     1       7.764  28.850  57.983  1.00  0.00     0.029 A 
BRANCH  21  25
HETATM   25  C   UNL     1       5.086  32.085  57.020  1.00  0.00     0.272 C 
BRANCH  25  26
HETATM   26  N   UNL     1       3.654  31.779  57.409  1.00  0.00    -0.075 N 
HETATM   27  C   UNL     1       3.513  31.153  58.773  1.00  0.00     0.269 C 
HETATM   28  H   UNL     1       3.169  32.683  57.452  1.00  0.00     0.279 HD
HETATM   29  C   UNL     1       2.974  30.945  56.361  1.00  0.00     0.269 C 
ENDBRANCH  25  26
ENDBRANCH  21  25
ENDBRANCH   1  19
TORSDOF 6
ENDMDL
MODEL 7
REMARK VINA RESULT:      -8.7      2.416      8.910
REMARK  6 active torsions:
REMARK  status: ('A' for Active; 'I' for Inactive)
REMARK    1  A    between atoms: N_2  and  C_4 
REMARK    2  A    between atoms: C_4  and  C_5 
REMARK    3  A    between atoms: C_7  and  N_8 
REMARK       I    between atoms: N_8  and  C_9 
REMARK    4  A    between atoms: C_9  and  C_10 
REMARK    5  A    between atoms: C_12  and  C_13 
REMARK    6  A    between atoms: C_20  and  C_21 
ROOT
HETATM    1  N   UNL     1       7.435  27.366  57.572  1.00  0.00    -0.322 N 
HETATM    2  C   UNL     1       8.270  28.472  57.504  1.00  0.00     0.277 C 
HETATM    3  O   UNL     1       9.358  28.497  56.935  1.00  0.00    -0.266 OA
HETATM    4  H   UNL     1       6.639  27.477  58.197  1.00  0.00     0.169 HD
ENDROOT
BRANCH   2   5
HETATM    5  C   UNL     1       7.732  29.615  58.233  1.00  0.00     0.157 A 
HETATM    6  N   UNL     1       8.164  29.958  59.512  1.00  0.00    -0.216 NA
HETATM    7  C   UNL     1       7.439  31.019  59.821  1.00  0.00     0.180 A 
HETATM    8  O   UNL     1       6.571  31.405  58.837  1.00  0.00    -0.293 OA
HETATM    9  C   UNL     1       6.759  30.508  57.824  1.00  0.00     0.094 A 
BRANCH   7  10
HETATM   10  C   UNL     1       7.429  31.819  61.043  1.00  0.00     0.017 A 
HETATM   11  C   UNL     1       8.249  31.461  62.123  1.00  0.00     0.016 A 
HETATM   12  C   UNL     1       8.248  32.212  63.302  1.00  0.00     0.001 A 
HETATM   13  C   UNL     1       7.425  33.330  63.417  1.00  0.00     0.000 A 
HETATM   14  C   UNL     1       6.605  33.700  62.355  1.00  0.00     0.001 A 
HETATM   15  C   UNL     1       6.606  32.949  61.176  1.00  0.00     0.016 A 
ENDBRANCH   7  10
BRANCH   9  16
HETATM   16  C   UNL     1       5.996  30.544  56.511  1.00  0.00     0.046 A 
HETATM   17  C   UNL     1       4.778  29.653  56.379  1.00  0.00     0.012 A 
HETATM   18  C   UNL     1       4.598  31.125  56.524  1.00  0.00     0.012 A 
ENDBRANCH   9  16
ENDBRANCH   2   5
BRANCH   1  19
HETATM   19  C   UNL     1       7.651  26.114  56.970  1.00  0.00     0.035 A 
HETATM   20  C   UNL     1       6.934  25.685  55.851  1.00  0.00     0.038 A 
HETATM   21  C   UNL     1       7.232  24.476  55.205  1.00  0.00    -0.030 A 
HETATM   22  C   UNL     1       8.239  23.661  55.731  1.00  0.00     0.009 A 
HETATM   23  C   UNL     1       8.919  24.052  56.887  1.00  0.00     0.003 A 
HETATM   24  C   UNL     1       8.625  25.272  57.505  1.00  0.00     0.029 A 
BRANCH  21  25
HETATM   25  C   UNL     1       6.492  24.116  53.945  1.00  0.00     0.272 C 
BRANCH  25  26
HETATM   26  N   UNL     1       6.580  25.173  52.862  1.00  0.00    -0.075 N 
HETATM   27  C   UNL     1       5.355  25.253  51.989  1.00  0.00     0.269 C 
HETATM   28  H   UNL     1       6.652  26.075  53.347  1.00  0.00     0.279 HD
HETATM   29  C   UNL     1       7.821  24.999  52.035  1.00  0.00     0.269 C 
ENDBRANCH  25  26
ENDBRANCH  21  25
ENDBRANCH   1  19
TORSDOF 6
ENDMDL
MODEL 8
REMARK VINA RESULT:      -8.6      3.185      5.424
REMARK  6 active torsions:
REMARK  status: ('A' for Active; 'I' for Inactive)
REMARK    1  A    between atoms: N_2  and  C_4 
REMARK    2  A    between atoms: C_4  and  C_5 
REMARK    3  A    between atoms: C_7  and  N_8 
REMARK       I    between atoms: N_8  and  C_9 
REMARK    4  A    between atoms: C_9  and  C_10 
REMARK    5  A    between atoms: C_12  and  C_13 
REMARK    6  A    between atoms: C_20  and  C_21 
ROOT
HETATM    1  N   UNL     1       6.818  31.257  60.495  1.00  0.00    -0.322 N 
HETATM    2  C   UNL     1       7.581  31.222  59.337  1.00  0.00     0.277 C 
HETATM    3  O   UNL     1       8.469  32.022  59.056  1.00  0.00    -0.266 OA
HETATM    4  H   UNL     1       6.036  30.604  60.505  1.00  0.00     0.169 HD
ENDROOT
BRANCH   2   5
HETATM    5  C   UNL     1       7.180  30.139  58.445  1.00  0.00     0.157 A 
HETATM    6  N   UNL     1       7.904  28.954  58.336  1.00  0.00    -0.216 NA
HETATM    7  C   UNL     1       7.236  28.254  57.436  1.00  0.00     0.180 A 
HETATM    8  O   UNL     1       6.123  28.886  56.953  1.00  0.00    -0.293 OA
HETATM    9  C   UNL     1       6.088  30.089  57.599  1.00  0.00     0.094 A 
BRANCH   7  10
HETATM   10  C   UNL     1       7.515  26.928  56.888  1.00  0.00     0.017 A 
HETATM   11  C   UNL     1       8.067  25.933  57.708  1.00  0.00     0.016 A 
HETATM   12  C   UNL     1       8.345  24.661  57.201  1.00  0.00     0.001 A 
HETATM   13  C   UNL     1       8.078  24.369  55.865  1.00  0.00     0.000 A 
HETATM   14  C   UNL     1       7.532  25.345  55.037  1.00  0.00     0.001 A 
HETATM   15  C   UNL     1       7.252  26.617  55.545  1.00  0.00     0.016 A 
ENDBRANCH   7  10
BRANCH   9  16
HETATM   16  C   UNL     1       5.014  31.139  57.374  1.00  0.00     0.046 A 
HETATM   17  C   UNL     1       3.665  30.669  56.871  1.00  0.00     0.012 A 
HETATM   18  C   UNL     1       3.805  31.117  58.286  1.00  0.00     0.012 A 
ENDBRANCH   9  16
ENDBRANCH   2   5
BRANCH   1  19
HETATM   19  C   UNL     1       6.954  32.163  61.562  1.00  0.00     0.035 A 
HETATM   20  C   UNL     1       6.261  33.374  61.612  1.00  0.00     0.038 A 
HETATM   21  C   UNL     1       6.334  34.219  62.731  1.00  0.00    -0.030 A 
HETATM   22  C   UNL     1       7.164  33.855  63.796  1.00  0.00     0.009 A 
HETATM   23  C   UNL     1       7.909  32.676  63.728  1.00  0.00     0.003 A 
HETATM   24  C   UNL     1       7.807  31.834  62.614  1.00  0.00     0.029 A 
BRANCH  21  25
HETATM   25  C   UNL     1       5.487  35.461  62.768  1.00  0.00     0.272 C 
BRANCH  25  26
HETATM   26  N   UNL     1       5.768  36.357  63.958  1.00  0.00    -0.075 N 
HETATM   27  C   UNL     1       4.715  36.289  65.034  1.00  0.00     0.269 C 
HETATM   28  H   UNL     1       6.637  36.010  64.379  1.00  0.00     0.279 HD
HETATM   29  C   UNL     1       6.004  37.775  63.524  1.00  0.00     0.269 C 
ENDBRANCH  25  26
ENDBRANCH  21  25
ENDBRANCH   1  19
TORSDOF 6
ENDMDL
MODEL 9
REMARK VINA RESULT:      -8.6      1.848      2.613
REMARK  6 active torsions:
REMARK  status: ('A' for Active; 'I' for Inactive)
REMARK    1  A    between atoms: N_2  and  C_4 
REMARK    2  A    between atoms: C_4  and  C_5 
REMARK    3  A    between atoms: C_7  and  N_8 
REMARK       I    between atoms: N_8  and  C_9 
REMARK    4  A    between atoms: C_9  and  C_10 
REMARK    5  A    between atoms: C_12  and  C_13 
REMARK    6  A    between atoms: C_20  and  C_21 
ROOT
HETATM    1  N   UNL     1       7.465  29.354  57.363  1.00  0.00    -0.322 N 
HETATM    2  C   UNL     1       6.625  29.460  56.264  1.00  0.00     0.277 C 
HETATM    3  O   UNL     1       6.037  30.483  55.925  1.00  0.00    -0.266 OA
HETATM    4  H   UNL     1       7.760  28.404  57.578  1.00  0.00     0.169 HD
ENDROOT
BRANCH   2   5
HETATM    5  C   UNL     1       6.475  28.191  55.561  1.00  0.00     0.157 A 
HETATM    6  N   UNL     1       7.435  27.184  55.622  1.00  0.00    -0.216 NA
HETATM    7  C   UNL     1       6.942  26.226  54.856  1.00  0.00     0.180 A 
HETATM    8  O   UNL     1       5.725  26.524  54.306  1.00  0.00    -0.293 OA
HETATM    9  C   UNL     1       5.428  27.779  54.757  1.00  0.00     0.094 A 
BRANCH   7  10
HETATM   10  C   UNL     1       7.503  24.920  54.515  1.00  0.00     0.017 A 
HETATM   11  C   UNL     1       7.394  24.431  53.204  1.00  0.00     0.016 A 
HETATM   12  C   UNL     1       7.920  23.183  52.861  1.00  0.00     0.001 A 
HETATM   13  C   UNL     1       8.560  22.406  53.825  1.00  0.00     0.000 A 
HETATM   14  C   UNL     1       8.676  22.876  55.130  1.00  0.00     0.001 A 
HETATM   15  C   UNL     1       8.151  24.125  55.473  1.00  0.00     0.016 A 
ENDBRANCH   7  10
BRANCH   9  16
HETATM   16  C   UNL     1       4.158  28.528  54.396  1.00  0.00     0.046 A 
HETATM   17  C   UNL     1       4.205  29.461  53.203  1.00  0.00     0.012 A 
HETATM   18  C   UNL     1       3.473  28.167  53.094  1.00  0.00     0.012 A 
ENDBRANCH   9  16
ENDBRANCH   2   5
BRANCH   1  19
HETATM   19  C   UNL     1       7.830  30.389  58.242  1.00  0.00     0.035 A 
HETATM   20  C   UNL     1       6.891  31.142  58.949  1.00  0.00     0.038 A 
HETATM   21  C   UNL     1       7.278  32.103  59.895  1.00  0.00    -0.030 A 
HETATM   22  C   UNL     1       8.641  32.343  60.092  1.00  0.00     0.009 A 
HETATM   23  C   UNL     1       9.588  31.640  59.343  1.00  0.00     0.003 A 
HETATM   24  C   UNL     1       9.185  30.669  58.421  1.00  0.00     0.029 A 
BRANCH  21  25
HETATM   25  C   UNL     1       6.220  32.810  60.697  1.00  0.00     0.272 C 
BRANCH  25  26
HETATM   26  N   UNL     1       5.316  31.875  61.475  1.00  0.00    -0.075 N 
HETATM   27  C   UNL     1       3.854  32.226  61.385  1.00  0.00     0.269 C 
HETATM   28  H   UNL     1       5.421  30.950  61.043  1.00  0.00     0.279 HD
HETATM   29  C   UNL     1       5.757  31.763  62.907  1.00  0.00     0.269 C 
ENDBRANCH  25  26
ENDBRANCH  21  25
ENDBRANCH   1  19
TORSDOF 6
ENDMDL
MODEL 10
REMARK VINA RESULT:      -8.4      3.559     10.201
REMARK  6 active torsions:
REMARK  status: ('A' for Active; 'I' for Inactive)
REMARK    1  A    between atoms: N_2  and  C_4 
REMARK    2  A    between atoms: C_4  and  C_5 
REMARK    3  A    between atoms: C_7  and  N_8 
REMARK       I    between atoms: N_8  and  C_9 
REMARK    4  A    between atoms: C_9  and  C_10 
REMARK    5  A    between atoms: C_12  and  C_13 
REMARK    6  A    between atoms: C_20  and  C_21 
ROOT
HETATM    1  N   UNL     1       7.439  30.893  59.876  1.00  0.00    -0.322 N 
HETATM    2  C   UNL     1       6.689  32.037  59.643  1.00  0.00     0.277 C 
HETATM    3  O   UNL     1       6.624  32.628  58.568  1.00  0.00    -0.266 OA
HETATM    4  H   UNL     1       7.488  30.613  60.854  1.00  0.00     0.169 HD
ENDROOT
BRANCH   2   5
HETATM    5  C   UNL     1       6.006  32.502  60.845  1.00  0.00     0.157 A 
HETATM    6  N   UNL     1       6.675  32.728  62.045  1.00  0.00    -0.216 NA
HETATM    7  C   UNL     1       5.721  33.120  62.873  1.00  0.00     0.180 A 
HETATM    8  O   UNL     1       4.479  33.178  62.304  1.00  0.00    -0.293 OA
HETATM    9  C   UNL     1       4.662  32.784  61.008  1.00  0.00     0.094 A 
BRANCH   7  10
HETATM   10  C   UNL     1       5.803  33.486  64.285  1.00  0.00     0.017 A 
HETATM   11  C   UNL     1       4.628  33.679  65.028  1.00  0.00     0.016 A 
HETATM   12  C   UNL     1       4.686  34.035  66.378  1.00  0.00     0.001 A 
HETATM   13  C   UNL     1       5.920  34.205  67.003  1.00  0.00     0.000 A 
HETATM   14  C   UNL     1       7.095  34.019  66.280  1.00  0.00     0.001 A 
HETATM   15  C   UNL     1       7.037  33.662  64.930  1.00  0.00     0.016 A 
ENDBRANCH   7  10
BRANCH   9  16
HETATM   16  C   UNL     1       3.543  32.691  59.987  1.00  0.00     0.046 A 
HETATM   17  C   UNL     1       2.475  33.765  60.012  1.00  0.00     0.012 A 
HETATM   18  C   UNL     1       3.479  33.756  58.911  1.00  0.00     0.012 A 
ENDBRANCH   9  16
ENDBRANCH   2   5
BRANCH   1  19
HETATM   19  C   UNL     1       8.202  30.184  58.932  1.00  0.00     0.035 A 
HETATM   20  C   UNL     1       7.728  29.039  58.288  1.00  0.00     0.038 A 
HETATM   21  C   UNL     1       8.465  28.403  57.277  1.00  0.00    -0.030 A 
HETATM   22  C   UNL     1       9.728  28.905  56.948  1.00  0.00     0.009 A 
HETATM   23  C   UNL     1      10.238  30.012  57.630  1.00  0.00     0.003 A 
HETATM   24  C   UNL     1       9.479  30.648  58.619  1.00  0.00     0.029 A 
BRANCH  21  25
HETATM   25  C   UNL     1       7.857  27.234  56.552  1.00  0.00     0.272 C 
BRANCH  25  26
HETATM   26  N   UNL     1       7.523  26.063  57.454  1.00  0.00    -0.075 N 
HETATM   27  C   UNL     1       8.546  24.957  57.422  1.00  0.00     0.269 C 
HETATM   28  H   UNL     1       7.520  26.431  58.412  1.00  0.00     0.279 HD
HETATM   29  C   UNL     1       6.147  25.533  57.165  1.00  0.00     0.269 C 
ENDBRANCH  25  26
ENDBRANCH  21  25
ENDBRANCH   1  19
TORSDOF 6
ENDMDL
