MODEL 1
REMARK VINA RESULT:     -10.5      0.000      0.000
REMARK  4 active torsions:
REMARK  status: ('A' for Active; 'I' for Inactive)
REMARK    1  A    between atoms: C_3  and  C_4 
REMARK    2  A    between atoms: C_9  and  N_10 
REMARK       I    between atoms: N_10  and  C_11 
REMARK    3  A    between atoms: C_11  and  C_12 
REMARK    4  A    between atoms: C_12  and  C_13 
ROOT
HETATM    1  N   UNL     1       7.555  26.167  54.362  1.00  0.00    -0.327 N 
HETATM    2  C   UNL     1       6.562  26.861  55.010  1.00  0.00     0.227 C 
HETATM    3  O   UNL     1       5.583  26.351  55.557  1.00  0.00    -0.273 OA
HETATM    4  H   UNL     1       8.280  26.740  53.928  1.00  0.00     0.169 HD
ENDROOT
BRANCH   2   5
HETATM    5  C   UNL     1       6.688  28.373  55.038  1.00  0.00     0.165 C 
BRANCH   5   6
HETATM    6  C   UNL     1       6.880  29.137  56.335  1.00  0.00     0.074 A 
HETATM    7  N   UNL     1       5.848  29.403  57.082  1.00  0.00    -0.175 NA
HETATM    8  N   UNL     1       6.039  30.094  58.236  1.00  0.00    -0.243 N 
HETATM    9  C   UNL     1       7.239  30.561  58.714  1.00  0.00     0.272 A 
HETATM   10  H   UNL     1       5.217  30.294  58.801  1.00  0.00     0.192 HD
HETATM   11  O   UNL     1       7.325  31.190  59.762  1.00  0.00    -0.266 OA
HETATM   12  C   UNL     1       8.423  30.255  57.898  1.00  0.00     0.046 A 
HETATM   13  C   UNL     1       8.264  29.537  56.715  1.00  0.00     0.006 A 
HETATM   14  C   UNL     1       9.691  30.674  58.316  1.00  0.00     0.018 A 
HETATM   15  C   UNL     1       9.393  29.222  55.949  1.00  0.00     0.014 A 
HETATM   16  C   UNL     1      10.661  29.639  56.365  1.00  0.00     0.001 A 
HETATM   17  C   UNL     1      10.811  30.366  57.545  1.00  0.00     0.001 A 
ENDBRANCH   5   6
ENDBRANCH   2   5
BRANCH   1  18
HETATM   18  C   UNL     1       7.696  24.775  54.209  1.00  0.00     0.035 A 
HETATM   19  C   UNL     1       7.910  23.886  55.262  1.00  0.00     0.046 A 
HETATM   20  C   UNL     1       8.049  22.499  55.036  1.00  0.00     0.056 A 
HETATM   21  C   UNL     1       7.947  22.001  53.720  1.00  0.00    -0.047 A 
HETATM   22  C   UNL     1       8.089  20.534  53.414  1.00  0.00     0.049 C 
HETATM   23  C   UNL     1       7.746  22.900  52.664  1.00  0.00     0.010 A 
HETATM   24  C   UNL     1       7.621  24.270  52.908  1.00  0.00     0.030 A 
BRANCH  20  25
HETATM   25  C   UNL     1       8.279  21.579  56.217  1.00  0.00     0.418 C 
HETATM   26  F   UNL     1       7.310  20.627  56.344  1.00  0.00    -0.166 F 
HETATM   27  F   UNL     1       9.454  20.892  56.162  1.00  0.00    -0.166 F 
HETATM   28  F   UNL     1       8.299  22.250  57.403  1.00  0.00    -0.166 F 
ENDBRANCH  20  25
ENDBRANCH   1  18
TORSDOF 4
ENDMDL
MODEL 2
REMARK VINA RESULT:     -10.4      1.855      2.641
REMARK  4 active torsions:
REMARK  status: ('A' for Active; 'I' for Inactive)
REMARK    1  A    between atoms: C_3  and  C_4 
REMARK    2  A    between atoms: C_9  and  N_10 
REMARK       I    between atoms: N_10  and  C_11 
REMARK    3  A    between atoms: C_11  and  C_12 
REMARK    4  A    between atoms: C_12  and  C_13 
ROOT
HETATM    1  N   UNL     1       7.747  26.007  56.562  1.00  0.00    -0.327 N 
HETATM    2  C   UNL     1       6.687  26.875  56.659  1.00  0.00     0.227 C 
HETATM    3  O   UNL     1       5.588  26.714  56.126  1.00  0.00    -0.273 OA
HETATM    4  H   UNL     1       8.602  26.305  57.033  1.00  0.00     0.169 HD
ENDROOT
BRANCH   2   5
HETATM    5  C   UNL     1       6.902  28.132  57.482  1.00  0.00     0.165 C 
BRANCH   5   6
HETATM    6  C   UNL     1       8.231  28.864  57.494  1.00  0.00     0.074 A 
HETATM    7  N   UNL     1       9.203  28.442  56.737  1.00  0.00    -0.175 NA
HETATM    8  N   UNL     1      10.388  29.106  56.766  1.00  0.00    -0.243 N 
HETATM    9  C   UNL     1      10.683  30.207  57.532  1.00  0.00     0.272 A 
HETATM   10  H   UNL     1      11.133  28.755  56.170  1.00  0.00     0.192 HD
HETATM   11  O   UNL     1      11.786  30.742  57.510  1.00  0.00    -0.266 OA
HETATM   12  C   UNL     1       9.595  30.716  58.380  1.00  0.00     0.046 A 
HETATM   13  C   UNL     1       8.363  30.065  58.365  1.00  0.00     0.006 A 
HETATM   14  C   UNL     1       9.798  31.846  59.180  1.00  0.00     0.018 A 
HETATM   15  C   UNL     1       7.316  30.563  59.151  1.00  0.00     0.014 A 
HETATM   16  C   UNL     1       7.517  31.693  59.951  1.00  0.00     0.001 A 
HETATM   17  C   UNL     1       8.756  32.331  59.969  1.00  0.00     0.001 A 
ENDBRANCH   5   6
ENDBRANCH   2   5
BRANCH   1  18
HETATM   18  C   UNL     1       7.811  24.772  55.889  1.00  0.00     0.035 A 
HETATM   19  C   UNL     1       7.992  23.542  56.521  1.00  0.00     0.046 A 
HETATM   20  C   UNL     1       8.053  22.339  55.783  1.00  0.00     0.056 A 
HETATM   21  C   UNL     1       7.906  22.382  54.380  1.00  0.00    -0.047 A 
HETATM   22  C   UNL     1       7.964  21.136  53.539  1.00  0.00     0.049 C 
HETATM   23  C   UNL     1       7.738  23.623  53.750  1.00  0.00     0.010 A 
HETATM   24  C   UNL     1       7.690  24.802  54.498  1.00  0.00     0.030 A 
BRANCH  20  25
HETATM   25  C   UNL     1       8.250  21.031  56.520  1.00  0.00     0.418 C 
HETATM   26  F   UNL     1       9.417  20.408  56.192  1.00  0.00    -0.166 F 
HETATM   27  F   UNL     1       8.279  21.159  57.877  1.00  0.00    -0.166 F 
HETATM   28  F   UNL     1       7.261  20.132  56.257  1.00  0.00    -0.166 F 
ENDBRANCH  20  25
ENDBRANCH   1  18
TORSDOF 4
ENDMDL
MODEL 3
REMARK VINA RESULT:     -10.2      1.526      2.497
REMARK  4 active torsions:
REMARK  status: ('A' for Active; 'I' for Inactive)
REMARK    1  A    between atoms: C_3  and  C_4 
REMARK    2  A    between atoms: C_9  and  N_10 
REMARK       I    between atoms: N_10  and  C_11 
REMARK    3  A    between atoms: C_11  and  C_12 
REMARK    4  A    between atoms: C_12  and  C_13 
ROOT
HETATM    1  N   UNL     1       6.925  25.621  55.130  1.00  0.00    -0.327 N 
HETATM    2  C   UNL     1       5.900  26.002  55.963  1.00  0.00     0.227 C 
HETATM    3  O   UNL     1       5.110  25.233  56.511  1.00  0.00    -0.273 OA
HETATM    4  H   UNL     1       7.470  26.385  54.727  1.00  0.00     0.169 HD
ENDROOT
BRANCH   2   5
HETATM    5  C   UNL     1       5.735  27.490  56.210  1.00  0.00     0.165 C 
BRANCH   5   6
HETATM    6  C   UNL     1       6.819  28.318  56.874  1.00  0.00     0.074 A 
HETATM    7  N   UNL     1       8.054  27.911  56.831  1.00  0.00    -0.175 NA
HETATM    8  N   UNL     1       9.011  28.662  57.437  1.00  0.00    -0.243 N 
HETATM    9  C   UNL     1       8.810  29.839  58.115  1.00  0.00     0.272 A 
HETATM   10  H   UNL     1       9.968  28.321  57.394  1.00  0.00     0.192 HD
HETATM   11  O   UNL     1       9.728  30.452  58.648  1.00  0.00    -0.266 OA
HETATM   12  C   UNL     1       7.425  30.331  58.161  1.00  0.00     0.046 A 
HETATM   13  C   UNL     1       6.422  29.591  57.538  1.00  0.00     0.006 A 
HETATM   14  C   UNL     1       7.127  31.534  58.813  1.00  0.00     0.018 A 
HETATM   15  C   UNL     1       5.106  30.071  57.557  1.00  0.00     0.014 A 
HETATM   16  C   UNL     1       4.807  31.272  58.208  1.00  0.00     0.001 A 
HETATM   17  C   UNL     1       5.815  32.001  58.837  1.00  0.00     0.001 A 
ENDBRANCH   5   6
ENDBRANCH   2   5
BRANCH   1  18
HETATM   18  C   UNL     1       7.313  24.321  54.755  1.00  0.00     0.035 A 
HETATM   19  C   UNL     1       7.631  23.305  55.655  1.00  0.00     0.046 A 
HETATM   20  C   UNL     1       8.019  22.023  55.209  1.00  0.00     0.056 A 
HETATM   21  C   UNL     1       8.065  21.759  53.823  1.00  0.00    -0.047 A 
HETATM   22  C   UNL     1       8.473  20.414  53.285  1.00  0.00     0.049 C 
HETATM   23  C   UNL     1       7.758  22.788  52.923  1.00  0.00     0.010 A 
HETATM   24  C   UNL     1       7.385  24.053  53.385  1.00  0.00     0.030 A 
BRANCH  20  25
HETATM   25  C   UNL     1       8.353  20.956  56.231  1.00  0.00     0.418 C 
HETATM   26  F   UNL     1       9.585  20.405  56.039  1.00  0.00    -0.166 F 
HETATM   27  F   UNL     1       8.355  21.404  57.518  1.00  0.00    -0.166 F 
HETATM   28  F   UNL     1       7.472  19.917  56.204  1.00  0.00    -0.166 F 
ENDBRANCH  20  25
ENDBRANCH   1  18
TORSDOF 4
ENDMDL
MODEL 4
REMARK VINA RESULT:     -10.1      1.345      2.097
REMARK  4 active torsions:
REMARK  status: ('A' for Active; 'I' for Inactive)
REMARK    1  A    between atoms: C_3  and  C_4 
REMARK    2  A    between atoms: C_9  and  N_10 
REMARK       I    between atoms: N_10  and  C_11 
REMARK    3  A    between atoms: C_11  and  C_12 
REMARK    4  A    between atoms: C_12  and  C_13 
ROOT
HETATM    1  N   UNL     1       7.647  26.183  55.511  1.00  0.00    -0.327 N 
HETATM    2  C   UNL     1       6.453  26.859  55.580  1.00  0.00     0.227 C 
HETATM    3  O   UNL     1       5.348  26.331  55.719  1.00  0.00    -0.273 OA
HETATM    4  H   UNL     1       8.472  26.765  55.358  1.00  0.00     0.169 HD
ENDROOT
BRANCH   2   5
HETATM    5  C   UNL     1       6.512  28.370  55.464  1.00  0.00     0.165 C 
BRANCH   5   6
HETATM    6  C   UNL     1       6.792  29.256  56.664  1.00  0.00     0.074 A 
HETATM    7  N   UNL     1       5.808  29.623  57.434  1.00  0.00    -0.175 NA
HETATM    8  N   UNL     1       6.076  30.421  58.500  1.00  0.00    -0.243 N 
HETATM    9  C   UNL     1       7.310  30.901  58.864  1.00  0.00     0.272 A 
HETATM   10  H   UNL     1       5.292  30.698  59.084  1.00  0.00     0.192 HD
HETATM   11  O   UNL     1       7.467  31.630  59.837  1.00  0.00    -0.266 OA
HETATM   12  C   UNL     1       8.441  30.484  58.022  1.00  0.00     0.046 A 
HETATM   13  C   UNL     1       8.202  29.656  56.928  1.00  0.00     0.006 A 
HETATM   14  C   UNL     1       9.739  30.909  58.328  1.00  0.00     0.018 A 
HETATM   15  C   UNL     1       9.281  29.235  56.140  1.00  0.00     0.014 A 
HETATM   16  C   UNL     1      10.579  29.658  56.444  1.00  0.00     0.001 A 
HETATM   17  C   UNL     1      10.808  30.496  57.534  1.00  0.00     0.001 A 
ENDBRANCH   5   6
ENDBRANCH   2   5
BRANCH   1  18
HETATM   18  C   UNL     1       7.879  24.798  55.613  1.00  0.00     0.035 A 
HETATM   19  C   UNL     1       7.909  23.924  54.526  1.00  0.00     0.046 A 
HETATM   20  C   UNL     1       8.141  22.543  54.701  1.00  0.00     0.056 A 
HETATM   21  C   UNL     1       8.369  22.040  56.000  1.00  0.00    -0.047 A 
HETATM   22  C   UNL     1       8.620  20.578  56.252  1.00  0.00     0.049 C 
HETATM   23  C   UNL     1       8.324  22.921  57.089  1.00  0.00     0.010 A 
HETATM   24  C   UNL     1       8.084  24.283  56.896  1.00  0.00     0.030 A 
BRANCH  20  25
HETATM   25  C   UNL     1       8.164  21.639  53.486  1.00  0.00     0.418 C 
HETATM   26  F   UNL     1       9.389  21.088  53.258  1.00  0.00    -0.166 F 
HETATM   27  F   UNL     1       7.303  20.585  53.564  1.00  0.00    -0.166 F 
HETATM   28  F   UNL     1       7.834  22.300  52.341  1.00  0.00    -0.166 F 
ENDBRANCH  20  25
ENDBRANCH   1  18
TORSDOF 4
ENDMDL
MODEL 5
REMARK VINA RESULT:     -10.0      6.131      8.552
REMARK  4 active torsions:
REMARK  status: ('A' for Active; 'I' for Inactive)
REMARK    1  A    between atoms: C_3  and  C_4 
REMARK    2  A    between atoms: C_9  and  N_10 
REMARK       I    between atoms: N_10  and  C_11 
REMARK    3  A    between atoms: C_11  and  C_12 
REMARK    4  A    between atoms: C_12  and  C_13 
ROOT
HETATM    1  N   UNL     1       6.030  26.302  50.884  1.00  0.00    -0.327 N 
HETATM    2  C   UNL     1       6.043  25.366  51.890  1.00  0.00     0.227 C 
HETATM    3  O   UNL     1       5.053  24.988  52.519  1.00  0.00    -0.273 OA
HETATM    4  H   UNL     1       6.941  26.532  50.487  1.00  0.00     0.169 HD
ENDROOT
BRANCH   2   5
HETATM    5  C   UNL     1       7.389  24.767  52.252  1.00  0.00     0.165 C 
BRANCH   5   6
HETATM    6  C   UNL     1       7.716  24.324  53.667  1.00  0.00     0.074 A 
HETATM    7  N   UNL     1       7.767  25.209  54.620  1.00  0.00    -0.175 NA
HETATM    8  N   UNL     1       8.067  24.795  55.879  1.00  0.00    -0.243 N 
HETATM    9  C   UNL     1       8.334  23.505  56.267  1.00  0.00     0.272 A 
HETATM   10  H   UNL     1       8.105  25.504  56.606  1.00  0.00     0.192 HD
HETATM   11  O   UNL     1       8.610  23.215  57.426  1.00  0.00    -0.266 OA
HETATM   12  C   UNL     1       8.262  22.484  55.212  1.00  0.00     0.046 A 
HETATM   13  C   UNL     1       7.944  22.873  53.913  1.00  0.00     0.006 A 
HETATM   14  C   UNL     1       8.500  21.139  55.518  1.00  0.00     0.018 A 
HETATM   15  C   UNL     1       7.849  21.899  52.910  1.00  0.00     0.014 A 
HETATM   16  C   UNL     1       8.086  20.555  53.215  1.00  0.00     0.001 A 
HETATM   17  C   UNL     1       8.414  20.175  54.515  1.00  0.00     0.001 A 
ENDBRANCH   5   6
ENDBRANCH   2   5
BRANCH   1  18
HETATM   18  C   UNL     1       4.928  26.989  50.340  1.00  0.00     0.035 A 
HETATM   19  C   UNL     1       4.230  26.580  49.204  1.00  0.00     0.046 A 
HETATM   20  C   UNL     1       3.136  27.322  48.708  1.00  0.00     0.056 A 
HETATM   21  C   UNL     1       2.728  28.489  49.389  1.00  0.00    -0.047 A 
HETATM   22  C   UNL     1       1.572  29.324  48.908  1.00  0.00     0.049 C 
HETATM   23  C   UNL     1       3.443  28.902  50.521  1.00  0.00     0.010 A 
HETATM   24  C   UNL     1       4.528  28.159  50.990  1.00  0.00     0.030 A 
BRANCH  20  25
HETATM   25  C   UNL     1       2.412  26.832  47.471  1.00  0.00     0.418 C 
HETATM   26  F   UNL     1       1.134  26.433  47.727  1.00  0.00    -0.166 F 
HETATM   27  F   UNL     1       2.308  27.766  46.484  1.00  0.00    -0.166 F 
HETATM   28  F   UNL     1       3.029  25.760  46.899  1.00  0.00    -0.166 F 
ENDBRANCH  20  25
ENDBRANCH   1  18
TORSDOF 4
ENDMDL
MODEL 6
REMARK VINA RESULT:     -10.0      2.100      2.730
REMARK  4 active torsions:
REMARK  status: ('A' for Active; 'I' for Inactive)
REMARK    1  A    between atoms: C_3  and  C_4 
REMARK    2  A    between atoms: C_9  and  N_10 
REMARK       I    between atoms: N_10  and  C_11 
REMARK    3  A    between atoms: C_11  and  C_12 
REMARK    4  A    between atoms: C_12  and  C_13 
ROOT
HETATM    1  N   UNL     1       7.680  25.830  55.746  1.00  0.00    -0.327 N 
HETATM    2  C   UNL     1       7.954  26.254  57.024  1.00  0.00     0.227 C 
HETATM    3  O   UNL     1       8.289  25.521  57.956  1.00  0.00    -0.273 OA
HETATM    4  H   UNL     1       7.380  26.559  55.097  1.00  0.00     0.169 HD
ENDROOT
BRANCH   2   5
HETATM    5  C   UNL     1       7.819  27.740  57.298  1.00  0.00     0.165 C 
BRANCH   5   6
HETATM    6  C   UNL     1       6.485  28.456  57.196  1.00  0.00     0.074 A 
HETATM    7  N   UNL     1       5.489  27.874  56.594  1.00  0.00    -0.175 NA
HETATM    8  N   UNL     1       4.304  28.533  56.507  1.00  0.00    -0.243 N 
HETATM    9  C   UNL     1       4.035  29.787  56.998  1.00  0.00     0.272 A 
HETATM   10  H   UNL     1       3.542  28.060  56.028  1.00  0.00     0.192 HD
HETATM   11  O   UNL     1       2.938  30.319  56.866  1.00  0.00    -0.266 OA
HETATM   12  C   UNL     1       5.139  30.457  57.701  1.00  0.00     0.046 A 
HETATM   13  C   UNL     1       6.363  29.804  57.819  1.00  0.00     0.006 A 
HETATM   14  C   UNL     1       4.950  31.730  58.252  1.00  0.00     0.018 A 
HETATM   15  C   UNL     1       7.408  30.429  58.511  1.00  0.00     0.014 A 
HETATM   16  C   UNL     1       7.222  31.700  59.063  1.00  0.00     0.001 A 
HETATM   17  C   UNL     1       5.997  32.351  58.931  1.00  0.00     0.001 A 
ENDBRANCH   5   6
ENDBRANCH   2   5
BRANCH   1  18
HETATM   18  C   UNL     1       7.749  24.526  55.220  1.00  0.00     0.035 A 
HETATM   19  C   UNL     1       7.899  23.374  55.992  1.00  0.00     0.046 A 
HETATM   20  C   UNL     1       7.967  22.095  55.398  1.00  0.00     0.056 A 
HETATM   21  C   UNL     1       7.859  21.980  53.995  1.00  0.00    -0.047 A 
HETATM   22  C   UNL     1       7.926  20.645  53.303  1.00  0.00     0.049 C 
HETATM   23  C   UNL     1       7.722  23.141  53.224  1.00  0.00     0.010 A 
HETATM   24  C   UNL     1       7.666  24.398  53.831  1.00  0.00     0.030 A 
BRANCH  20  25
HETATM   25  C   UNL     1       8.130  20.878  56.284  1.00  0.00     0.418 C 
HETATM   26  F   UNL     1       7.048  20.049  56.250  1.00  0.00    -0.166 F 
HETATM   27  F   UNL     1       9.195  20.094  55.957  1.00  0.00    -0.166 F 
HETATM   28  F   UNL     1       8.305  21.208  57.594  1.00  0.00    -0.166 F 
ENDBRANCH  20  25
ENDBRANCH   1  18
TORSDOF 4
ENDMDL
MODEL 7
REMARK VINA RESULT:      -9.7      6.035      8.454
REMARK  4 active torsions:
REMARK  status: ('A' for Active; 'I' for Inactive)
REMARK    1  A    between atoms: C_3  and  C_4 
REMARK    2  A    between atoms: C_9  and  N_10 
REMARK       I    between atoms: N_10  and  C_11 
REMARK    3  A    between atoms: C_11  and  C_12 
REMARK    4  A    between atoms: C_12  and  C_13 
ROOT
HETATM    1  N   UNL     1       5.935  26.315  50.736  1.00  0.00    -0.327 N 
HETATM    2  C   UNL     1       6.026  25.425  51.779  1.00  0.00     0.227 C 
HETATM    3  O   UNL     1       5.068  24.887  52.337  1.00  0.00    -0.273 OA
HETATM    4  H   UNL     1       6.822  26.700  50.409  1.00  0.00     0.169 HD
ENDROOT
BRANCH   2   5
HETATM    5  C   UNL     1       7.420  25.096  52.281  1.00  0.00     0.165 C 
BRANCH   5   6
HETATM    6  C   UNL     1       7.666  24.584  53.688  1.00  0.00     0.074 A 
HETATM    7  N   UNL     1       7.673  25.422  54.683  1.00  0.00    -0.175 NA
HETATM    8  N   UNL     1       7.901  24.946  55.936  1.00  0.00    -0.243 N 
HETATM    9  C   UNL     1       8.136  23.636  56.276  1.00  0.00     0.272 A 
HETATM   10  H   UNL     1       7.907  25.620  56.697  1.00  0.00     0.192 HD
HETATM   11  O   UNL     1       8.347  23.288  57.432  1.00  0.00    -0.266 OA
HETATM   12  C   UNL     1       8.112  22.666  55.170  1.00  0.00     0.046 A 
HETATM   13  C   UNL     1       7.868  23.120  53.876  1.00  0.00     0.006 A 
HETATM   14  C   UNL     1       8.320  21.306  55.425  1.00  0.00     0.018 A 
HETATM   15  C   UNL     1       7.818  22.195  52.825  1.00  0.00     0.014 A 
HETATM   16  C   UNL     1       8.026  20.836  53.077  1.00  0.00     0.001 A 
HETATM   17  C   UNL     1       8.280  20.392  54.373  1.00  0.00     0.001 A 
ENDBRANCH   5   6
ENDBRANCH   2   5
BRANCH   1  18
HETATM   18  C   UNL     1       4.782  26.771  50.071  1.00  0.00     0.035 A 
HETATM   19  C   UNL     1       4.101  27.946  50.392  1.00  0.00     0.046 A 
HETATM   20  C   UNL     1       2.945  28.342  49.686  1.00  0.00     0.056 A 
HETATM   21  C   UNL     1       2.481  27.543  48.619  1.00  0.00    -0.047 A 
HETATM   22  C   UNL     1       1.253  27.910  47.829  1.00  0.00     0.049 C 
HETATM   23  C   UNL     1       3.160  26.357  48.310  1.00  0.00     0.010 A 
HETATM   24  C   UNL     1       4.298  25.979  49.027  1.00  0.00     0.030 A 
BRANCH  20  25
HETATM   25  C   UNL     1       2.246  29.627  50.077  1.00  0.00     0.418 C 
HETATM   26  F   UNL     1       2.213  30.541  49.066  1.00  0.00    -0.166 F 
HETATM   27  F   UNL     1       0.947  29.459  50.453  1.00  0.00    -0.166 F 
HETATM   28  F   UNL     1       2.854  30.252  51.124  1.00  0.00    -0.166 F 
ENDBRANCH  20  25
ENDBRANCH   1  18
TORSDOF 4
ENDMDL
MODEL 8
REMARK VINA RESULT:      -9.6      4.137      8.603
REMARK  4 active torsions:
REMARK  status: ('A' for Active; 'I' for Inactive)
REMARK    1  A    between atoms: C_3  and  C_4 
REMARK    2  A    between atoms: C_9  and  N_10 
REMARK       I    between atoms: N_10  and  C_11 
REMARK    3  A    between atoms: C_11  and  C_12 
REMARK    4  A    between atoms: C_12  and  C_13 
ROOT
HETATM    1  N   UNL     1       7.190  29.192  57.586  1.00  0.00    -0.327 N 
HETATM    2  C   UNL     1       8.218  28.539  56.949  1.00  0.00     0.227 C 
HETATM    3  O   UNL     1       9.417  28.753  57.135  1.00  0.00    -0.273 OA
HETATM    4  H   UNL     1       6.251  28.923  57.293  1.00  0.00     0.169 HD
ENDROOT
BRANCH   2   5
HETATM    5  C   UNL     1       7.832  27.481  55.931  1.00  0.00     0.165 C 
BRANCH   5   6
HETATM    6  C   UNL     1       7.962  25.998  56.228  1.00  0.00     0.074 A 
HETATM    7  N   UNL     1       8.151  25.604  57.454  1.00  0.00    -0.175 NA
HETATM    8  N   UNL     1       8.272  24.272  57.700  1.00  0.00    -0.243 N 
HETATM    9  C   UNL     1       8.218  23.267  56.766  1.00  0.00     0.272 A 
HETATM   10  H   UNL     1       8.423  23.989  58.664  1.00  0.00     0.192 HD
HETATM   11  O   UNL     1       8.350  22.086  57.068  1.00  0.00    -0.266 OA
HETATM   12  C   UNL     1       7.984  23.686  55.376  1.00  0.00     0.046 A 
HETATM   13  C   UNL     1       7.844  25.042  55.092  1.00  0.00     0.006 A 
HETATM   14  C   UNL     1       7.895  22.728  54.359  1.00  0.00     0.018 A 
HETATM   15  C   UNL     1       7.595  25.443  53.773  1.00  0.00     0.014 A 
HETATM   16  C   UNL     1       7.505  24.488  52.755  1.00  0.00     0.001 A 
HETATM   17  C   UNL     1       7.657  23.133  53.047  1.00  0.00     0.001 A 
ENDBRANCH   5   6
ENDBRANCH   2   5
BRANCH   1  18
HETATM   18  C   UNL     1       7.266  30.187  58.578  1.00  0.00     0.035 A 
HETATM   19  C   UNL     1       8.178  30.178  59.634  1.00  0.00     0.046 A 
HETATM   20  C   UNL     1       8.194  31.207  60.600  1.00  0.00     0.056 A 
HETATM   21  C   UNL     1       7.283  32.279  60.482  1.00  0.00    -0.047 A 
HETATM   22  C   UNL     1       7.249  33.404  61.481  1.00  0.00     0.049 C 
HETATM   23  C   UNL     1       6.360  32.275  59.428  1.00  0.00     0.010 A 
HETATM   24  C   UNL     1       6.354  31.242  58.487  1.00  0.00     0.030 A 
BRANCH  20  25
HETATM   25  C   UNL     1       9.207  31.147  61.724  1.00  0.00     0.418 C 
HETATM   26  F   UNL     1      10.199  32.074  61.595  1.00  0.00    -0.166 F 
HETATM   27  F   UNL     1       8.674  31.360  62.961  1.00  0.00    -0.166 F 
HETATM   28  F   UNL     1       9.833  29.939  61.796  1.00  0.00    -0.166 F 
ENDBRANCH  20  25
ENDBRANCH   1  18
TORSDOF 4
ENDMDL
MODEL 9
REMARK VINA RESULT:      -9.5      5.418      8.739
REMARK  4 active torsions:
REMARK  status: ('A' for Active; 'I' for Inactive)
REMARK    1  A    between atoms: C_3  and  C_4 
REMARK    2  A    between atoms: C_9  and  N_10 
REMARK       I    between atoms: N_10  and  C_11 
REMARK    3  A    between atoms: C_11  and  C_12 
REMARK    4  A    between atoms: C_12  and  C_13 
ROOT
HETATM    1  N   UNL     1       8.401  31.997  60.897  1.00  0.00    -0.327 N 
HETATM    2  C   UNL     1       8.504  31.559  62.196  1.00  0.00     0.227 C 
HETATM    3  O   UNL     1       8.962  30.469  62.541  1.00  0.00    -0.273 OA
HETATM    4  H   UNL     1       7.965  32.912  60.775  1.00  0.00     0.169 HD
ENDROOT
BRANCH   2   5
HETATM    5  C   UNL     1       8.001  32.497  63.277  1.00  0.00     0.165 C 
BRANCH   5   6
HETATM    6  C   UNL     1       6.531  32.847  63.415  1.00  0.00     0.074 A 
HETATM    7  N   UNL     1       5.716  32.593  62.432  1.00  0.00    -0.175 NA
HETATM    8  N   UNL     1       4.404  32.918  62.571  1.00  0.00    -0.243 N 
HETATM    9  C   UNL     1       3.826  33.507  63.669  1.00  0.00     0.272 A 
HETATM   10  H   UNL     1       3.788  32.714  61.789  1.00  0.00     0.192 HD
HETATM   11  O   UNL     1       2.632  33.782  63.711  1.00  0.00    -0.266 OA
HETATM   12  C   UNL     1       4.722  33.786  64.801  1.00  0.00     0.046 A 
HETATM   13  C   UNL     1       6.070  33.453  64.696  1.00  0.00     0.006 A 
HETATM   14  C   UNL     1       4.218  34.367  65.970  1.00  0.00     0.018 A 
HETATM   15  C   UNL     1       6.922  33.692  65.783  1.00  0.00     0.014 A 
HETATM   16  C   UNL     1       6.419  34.272  66.951  1.00  0.00     0.001 A 
HETATM   17  C   UNL     1       5.071  34.612  67.045  1.00  0.00     0.001 A 
ENDBRANCH   5   6
ENDBRANCH   2   5
BRANCH   1  18
HETATM   18  C   UNL     1       8.808  31.346  59.717  1.00  0.00     0.035 A 
HETATM   19  C   UNL     1       8.153  30.248  59.159  1.00  0.00     0.046 A 
HETATM   20  C   UNL     1       8.619  29.639  57.974  1.00  0.00     0.056 A 
HETATM   21  C   UNL     1       9.760  30.165  57.330  1.00  0.00    -0.047 A 
HETATM   22  C   UNL     1      10.307  29.557  56.067  1.00  0.00     0.049 C 
HETATM   23  C   UNL     1      10.422  31.258  57.904  1.00  0.00     0.010 A 
HETATM   24  C   UNL     1       9.950  31.842  59.082  1.00  0.00     0.030 A 
BRANCH  20  25
HETATM   25  C   UNL     1       7.868  28.450  57.411  1.00  0.00     0.418 C 
HETATM   26  F   UNL     1       6.671  28.239  58.029  1.00  0.00    -0.166 F 
HETATM   27  F   UNL     1       7.576  28.558  56.085  1.00  0.00    -0.166 F 
HETATM   28  F   UNL     1       8.564  27.286  57.542  1.00  0.00    -0.166 F 
ENDBRANCH  20  25
ENDBRANCH   1  18
TORSDOF 4
ENDMDL
MODEL 10
REMARK VINA RESULT:      -9.5      2.816      4.079
REMARK  4 active torsions:
REMARK  status: ('A' for Active; 'I' for Inactive)
REMARK    1  A    between atoms: C_3  and  C_4 
REMARK    2  A    between atoms: C_9  and  N_10 
REMARK       I    between atoms: N_10  and  C_11 
REMARK    3  A    between atoms: C_11  and  C_12 
REMARK    4  A    between atoms: C_12  and  C_13 
ROOT
HETATM    1  N   UNL     1       6.673  25.500  55.181  1.00  0.00    -0.327 N 
HETATM    2  C   UNL     1       7.216  26.400  56.066  1.00  0.00     0.227 C 
HETATM    3  O   UNL     1       8.243  26.217  56.722  1.00  0.00    -0.273 OA
HETATM    4  H   UNL     1       5.797  25.789  54.743  1.00  0.00     0.169 HD
ENDROOT
BRANCH   2   5
HETATM    5  C   UNL     1       6.478  27.713  56.249  1.00  0.00     0.165 C 
BRANCH   5   6
HETATM    6  C   UNL     1       5.843  28.445  55.080  1.00  0.00     0.074 A 
HETATM    7  N   UNL     1       6.252  28.196  53.870  1.00  0.00    -0.175 NA
HETATM    8  N   UNL     1       5.677  28.866  52.836  1.00  0.00    -0.243 N 
HETATM    9  C   UNL     1       4.683  29.809  52.933  1.00  0.00     0.272 A 
HETATM   10  H   UNL     1       6.016  28.658  51.901  1.00  0.00     0.192 HD
HETATM   11  O   UNL     1       4.225  30.379  51.949  1.00  0.00    -0.266 OA
HETATM   12  C   UNL     1       4.190  30.092  54.289  1.00  0.00     0.046 A 
HETATM   13  C   UNL     1       4.750  29.414  55.369  1.00  0.00     0.006 A 
HETATM   14  C   UNL     1       3.164  31.025  54.483  1.00  0.00     0.018 A 
HETATM   15  C   UNL     1       4.264  29.662  56.659  1.00  0.00     0.014 A 
HETATM   16  C   UNL     1       3.238  30.593  56.855  1.00  0.00     0.001 A 
HETATM   17  C   UNL     1       2.692  31.276  55.770  1.00  0.00     0.001 A 
ENDBRANCH   5   6
ENDBRANCH   2   5
BRANCH   1  18
HETATM   18  C   UNL     1       7.160  24.233  54.809  1.00  0.00     0.035 A 
HETATM   19  C   UNL     1       7.503  23.226  55.713  1.00  0.00     0.046 A 
HETATM   20  C   UNL     1       7.992  21.978  55.271  1.00  0.00     0.056 A 
HETATM   21  C   UNL     1       8.115  21.736  53.886  1.00  0.00    -0.047 A 
HETATM   22  C   UNL     1       8.632  20.427  53.352  1.00  0.00     0.049 C 
HETATM   23  C   UNL     1       7.782  22.756  52.984  1.00  0.00     0.010 A 
HETATM   24  C   UNL     1       7.309  23.988  53.442  1.00  0.00     0.030 A 
BRANCH  20  25
HETATM   25  C   UNL     1       8.348  20.921  56.295  1.00  0.00     0.418 C 
HETATM   26  F   UNL     1       7.501  19.853  56.271  1.00  0.00    -0.166 F 
HETATM   27  F   UNL     1       9.595  20.395  56.137  1.00  0.00    -0.166 F 
HETATM   28  F   UNL     1       8.309  21.398  57.570  1.00  0.00    -0.166 F 
ENDBRANCH  20  25
ENDBRANCH   1  18
TORSDOF 4
ENDMDL
