MODEL 1
REMARK VINA RESULT:     -10.5      0.000      0.000
REMARK  5 active torsions:
REMARK  status: ('A' for Active; 'I' for Inactive)
REMARK    1  A    between atoms: C_9  and  C_10 
REMARK       I    between atoms: C_10  and  N_11 
REMARK    2  A    between atoms: N_11  and  C_12 
REMARK    3  A    between atoms: C_12  and  C_13 
REMARK    4  A    between atoms: C_15  and  O_16 
REMARK    5  A    between atoms: O_16  and  C_17 
ROOT
HETATM    1  C   UNL     1       6.884  26.492  55.790  1.00  0.00     0.273 C 
HETATM    2  N   UNL     1       7.915  27.124  56.447  1.00  0.00    -0.351 N 
HETATM    3  O   UNL     1       5.710  26.571  56.139  1.00  0.00    -0.266 OA
HETATM    4  H   UNL     1       8.846  26.927  56.091  1.00  0.00     0.163 HD
ENDROOT
BRANCH   2   5
HETATM    5  C   UNL     1       7.725  27.919  57.628  1.00  0.00     0.161 C 
BRANCH   5   6
HETATM    6  C   UNL     1       8.696  29.064  57.689  1.00  0.00    -0.035 A 
HETATM    7  C   UNL     1       8.483  30.129  58.569  1.00  0.00     0.066 A 
HETATM    8  C   UNL     1       9.388  31.179  58.579  1.00  0.00     0.164 A 
HETATM    9  N   UNL     1      10.488  31.227  57.801  1.00  0.00    -0.237 NA
HETATM   10  C   UNL     1      10.693  30.176  56.979  1.00  0.00     0.120 A 
HETATM   11  C   UNL     1       9.839  29.087  56.887  1.00  0.00     0.028 A 
BRANCH   8  12
HETATM   12  O   UNL     1       9.109  32.214  59.450  1.00  0.00    -0.329 OA
BRANCH  12  13
HETATM   13  C   UNL     1       8.384  31.831  60.617  1.00  0.00     0.130 C 
HETATM   14  C   UNL     1       9.205  32.039  61.891  1.00  0.00     0.032 C 
HETATM   15  C   UNL     1       8.162  32.349  62.947  1.00  0.00     0.002 C 
HETATM   16  C   UNL     1       7.211  33.283  62.218  1.00  0.00     0.002 C 
HETATM   17  C   UNL     1       7.173  32.767  60.780  1.00  0.00     0.032 C 
ENDBRANCH  12  13
ENDBRANCH   8  12
ENDBRANCH   5   6
ENDBRANCH   2   5
BRANCH   1  18
HETATM   18  C   UNL     1       7.336  25.723  54.618  1.00  0.00     0.157 A 
HETATM   19  C   UNL     1       7.548  24.316  54.534  1.00  0.00     0.029 A 
HETATM   20  C   UNL     1       7.447  23.219  55.413  1.00  0.00     0.023 A 
HETATM   21  C   UNL     1       7.942  24.086  53.222  1.00  0.00     0.063 A 
HETATM   22  C   UNL     1       7.752  21.928  54.949  1.00  0.00    -0.061 A 
HETATM   23  C   UNL     1       7.651  20.745  55.869  1.00  0.00     0.048 C 
HETATM   24  C   UNL     1       8.136  21.741  53.614  1.00  0.00     0.009 A 
HETATM   25  C   UNL     1       8.240  22.815  52.724  1.00  0.00     0.032 A 
HETATM   26  N   UNL     1       7.951  25.317  52.628  1.00  0.00    -0.277 N 
HETATM   27  H   UNL     1       8.191  25.531  51.667  1.00  0.00     0.189 HD
HETATM   28  N   UNL     1       7.597  26.332  53.438  1.00  0.00    -0.168 NA
ENDBRANCH   1  18
TORSDOF 5
ENDMDL
MODEL 2
REMARK VINA RESULT:      -9.3      2.077      3.045
REMARK  5 active torsions:
REMARK  status: ('A' for Active; 'I' for Inactive)
REMARK    1  A    between atoms: C_9  and  C_10 
REMARK       I    between atoms: C_10  and  N_11 
REMARK    2  A    between atoms: N_11  and  C_12 
REMARK    3  A    between atoms: C_12  and  C_13 
REMARK    4  A    between atoms: C_15  and  O_16 
REMARK    5  A    between atoms: O_16  and  C_17 
ROOT
HETATM    1  C   UNL     1       7.291  25.667  55.136  1.00  0.00     0.273 C 
HETATM    2  N   UNL     1       7.597  26.855  55.761  1.00  0.00    -0.351 N 
HETATM    3  O   UNL     1       6.755  25.600  54.034  1.00  0.00    -0.266 OA
HETATM    4  H   UNL     1       7.984  26.770  56.696  1.00  0.00     0.163 HD
ENDROOT
BRANCH   2   5
HETATM    5  C   UNL     1       7.294  28.140  55.196  1.00  0.00     0.161 C 
BRANCH   5   6
HETATM    6  C   UNL     1       6.562  29.017  56.172  1.00  0.00    -0.035 A 
HETATM    7  C   UNL     1       7.245  30.000  56.895  1.00  0.00     0.066 A 
HETATM    8  C   UNL     1       6.540  30.772  57.804  1.00  0.00     0.164 A 
HETATM    9  N   UNL     1       5.214  30.652  58.019  1.00  0.00    -0.237 NA
HETATM   10  C   UNL     1       4.566  29.719  57.290  1.00  0.00     0.120 A 
HETATM   11  C   UNL     1       5.185  28.888  56.368  1.00  0.00     0.028 A 
BRANCH   8  12
HETATM   12  O   UNL     1       7.274  31.706  58.507  1.00  0.00    -0.329 OA
BRANCH  12  13
HETATM   13  C   UNL     1       7.805  31.239  59.745  1.00  0.00     0.130 C 
HETATM   14  C   UNL     1       9.280  31.612  59.910  1.00  0.00     0.032 C 
HETATM   15  C   UNL     1       9.446  31.772  61.410  1.00  0.00     0.002 C 
HETATM   16  C   UNL     1       8.184  32.517  61.811  1.00  0.00     0.002 C 
HETATM   17  C   UNL     1       7.090  31.965  60.899  1.00  0.00     0.032 C 
ENDBRANCH  12  13
ENDBRANCH   8  12
ENDBRANCH   5   6
ENDBRANCH   2   5
BRANCH   1  18
HETATM   18  C   UNL     1       7.686  24.486  55.923  1.00  0.00     0.157 A 
HETATM   19  C   UNL     1       7.898  23.159  55.447  1.00  0.00     0.029 A 
HETATM   20  C   UNL     1       7.817  22.500  54.203  1.00  0.00     0.023 A 
HETATM   21  C   UNL     1       8.277  22.429  56.566  1.00  0.00     0.063 A 
HETATM   22  C   UNL     1       8.113  21.129  54.124  1.00  0.00    -0.061 A 
HETATM   23  C   UNL     1       8.033  20.408  52.809  1.00  0.00     0.048 C 
HETATM   24  C   UNL     1       8.501  20.433  55.277  1.00  0.00     0.009 A 
HETATM   25  C   UNL     1       8.590  21.068  56.521  1.00  0.00     0.032 A 
HETATM   26  N   UNL     1       8.260  23.321  57.601  1.00  0.00    -0.277 N 
HETATM   27  H   UNL     1       8.484  23.136  58.572  1.00  0.00     0.189 HD
HETATM   28  N   UNL     1       7.903  24.571  57.256  1.00  0.00    -0.168 NA
ENDBRANCH   1  18
TORSDOF 5
ENDMDL
MODEL 3
REMARK VINA RESULT:      -9.1      2.097      9.912
REMARK  5 active torsions:
REMARK  status: ('A' for Active; 'I' for Inactive)
REMARK    1  A    between atoms: C_9  and  C_10 
REMARK       I    between atoms: C_10  and  N_11 
REMARK    2  A    between atoms: N_11  and  C_12 
REMARK    3  A    between atoms: C_12  and  C_13 
REMARK    4  A    between atoms: C_15  and  O_16 
REMARK    5  A    between atoms: O_16  and  C_17 
ROOT
HETATM    1  C   UNL     1       8.181  30.252  58.559  1.00  0.00     0.273 C 
HETATM    2  N   UNL     1       7.668  29.193  57.844  1.00  0.00    -0.351 N 
HETATM    3  O   UNL     1       9.369  30.365  58.844  1.00  0.00    -0.266 OA
HETATM    4  H   UNL     1       6.659  29.191  57.729  1.00  0.00     0.163 HD
ENDROOT
BRANCH   2   5
HETATM    5  C   UNL     1       8.470  28.095  57.383  1.00  0.00     0.161 C 
BRANCH   5   6
HETATM    6  C   UNL     1       7.634  26.884  57.081  1.00  0.00    -0.035 A 
HETATM    7  C   UNL     1       8.238  25.651  56.821  1.00  0.00     0.066 A 
HETATM    8  C   UNL     1       7.434  24.562  56.523  1.00  0.00     0.164 A 
HETATM    9  N   UNL     1       6.086  24.612  56.492  1.00  0.00    -0.237 NA
HETATM   10  C   UNL     1       5.520  25.804  56.776  1.00  0.00     0.120 A 
HETATM   11  C   UNL     1       6.239  26.953  57.071  1.00  0.00     0.028 A 
BRANCH   8  12
HETATM   12  O   UNL     1       8.090  23.379  56.248  1.00  0.00    -0.329 OA
BRANCH  12  13
HETATM   13  C   UNL     1       7.474  22.574  55.246  1.00  0.00     0.130 C 
HETATM   14  C   UNL     1       8.150  22.742  53.883  1.00  0.00     0.032 C 
HETATM   15  C   UNL     1       7.963  21.392  53.217  1.00  0.00     0.002 C 
HETATM   16  C   UNL     1       8.241  20.417  54.349  1.00  0.00     0.002 C 
HETATM   17  C   UNL     1       7.681  21.090  55.600  1.00  0.00     0.032 C 
ENDBRANCH  12  13
ENDBRANCH   8  12
ENDBRANCH   5   6
ENDBRANCH   2   5
BRANCH   1  18
HETATM   18  C   UNL     1       7.156  31.242  58.933  1.00  0.00     0.157 A 
HETATM   19  C   UNL     1       7.019  31.918  60.181  1.00  0.00     0.029 A 
HETATM   20  C   UNL     1       7.698  31.918  61.417  1.00  0.00     0.023 A 
HETATM   21  C   UNL     1       5.924  32.757  60.021  1.00  0.00     0.063 A 
HETATM   22  C   UNL     1       7.250  32.754  62.454  1.00  0.00    -0.061 A 
HETATM   23  C   UNL     1       7.959  32.769  63.778  1.00  0.00     0.048 C 
HETATM   24  C   UNL     1       6.147  33.591  62.244  1.00  0.00     0.009 A 
HETATM   25  C   UNL     1       5.460  33.610  61.026  1.00  0.00     0.032 A 
HETATM   26  N   UNL     1       5.483  32.535  58.746  1.00  0.00    -0.277 N 
HETATM   27  H   UNL     1       4.697  32.977  58.284  1.00  0.00     0.189 HD
HETATM   28  N   UNL     1       6.196  31.623  58.059  1.00  0.00    -0.168 NA
ENDBRANCH   1  18
TORSDOF 5
ENDMDL
MODEL 4
REMARK VINA RESULT:      -9.0      2.304      8.956
REMARK  5 active torsions:
REMARK  status: ('A' for Active; 'I' for Inactive)
REMARK    1  A    between atoms: C_9  and  C_10 
REMARK       I    between atoms: C_10  and  N_11 
REMARK    2  A    between atoms: N_11  and  C_12 
REMARK    3  A    between atoms: C_12  and  C_13 
REMARK    4  A    between atoms: C_15  and  O_16 
REMARK    5  A    between atoms: O_16  and  C_17 
ROOT
HETATM    1  C   UNL     1       5.367  29.271  56.873  1.00  0.00     0.273 C 
HETATM    2  N   UNL     1       5.685  27.950  57.094  1.00  0.00    -0.351 N 
HETATM    3  O   UNL     1       4.562  29.641  56.023  1.00  0.00    -0.266 OA
HETATM    4  H   UNL     1       6.410  27.785  57.785  1.00  0.00     0.163 HD
ENDROOT
BRANCH   2   5
HETATM    5  C   UNL     1       5.126  26.869  56.331  1.00  0.00     0.161 C 
BRANCH   5   6
HETATM    6  C   UNL     1       6.052  26.429  55.232  1.00  0.00    -0.035 A 
HETATM    7  C   UNL     1       6.797  25.253  55.360  1.00  0.00     0.066 A 
HETATM    8  C   UNL     1       7.659  24.892  54.336  1.00  0.00     0.164 A 
HETATM    9  N   UNL     1       7.806  25.600  53.198  1.00  0.00    -0.237 NA
HETATM   10  C   UNL     1       7.056  26.716  53.079  1.00  0.00     0.120 A 
HETATM   11  C   UNL     1       6.178  27.166  54.053  1.00  0.00     0.028 A 
BRANCH   8  12
HETATM   12  O   UNL     1       8.386  23.736  54.533  1.00  0.00    -0.329 OA
BRANCH  12  13
HETATM   13  C   UNL     1       7.667  22.529  54.288  1.00  0.00     0.130 C 
HETATM   14  C   UNL     1       8.067  21.887  52.958  1.00  0.00     0.032 C 
HETATM   15  C   UNL     1       7.875  20.402  53.201  1.00  0.00     0.002 C 
HETATM   16  C   UNL     1       8.436  20.215  54.601  1.00  0.00     0.002 C 
HETATM   17  C   UNL     1       8.060  21.490  55.354  1.00  0.00     0.032 C 
ENDBRANCH  12  13
ENDBRANCH   8  12
ENDBRANCH   5   6
ENDBRANCH   2   5
BRANCH   1  18
HETATM   18  C   UNL     1       6.082  30.192  57.772  1.00  0.00     0.157 A 
HETATM   19  C   UNL     1       7.492  30.370  57.888  1.00  0.00     0.029 A 
HETATM   20  C   UNL     1       8.639  29.810  57.289  1.00  0.00     0.023 A 
HETATM   21  C   UNL     1       7.656  31.361  58.847  1.00  0.00     0.063 A 
HETATM   22  C   UNL     1       9.913  30.259  57.678  1.00  0.00    -0.061 A 
HETATM   23  C   UNL     1      11.148  29.676  57.052  1.00  0.00     0.048 C 
HETATM   24  C   UNL     1      10.031  31.268  58.642  1.00  0.00     0.009 A 
HETATM   25  C   UNL     1       8.906  31.839  59.247  1.00  0.00     0.032 A 
HETATM   26  N   UNL     1       6.389  31.696  59.238  1.00  0.00    -0.277 N 
HETATM   27  H   UNL     1       6.125  32.389  59.928  1.00  0.00     0.189 HD
HETATM   28  N   UNL     1       5.413  31.009  58.618  1.00  0.00    -0.168 NA
ENDBRANCH   1  18
TORSDOF 5
ENDMDL
MODEL 5
REMARK VINA RESULT:      -8.9      2.631      9.476
REMARK  5 active torsions:
REMARK  status: ('A' for Active; 'I' for Inactive)
REMARK    1  A    between atoms: C_9  and  C_10 
REMARK       I    between atoms: C_10  and  N_11 
REMARK    2  A    between atoms: N_11  and  C_12 
REMARK    3  A    between atoms: C_12  and  C_13 
REMARK    4  A    between atoms: C_15  and  O_16 
REMARK    5  A    between atoms: O_16  and  C_17 
ROOT
HETATM    1  C   UNL     1       5.489  32.173  58.427  1.00  0.00     0.273 C 
HETATM    2  N   UNL     1       5.159  30.837  58.445  1.00  0.00    -0.351 N 
HETATM    3  O   UNL     1       5.585  32.833  57.396  1.00  0.00    -0.266 OA
HETATM    4  H   UNL     1       5.173  30.396  59.360  1.00  0.00     0.163 HD
ENDROOT
BRANCH   2   5
HETATM    5  C   UNL     1       4.921  30.070  57.254  1.00  0.00     0.161 C 
BRANCH   5   6
HETATM    6  C   UNL     1       5.951  28.991  57.073  1.00  0.00    -0.035 A 
HETATM    7  C   UNL     1       5.717  27.926  56.198  1.00  0.00     0.066 A 
HETATM    8  C   UNL     1       6.680  26.937  56.076  1.00  0.00     0.164 A 
HETATM    9  N   UNL     1       7.855  26.951  56.737  1.00  0.00    -0.237 NA
HETATM   10  C   UNL     1       8.077  28.003  57.554  1.00  0.00     0.120 A 
HETATM   11  C   UNL     1       7.170  29.033  57.753  1.00  0.00     0.028 A 
BRANCH   8  12
HETATM   12  O   UNL     1       6.379  25.898  55.218  1.00  0.00    -0.329 OA
BRANCH  12  13
HETATM   13  C   UNL     1       7.507  25.150  54.769  1.00  0.00     0.130 C 
HETATM   14  C   UNL     1       7.252  23.643  54.831  1.00  0.00     0.032 C 
HETATM   15  C   UNL     1       8.089  23.088  53.694  1.00  0.00     0.002 C 
HETATM   16  C   UNL     1       7.847  24.089  52.577  1.00  0.00     0.002 C 
HETATM   17  C   UNL     1       7.736  25.443  53.275  1.00  0.00     0.032 C 
ENDBRANCH  12  13
ENDBRANCH   8  12
ENDBRANCH   5   6
ENDBRANCH   2   5
BRANCH   1  18
HETATM   18  C   UNL     1       5.701  32.731  59.773  1.00  0.00     0.157 A 
HETATM   19  C   UNL     1       6.679  32.334  60.732  1.00  0.00     0.029 A 
HETATM   20  C   UNL     1       7.703  31.367  60.798  1.00  0.00     0.023 A 
HETATM   21  C   UNL     1       6.484  33.175  61.819  1.00  0.00     0.063 A 
HETATM   22  C   UNL     1       8.493  31.272  61.956  1.00  0.00    -0.061 A 
HETATM   23  C   UNL     1       9.589  30.250  62.047  1.00  0.00     0.048 C 
HETATM   24  C   UNL     1       8.267  32.148  63.026  1.00  0.00     0.009 A 
HETATM   25  C   UNL     1       7.258  33.116  62.981  1.00  0.00     0.032 A 
HETATM   26  N   UNL     1       5.439  33.983  61.467  1.00  0.00    -0.277 N 
HETATM   27  H   UNL     1       5.022  34.722  62.021  1.00  0.00     0.189 HD
HETATM   28  N   UNL     1       4.935  33.743  60.242  1.00  0.00    -0.168 NA
ENDBRANCH   1  18
TORSDOF 5
ENDMDL
MODEL 6
REMARK VINA RESULT:      -8.7      4.544      9.226
REMARK  5 active torsions:
REMARK  status: ('A' for Active; 'I' for Inactive)
REMARK    1  A    between atoms: C_9  and  C_10 
REMARK       I    between atoms: C_10  and  N_11 
REMARK    2  A    between atoms: N_11  and  C_12 
REMARK    3  A    between atoms: C_12  and  C_13 
REMARK    4  A    between atoms: C_15  and  O_16 
REMARK    5  A    between atoms: O_16  and  C_17 
ROOT
HETATM    1  C   UNL     1       3.701  31.933  60.572  1.00  0.00     0.273 C 
HETATM    2  N   UNL     1       4.223  32.631  59.506  1.00  0.00    -0.351 N 
HETATM    3  O   UNL     1       2.865  31.042  60.453  1.00  0.00    -0.266 OA
HETATM    4  H   UNL     1       4.861  33.383  59.748  1.00  0.00     0.163 HD
ENDROOT
BRANCH   2   5
HETATM    5  C   UNL     1       3.821  32.406  58.146  1.00  0.00     0.161 C 
BRANCH   5   6
HETATM    6  C   UNL     1       4.375  31.117  57.609  1.00  0.00    -0.035 A 
HETATM    7  C   UNL     1       5.657  30.690  57.968  1.00  0.00     0.066 A 
HETATM    8  C   UNL     1       6.143  29.508  57.432  1.00  0.00     0.164 A 
HETATM    9  N   UNL     1       5.437  28.720  56.596  1.00  0.00    -0.237 NA
HETATM   10  C   UNL     1       4.190  29.132  56.285  1.00  0.00     0.120 A 
HETATM   11  C   UNL     1       3.622  30.305  56.758  1.00  0.00     0.028 A 
BRANCH   8  12
HETATM   12  O   UNL     1       7.424  29.155  57.803  1.00  0.00    -0.329 OA
BRANCH  12  13
HETATM   13  C   UNL     1       8.444  30.036  57.337  1.00  0.00     0.130 C 
HETATM   14  C   UNL     1       9.473  30.344  58.427  1.00  0.00     0.032 C 
HETATM   15  C   UNL     1      10.760  30.569  57.656  1.00  0.00     0.002 C 
HETATM   16  C   UNL     1      10.723  29.468  56.609  1.00  0.00     0.002 C 
HETATM   17  C   UNL     1       9.249  29.327  56.233  1.00  0.00     0.032 C 
ENDBRANCH  12  13
ENDBRANCH   8  12
ENDBRANCH   5   6
ENDBRANCH   2   5
BRANCH   1  18
HETATM   18  C   UNL     1       4.260  32.357  61.866  1.00  0.00     0.157 A 
HETATM   19  C   UNL     1       5.633  32.386  62.250  1.00  0.00     0.029 A 
HETATM   20  C   UNL     1       6.863  32.053  61.647  1.00  0.00     0.023 A 
HETATM   21  C   UNL     1       5.637  32.884  63.546  1.00  0.00     0.063 A 
HETATM   22  C   UNL     1       8.057  32.225  62.368  1.00  0.00    -0.061 A 
HETATM   23  C   UNL     1       9.379  31.877  61.745  1.00  0.00     0.048 C 
HETATM   24  C   UNL     1       8.015  32.740  63.671  1.00  0.00     0.009 A 
HETATM   25  C   UNL     1       6.806  33.078  64.287  1.00  0.00     0.032 A 
HETATM   26  N   UNL     1       4.323  33.104  63.852  1.00  0.00    -0.277 N 
HETATM   27  H   UNL     1       3.949  33.467  64.721  1.00  0.00     0.189 HD
HETATM   28  N   UNL     1       3.461  32.793  62.867  1.00  0.00    -0.168 NA
ENDBRANCH   1  18
TORSDOF 5
ENDMDL
MODEL 7
REMARK VINA RESULT:      -8.7      2.372      9.595
REMARK  5 active torsions:
REMARK  status: ('A' for Active; 'I' for Inactive)
REMARK    1  A    between atoms: C_9  and  C_10 
REMARK       I    between atoms: C_10  and  N_11 
REMARK    2  A    between atoms: N_11  and  C_12 
REMARK    3  A    between atoms: C_12  and  C_13 
REMARK    4  A    between atoms: C_15  and  O_16 
REMARK    5  A    between atoms: O_16  and  C_17 
ROOT
HETATM    1  C   UNL     1       7.064  29.901  56.795  1.00  0.00     0.273 C 
HETATM    2  N   UNL     1       6.159  29.287  55.960  1.00  0.00    -0.351 N 
HETATM    3  O   UNL     1       8.275  29.712  56.737  1.00  0.00    -0.266 OA
HETATM    4  H   UNL     1       5.182  29.484  56.153  1.00  0.00     0.163 HD
ENDROOT
BRANCH   2   5
HETATM    5  C   UNL     1       6.539  28.338  54.951  1.00  0.00     0.161 C 
BRANCH   5   6
HETATM    6  C   UNL     1       6.513  26.930  55.474  1.00  0.00    -0.035 A 
HETATM    7  C   UNL     1       7.382  25.965  54.958  1.00  0.00     0.066 A 
HETATM    8  C   UNL     1       7.311  24.670  55.449  1.00  0.00     0.164 A 
HETATM    9  N   UNL     1       6.463  24.285  56.424  1.00  0.00    -0.237 NA
HETATM   10  C   UNL     1       5.653  25.237  56.931  1.00  0.00     0.120 A 
HETATM   11  C   UNL     1       5.639  26.554  56.496  1.00  0.00     0.028 A 
BRANCH   8  12
HETATM   12  O   UNL     1       8.176  23.757  54.880  1.00  0.00    -0.329 OA
BRANCH  12  13
HETATM   13  C   UNL     1       7.567  22.535  54.468  1.00  0.00     0.130 C 
HETATM   14  C   UNL     1       7.944  22.166  53.032  1.00  0.00     0.032 C 
HETATM   15  C   UNL     1       7.918  20.649  53.029  1.00  0.00     0.002 C 
HETATM   16  C   UNL     1       8.581  20.298  54.350  1.00  0.00     0.002 C 
HETATM   17  C   UNL     1       8.128  21.385  55.324  1.00  0.00     0.032 C 
ENDBRANCH  12  13
ENDBRANCH   8  12
ENDBRANCH   5   6
ENDBRANCH   2   5
BRANCH   1  18
HETATM   18  C   UNL     1       6.428  30.818  57.756  1.00  0.00     0.157 A 
HETATM   19  C   UNL     1       6.997  31.356  58.948  1.00  0.00     0.029 A 
HETATM   20  C   UNL     1       8.227  31.243  59.627  1.00  0.00     0.023 A 
HETATM   21  C   UNL     1       6.012  32.177  59.481  1.00  0.00     0.063 A 
HETATM   22  C   UNL     1       8.426  31.954  60.823  1.00  0.00    -0.061 A 
HETATM   23  C   UNL     1       9.729  31.848  61.562  1.00  0.00     0.048 C 
HETATM   24  C   UNL     1       7.408  32.779  61.319  1.00  0.00     0.009 A 
HETATM   25  C   UNL     1       6.181  32.907  60.661  1.00  0.00     0.032 A 
HETATM   26  N   UNL     1       4.955  32.079  58.620  1.00  0.00    -0.277 N 
HETATM   27  H   UNL     1       4.059  32.546  58.695  1.00  0.00     0.189 HD
HETATM   28  N   UNL     1       5.164  31.264  57.570  1.00  0.00    -0.168 NA
ENDBRANCH   1  18
TORSDOF 5
ENDMDL
MODEL 8
REMARK VINA RESULT:      -8.6      2.030      9.364
REMARK  5 active torsions:
REMARK  status: ('A' for Active; 'I' for Inactive)
REMARK    1  A    between atoms: C_9  and  C_10 
REMARK       I    between atoms: C_10  and  N_11 
REMARK    2  A    between atoms: N_11  and  C_12 
REMARK    3  A    between atoms: C_12  and  C_13 
REMARK    4  A    between atoms: C_15  and  O_16 
REMARK    5  A    between atoms: O_16  and  C_17 
ROOT
HETATM    1  C   UNL     1       6.228  30.376  57.464  1.00  0.00     0.273 C 
HETATM    2  N   UNL     1       5.797  29.083  57.274  1.00  0.00    -0.351 N 
HETATM    3  O   UNL     1       5.648  31.357  57.009  1.00  0.00    -0.266 OA
HETATM    4  H   UNL     1       6.402  28.361  57.653  1.00  0.00     0.163 HD
ENDROOT
BRANCH   2   5
HETATM    5  C   UNL     1       4.637  28.747  56.497  1.00  0.00     0.161 C 
BRANCH   5   6
HETATM    6  C   UNL     1       4.987  27.883  55.319  1.00  0.00    -0.035 A 
HETATM    7  C   UNL     1       5.991  26.916  55.422  1.00  0.00     0.066 A 
HETATM    8  C   UNL     1       6.303  26.155  54.306  1.00  0.00     0.164 A 
HETATM    9  N   UNL     1       5.672  26.272  53.120  1.00  0.00    -0.237 NA
HETATM   10  C   UNL     1       4.684  27.189  53.049  1.00  0.00     0.120 A 
HETATM   11  C   UNL     1       4.310  28.007  54.104  1.00  0.00     0.028 A 
BRANCH   8  12
HETATM   12  O   UNL     1       7.322  25.237  54.462  1.00  0.00    -0.329 OA
BRANCH  12  13
HETATM   13  C   UNL     1       6.998  23.911  54.051  1.00  0.00     0.130 C 
HETATM   14  C   UNL     1       7.886  23.437  52.898  1.00  0.00     0.032 C 
HETATM   15  C   UNL     1       7.984  21.938  53.109  1.00  0.00     0.002 C 
HETATM   16  C   UNL     1       8.164  21.820  54.613  1.00  0.00     0.002 C 
HETATM   17  C   UNL     1       7.310  22.941  55.205  1.00  0.00     0.032 C 
ENDBRANCH  12  13
ENDBRANCH   8  12
ENDBRANCH   5   6
ENDBRANCH   2   5
BRANCH   1  18
HETATM   18  C   UNL     1       7.451  30.460  58.282  1.00  0.00     0.157 A 
HETATM   19  C   UNL     1       7.630  31.177  59.501  1.00  0.00     0.029 A 
HETATM   20  C   UNL     1       6.835  32.006  60.319  1.00  0.00     0.023 A 
HETATM   21  C   UNL     1       8.940  30.918  59.884  1.00  0.00     0.063 A 
HETATM   22  C   UNL     1       7.383  32.553  61.491  1.00  0.00    -0.061 A 
HETATM   23  C   UNL     1       6.554  33.438  62.377  1.00  0.00     0.048 C 
HETATM   24  C   UNL     1       8.707  32.257  61.845  1.00  0.00     0.009 A 
HETATM   25  C   UNL     1       9.512  31.436  61.049  1.00  0.00     0.032 A 
HETATM   26  N   UNL     1       9.447  30.106  58.909  1.00  0.00    -0.277 N 
HETATM   27  H   UNL     1      10.381  29.717  58.861  1.00  0.00     0.189 HD
HETATM   28  N   UNL     1       8.582  29.811  57.921  1.00  0.00    -0.168 NA
ENDBRANCH   1  18
TORSDOF 5
ENDMDL
MODEL 9
REMARK VINA RESULT:      -8.6      4.504      8.339
REMARK  5 active torsions:
REMARK  status: ('A' for Active; 'I' for Inactive)
REMARK    1  A    between atoms: C_9  and  C_10 
REMARK       I    between atoms: C_10  and  N_11 
REMARK    2  A    between atoms: N_11  and  C_12 
REMARK    3  A    between atoms: C_12  and  C_13 
REMARK    4  A    between atoms: C_15  and  O_16 
REMARK    5  A    between atoms: O_16  and  C_17 
ROOT
HETATM    1  C   UNL     1       4.770  28.888  55.622  1.00  0.00     0.273 C 
HETATM    2  N   UNL     1       4.411  27.601  55.953  1.00  0.00    -0.351 N 
HETATM    3  O   UNL     1       5.558  29.562  56.280  1.00  0.00    -0.266 OA
HETATM    4  H   UNL     1       3.705  27.178  55.357  1.00  0.00     0.163 HD
ENDROOT
BRANCH   2   5
HETATM    5  C   UNL     1       4.900  26.924  57.120  1.00  0.00     0.161 C 
BRANCH   5   6
HETATM    6  C   UNL     1       6.080  26.049  56.802  1.00  0.00    -0.035 A 
HETATM    7  C   UNL     1       5.977  25.042  55.837  1.00  0.00     0.066 A 
HETATM    8  C   UNL     1       7.079  24.239  55.589  1.00  0.00     0.164 A 
HETATM    9  N   UNL     1       8.268  24.388  56.208  1.00  0.00    -0.237 NA
HETATM   10  C   UNL     1       8.358  25.385  57.113  1.00  0.00     0.120 A 
HETATM   11  C   UNL     1       7.308  26.230  57.441  1.00  0.00     0.028 A 
BRANCH   8  12
HETATM   12  O   UNL     1       6.907  23.245  54.646  1.00  0.00    -0.329 OA
BRANCH  12  13
HETATM   13  C   UNL     1       8.035  22.392  54.467  1.00  0.00     0.130 C 
HETATM   14  C   UNL     1       7.846  21.043  55.165  1.00  0.00     0.032 C 
HETATM   15  C   UNL     1       8.635  20.076  54.302  1.00  0.00     0.002 C 
HETATM   16  C   UNL     1       8.286  20.521  52.892  1.00  0.00     0.002 C 
HETATM   17  C   UNL     1       8.162  22.041  52.974  1.00  0.00     0.032 C 
ENDBRANCH  12  13
ENDBRANCH   8  12
ENDBRANCH   5   6
ENDBRANCH   2   5
BRANCH   1  18
HETATM   18  C   UNL     1       4.122  29.367  54.389  1.00  0.00     0.157 A 
HETATM   19  C   UNL     1       4.180  28.774  53.093  1.00  0.00     0.029 A 
HETATM   20  C   UNL     1       4.805  27.650  52.517  1.00  0.00     0.023 A 
HETATM   21  C   UNL     1       3.389  29.584  52.288  1.00  0.00     0.063 A 
HETATM   22  C   UNL     1       4.621  27.378  51.150  1.00  0.00    -0.061 A 
HETATM   23  C   UNL     1       5.277  26.185  50.517  1.00  0.00     0.048 C 
HETATM   24  C   UNL     1       3.806  28.217  50.378  1.00  0.00     0.009 A 
HETATM   25  C   UNL     1       3.175  29.337  50.930  1.00  0.00     0.032 A 
HETATM   26  N   UNL     1       2.933  30.575  53.112  1.00  0.00    -0.277 N 
HETATM   27  H   UNL     1       2.326  31.347  52.863  1.00  0.00     0.189 HD
HETATM   28  N   UNL     1       3.358  30.483  54.386  1.00  0.00    -0.168 NA
ENDBRANCH   1  18
TORSDOF 5
ENDMDL
MODEL 10
REMARK VINA RESULT:      -8.6      4.651      8.434
REMARK  5 active torsions:
REMARK  status: ('A' for Active; 'I' for Inactive)
REMARK    1  A    between atoms: C_9  and  C_10 
REMARK       I    between atoms: C_10  and  N_11 
REMARK    2  A    between atoms: N_11  and  C_12 
REMARK    3  A    between atoms: C_12  and  C_13 
REMARK    4  A    between atoms: C_15  and  O_16 
REMARK    5  A    between atoms: O_16  and  C_17 
ROOT
HETATM    1  C   UNL     1       4.618  27.904  52.591  1.00  0.00     0.273 C 
HETATM    2  N   UNL     1       5.094  26.661  52.944  1.00  0.00    -0.351 N 
HETATM    3  O   UNL     1       3.911  28.591  53.322  1.00  0.00    -0.266 OA
HETATM    4  H   UNL     1       5.617  26.173  52.224  1.00  0.00     0.163 HD
ENDROOT
BRANCH   2   5
HETATM    5  C   UNL     1       4.787  26.029  54.196  1.00  0.00     0.161 C 
BRANCH   5   6
HETATM    6  C   UNL     1       6.018  25.829  55.034  1.00  0.00    -0.035 A 
HETATM    7  C   UNL     1       6.815  24.693  54.865  1.00  0.00     0.066 A 
HETATM    8  C   UNL     1       7.930  24.531  55.673  1.00  0.00     0.164 A 
HETATM    9  N   UNL     1       8.313  25.426  56.607  1.00  0.00    -0.237 NA
HETATM   10  C   UNL     1       7.549  26.531  56.734  1.00  0.00     0.120 A 
HETATM   11  C   UNL     1       6.409  26.776  55.984  1.00  0.00     0.028 A 
BRANCH   8  12
HETATM   12  O   UNL     1       8.660  23.376  55.477  1.00  0.00    -0.329 OA
BRANCH  12  13
HETATM   13  C   UNL     1       7.954  22.329  54.815  1.00  0.00     0.130 C 
HETATM   14  C   UNL     1       8.515  22.059  53.417  1.00  0.00     0.032 C 
HETATM   15  C   UNL     1       8.260  20.579  53.205  1.00  0.00     0.002 C 
HETATM   16  C   UNL     1       8.623  19.978  54.552  1.00  0.00     0.002 C 
HETATM   17  C   UNL     1       8.178  21.014  55.583  1.00  0.00     0.032 C 
ENDBRANCH  12  13
ENDBRANCH   8  12
ENDBRANCH   5   6
ENDBRANCH   2   5
BRANCH   1  18
HETATM   18  C   UNL     1       5.057  28.328  51.250  1.00  0.00     0.157 A 
HETATM   19  C   UNL     1       4.762  27.701  50.004  1.00  0.00     0.029 A 
HETATM   20  C   UNL     1       4.042  26.565  49.583  1.00  0.00     0.023 A 
HETATM   21  C   UNL     1       5.381  28.493  49.045  1.00  0.00     0.063 A 
HETATM   22  C   UNL     1       3.973  26.256  48.214  1.00  0.00    -0.061 A 
HETATM   23  C   UNL     1       3.211  25.050  47.744  1.00  0.00     0.048 C 
HETATM   24  C   UNL     1       4.604  27.088  47.280  1.00  0.00     0.009 A 
HETATM   25  C   UNL     1       5.322  28.222  47.676  1.00  0.00     0.032 A 
HETATM   26  N   UNL     1       5.992  29.496  49.745  1.00  0.00    -0.277 N 
HETATM   27  H   UNL     1       6.540  30.260  49.368  1.00  0.00     0.189 HD
HETATM   28  N   UNL     1       5.825  29.428  51.079  1.00  0.00    -0.168 NA
ENDBRANCH   1  18
TORSDOF 5
ENDMDL
