MODEL 1
REMARK VINA RESULT:      -8.3      0.000      0.000
REMARK  7 active torsions:
REMARK  status: ('A' for Active; 'I' for Inactive)
REMARK    1  A    between atoms: C_2  and  N_3 
REMARK    2  A    between atoms: C_8  and  C_9 
REMARK    3  A    between atoms: C_9  and  N_10 
REMARK       I    between atoms: N_10  and  C_11 
REMARK       I    between atoms: C_11  and  N_12 
REMARK    4  A    between atoms: N_12  and  C_13 
REMARK    5  A    between atoms: C_14  and  O_15 
REMARK    6  A    between atoms: C_18  and  O_19 
REMARK    7  A    between atoms: C_26  and  N_27 
ROOT
HETATM    1  C   UNL     1       5.223  26.062  55.886  1.00  0.00     0.118 C 
HETATM    2  C   UNL     1       4.988  25.156  57.093  1.00  0.00     0.037 C 
ENDROOT
BRANCH   1   3
HETATM    3  C   UNL     1       6.268  25.503  54.930  1.00  0.00     0.006 C 
HETATM    4  C   UNL     1       7.130  24.357  55.210  1.00  0.00    -0.031 C 
HETATM    5  C   UNL     1       8.080  24.172  54.223  1.00  0.00     0.017 C 
HETATM    6  C   UNL     1       7.054  23.403  56.375  1.00  0.00     0.068 C 
HETATM    7  C   UNL     1       9.122  23.107  54.210  1.00  0.00     0.281 C 
HETATM    8  S   UNL     1       7.968  25.310  52.982  1.00  0.00    -0.074 SA
HETATM    9  N   UNL     1       8.728  21.950  55.121  1.00  0.00    -0.067 N 
HETATM   10  H   UNL     1       9.584  21.405  55.282  1.00  0.00     0.280 HD
HETATM   11  C   UNL     1       8.302  22.503  56.484  1.00  0.00     0.240 C 
HETATM   12  C   UNL     1       6.568  26.006  53.664  1.00  0.00     0.089 C 
BRANCH   9  13
HETATM   13  C   UNL     1       7.704  21.008  54.525  1.00  0.00     0.231 C 
HETATM   14  C   UNL     1       8.013  20.707  53.070  1.00  0.00     0.034 C 
ENDBRANCH   9  13
BRANCH  12  15
HETATM   15  N   UNL     1       5.876  26.948  52.871  1.00  0.00    -0.327 N 
HETATM   16  C   UNL     1       4.652  26.781  52.237  1.00  0.00     0.097 A 
HETATM   17  C   UNL     1       4.289  27.947  51.601  1.00  0.00     0.019 A 
HETATM   18  C   UNL     1       5.297  28.891  51.866  1.00  0.00     0.019 A 
HETATM   19  C   UNL     1       6.239  28.268  52.653  1.00  0.00     0.097 A 
ENDBRANCH  12  15
ENDBRANCH   1   3
BRANCH   1  20
HETATM   20  N   UNL     1       5.639  27.394  56.308  1.00  0.00    -0.334 N 
HETATM   21  C   UNL     1       4.888  28.489  55.948  1.00  0.00     0.321 C 
HETATM   22  N   UNL     1       5.184  29.646  56.614  1.00  0.00    -0.306 N 
HETATM   23  O   UNL     1       3.942  28.436  55.171  1.00  0.00    -0.247 OA
HETATM   24  H   UNL     1       4.406  30.298  56.669  1.00  0.00     0.171 HD
HETATM   25  H   UNL     1       5.958  27.471  57.263  1.00  0.00     0.165 HD
BRANCH  22  26
HETATM   26  C   UNL     1       6.368  30.052  57.259  1.00  0.00     0.071 A 
HETATM   27  C   UNL     1       6.286  31.027  58.267  1.00  0.00     0.097 A 
HETATM   28  C   UNL     1       7.450  31.460  58.917  1.00  0.00     0.077 A 
HETATM   29  C   UNL     1       8.699  30.922  58.575  1.00  0.00     0.092 A 
HETATM   30  C   UNL     1       8.767  29.971  57.546  1.00  0.00     0.069 A 
HETATM   31 CL   UNL     1      10.268  29.272  57.039  1.00  0.00    -0.081 Cl
HETATM   32  C   UNL     1       7.613  29.550  56.886  1.00  0.00     0.059 A 
BRANCH  27  33
HETATM   33  O   UNL     1       5.025  31.494  58.544  1.00  0.00    -0.354 OA
HETATM   34  C   UNL     1       4.928  32.857  58.947  1.00  0.00     0.210 C 
ENDBRANCH  27  33
BRANCH  29  35
HETATM   35  O   UNL     1       9.885  31.268  59.165  1.00  0.00    -0.354 OA
HETATM   36  C   UNL     1       9.834  32.009  60.379  1.00  0.00     0.210 C 
ENDBRANCH  29  35
ENDBRANCH  22  26
ENDBRANCH   1  20
TORSDOF 7
ENDMDL
MODEL 2
REMARK VINA RESULT:      -8.0      3.147      6.419
REMARK  7 active torsions:
REMARK  status: ('A' for Active; 'I' for Inactive)
REMARK    1  A    between atoms: C_2  and  N_3 
REMARK    2  A    between atoms: C_8  and  C_9 
REMARK    3  A    between atoms: C_9  and  N_10 
REMARK       I    between atoms: N_10  and  C_11 
REMARK       I    between atoms: C_11  and  N_12 
REMARK    4  A    between atoms: N_12  and  C_13 
REMARK    5  A    between atoms: C_14  and  O_15 
REMARK    6  A    between atoms: C_18  and  O_19 
REMARK    7  A    between atoms: C_26  and  N_27 
ROOT
HETATM    1  C   UNL     1       8.482  28.891  57.406  1.00  0.00     0.118 C 
HETATM    2  C   UNL     1       9.376  29.403  56.278  1.00  0.00     0.037 C 
ENDROOT
BRANCH   1   3
HETATM    3  C   UNL     1       7.129  28.404  56.905  1.00  0.00     0.006 C 
HETATM    4  C   UNL     1       5.990  29.267  56.603  1.00  0.00    -0.031 C 
HETATM    5  C   UNL     1       4.853  28.536  56.312  1.00  0.00     0.017 C 
HETATM    6  C   UNL     1       5.957  30.773  56.543  1.00  0.00     0.068 C 
HETATM    7  C   UNL     1       3.517  29.107  55.977  1.00  0.00     0.281 C 
HETATM    8  S   UNL     1       5.106  26.870  56.382  1.00  0.00    -0.074 SA
HETATM    9  N   UNL     1       3.646  30.548  55.498  1.00  0.00    -0.067 N 
HETATM   10  H   UNL     1       2.705  30.956  55.555  1.00  0.00     0.280 HD
HETATM   11  C   UNL     1       4.521  31.331  56.481  1.00  0.00     0.240 C 
HETATM   12  C   UNL     1       6.773  27.074  56.679  1.00  0.00     0.089 C 
BRANCH   9  13
HETATM   13  C   UNL     1       4.108  30.689  54.063  1.00  0.00     0.231 C 
HETATM   14  C   UNL     1       3.467  29.640  53.173  1.00  0.00     0.034 C 
ENDBRANCH   9  13
BRANCH  12  15
HETATM   15  N   UNL     1       7.576  25.914  56.619  1.00  0.00    -0.327 N 
HETATM   16  C   UNL     1       8.333  25.358  57.643  1.00  0.00     0.097 A 
HETATM   17  C   UNL     1       8.936  24.201  57.204  1.00  0.00     0.019 A 
HETATM   18  C   UNL     1       8.526  23.999  55.875  1.00  0.00     0.019 A 
HETATM   19  C   UNL     1       7.687  25.041  55.548  1.00  0.00     0.097 A 
ENDBRANCH  12  15
ENDBRANCH   1   3
BRANCH   1  20
HETATM   20  N   UNL     1       8.266  29.927  58.410  1.00  0.00    -0.334 N 
HETATM   21  C   UNL     1       9.213  30.907  58.592  1.00  0.00     0.321 C 
HETATM   22  N   UNL     1       8.807  31.980  59.336  1.00  0.00    -0.306 N 
HETATM   23  O   UNL     1      10.310  30.901  58.047  1.00  0.00    -0.247 OA
HETATM   24  H   UNL     1       9.308  32.840  59.124  1.00  0.00     0.171 HD
HETATM   25  H   UNL     1       7.332  30.310  58.449  1.00  0.00     0.165 HD
BRANCH  22  26
HETATM   26  C   UNL     1       7.792  32.089  60.307  1.00  0.00     0.071 A 
HETATM   27  C   UNL     1       8.108  31.806  61.647  1.00  0.00     0.097 A 
HETATM   28  C   UNL     1       7.115  31.892  62.632  1.00  0.00     0.077 A 
HETATM   29  C   UNL     1       5.806  32.266  62.294  1.00  0.00     0.092 A 
HETATM   30  C   UNL     1       5.501  32.516  60.948  1.00  0.00     0.069 A 
HETATM   31 CL   UNL     1       3.907  32.959  60.434  1.00  0.00    -0.081 Cl
HETATM   32  C   UNL     1       6.483  32.416  59.963  1.00  0.00     0.059 A 
BRANCH  27  33
HETATM   33  O   UNL     1       9.413  31.455  61.890  1.00  0.00    -0.354 OA
HETATM   34  C   UNL     1       9.653  30.085  62.200  1.00  0.00     0.210 C 
ENDBRANCH  27  33
BRANCH  29  35
HETATM   35  O   UNL     1       4.777  32.395  63.188  1.00  0.00    -0.354 OA
HETATM   36  C   UNL     1       4.977  33.235  64.318  1.00  0.00     0.210 C 
ENDBRANCH  29  35
ENDBRANCH  22  26
ENDBRANCH   1  20
TORSDOF 7
ENDMDL
MODEL 3
REMARK VINA RESULT:      -8.0      2.667      5.678
REMARK  7 active torsions:
REMARK  status: ('A' for Active; 'I' for Inactive)
REMARK    1  A    between atoms: C_2  and  N_3 
REMARK    2  A    between atoms: C_8  and  C_9 
REMARK    3  A    between atoms: C_9  and  N_10 
REMARK       I    between atoms: N_10  and  C_11 
REMARK       I    between atoms: C_11  and  N_12 
REMARK    4  A    between atoms: N_12  and  C_13 
REMARK    5  A    between atoms: C_14  and  O_15 
REMARK    6  A    between atoms: C_18  and  O_19 
REMARK    7  A    between atoms: C_26  and  N_27 
ROOT
HETATM    1  C   UNL     1       7.106  27.484  54.563  1.00  0.00     0.118 C 
HETATM    2  C   UNL     1       8.373  28.238  54.166  1.00  0.00     0.037 C 
ENDROOT
BRANCH   1   3
HETATM    3  C   UNL     1       6.354  26.930  53.360  1.00  0.00     0.006 C 
HETATM    4  C   UNL     1       5.617  27.736  52.391  1.00  0.00    -0.031 C 
HETATM    5  C   UNL     1       4.914  26.952  51.495  1.00  0.00     0.017 C 
HETATM    6  C   UNL     1       5.590  29.238  52.263  1.00  0.00     0.068 C 
HETATM    7  C   UNL     1       4.048  27.457  50.392  1.00  0.00     0.281 C 
HETATM    8  S   UNL     1       5.113  25.299  51.772  1.00  0.00    -0.074 SA
HETATM    9  N   UNL     1       4.408  28.895  50.035  1.00  0.00    -0.067 N 
HETATM   10  H   UNL     1       3.619  29.262  49.489  1.00  0.00     0.280 HD
HETATM   11  C   UNL     1       4.479  29.732  51.315  1.00  0.00     0.240 C 
HETATM   12  C   UNL     1       6.244  25.582  53.016  1.00  0.00     0.089 C 
BRANCH   9  13
HETATM   13  C   UNL     1       5.647  29.033  49.176  1.00  0.00     0.231 C 
HETATM   14  C   UNL     1       5.456  28.370  47.823  1.00  0.00     0.034 C 
ENDBRANCH   9  13
BRANCH  12  15
HETATM   15  N   UNL     1       6.945  24.457  53.506  1.00  0.00    -0.327 N 
HETATM   16  C   UNL     1       6.806  23.852  54.748  1.00  0.00     0.097 A 
HETATM   17  C   UNL     1       7.631  22.752  54.829  1.00  0.00     0.019 A 
HETATM   18  C   UNL     1       8.288  22.638  53.592  1.00  0.00     0.019 A 
HETATM   19  C   UNL     1       7.842  23.672  52.799  1.00  0.00     0.097 A 
ENDBRANCH  12  15
ENDBRANCH   1   3
BRANCH   1  20
HETATM   20  N   UNL     1       6.205  28.343  55.324  1.00  0.00    -0.334 N 
HETATM   21  C   UNL     1       5.395  27.794  56.291  1.00  0.00     0.321 C 
HETATM   22  N   UNL     1       4.804  28.693  57.136  1.00  0.00    -0.306 N 
HETATM   23  O   UNL     1       5.281  26.589  56.476  1.00  0.00    -0.247 OA
HETATM   24  H   UNL     1       4.577  28.308  58.049  1.00  0.00     0.171 HD
HETATM   25  H   UNL     1       6.595  29.222  55.631  1.00  0.00     0.165 HD
BRANCH  22  26
HETATM   26  C   UNL     1       4.502  30.056  56.955  1.00  0.00     0.071 A 
HETATM   27  C   UNL     1       5.351  31.017  57.530  1.00  0.00     0.097 A 
HETATM   28  C   UNL     1       5.067  32.381  57.378  1.00  0.00     0.077 A 
HETATM   29  C   UNL     1       3.943  32.798  56.649  1.00  0.00     0.092 A 
HETATM   30  C   UNL     1       3.090  31.825  56.106  1.00  0.00     0.069 A 
HETATM   31 CL   UNL     1       1.667  32.247  55.214  1.00  0.00    -0.081 Cl
HETATM   32  C   UNL     1       3.361  30.467  56.270  1.00  0.00     0.059 A 
BRANCH  27  33
HETATM   33  O   UNL     1       6.430  30.522  58.219  1.00  0.00    -0.354 OA
HETATM   34  C   UNL     1       7.163  31.459  59.005  1.00  0.00     0.210 C 
ENDBRANCH  27  33
BRANCH  29  35
HETATM   35  O   UNL     1       3.596  34.104  56.432  1.00  0.00    -0.354 OA
HETATM   36  C   UNL     1       3.000  34.822  57.505  1.00  0.00     0.210 C 
ENDBRANCH  29  35
ENDBRANCH  22  26
ENDBRANCH   1  20
TORSDOF 7
ENDMDL
MODEL 4
REMARK VINA RESULT:      -7.7      3.605      7.966
REMARK  7 active torsions:
REMARK  status: ('A' for Active; 'I' for Inactive)
REMARK    1  A    between atoms: C_2  and  N_3 
REMARK    2  A    between atoms: C_8  and  C_9 
REMARK    3  A    between atoms: C_9  and  N_10 
REMARK       I    between atoms: N_10  and  C_11 
REMARK       I    between atoms: C_11  and  N_12 
REMARK    4  A    between atoms: N_12  and  C_13 
REMARK    5  A    between atoms: C_14  and  O_15 
REMARK    6  A    between atoms: C_18  and  O_19 
REMARK    7  A    between atoms: C_26  and  N_27 
ROOT
HETATM    1  C   UNL     1       4.473  32.073  56.702  1.00  0.00     0.118 C 
HETATM    2  C   UNL     1       4.981  32.961  55.568  1.00  0.00     0.037 C 
ENDROOT
BRANCH   1   3
HETATM    3  C   UNL     1       5.233  32.295  58.003  1.00  0.00     0.006 C 
HETATM    4  C   UNL     1       6.394  31.522  58.436  1.00  0.00    -0.031 C 
HETATM    5  C   UNL     1       6.781  31.848  59.722  1.00  0.00     0.017 C 
HETATM    6  C   UNL     1       7.178  30.504  57.646  1.00  0.00     0.068 C 
HETATM    7  C   UNL     1       7.916  31.235  60.469  1.00  0.00     0.281 C 
HETATM    8  S   UNL     1       5.812  33.042  60.417  1.00  0.00    -0.074 SA
HETATM    9  N   UNL     1       8.908  30.585  59.512  1.00  0.00    -0.067 N 
HETATM   10  H   UNL     1       9.492  29.960  60.082  1.00  0.00     0.280 HD
HETATM   11  C   UNL     1       8.149  29.692  58.526  1.00  0.00     0.240 C 
HETATM   12  C   UNL     1       4.927  33.249  58.975  1.00  0.00     0.089 C 
BRANCH   9  13
HETATM   13  C   UNL     1       9.839  31.559  58.822  1.00  0.00     0.231 C 
HETATM   14  C   UNL     1      10.638  30.875  57.727  1.00  0.00     0.034 C 
ENDBRANCH   9  13
BRANCH  12  15
HETATM   15  N   UNL     1       4.047  34.352  58.921  1.00  0.00    -0.327 N 
HETATM   16  C   UNL     1       2.889  34.545  59.664  1.00  0.00     0.097 A 
HETATM   17  C   UNL     1       2.335  35.768  59.360  1.00  0.00     0.019 A 
HETATM   18  C   UNL     1       3.182  36.383  58.421  1.00  0.00     0.019 A 
HETATM   19  C   UNL     1       4.223  35.513  58.185  1.00  0.00     0.097 A 
ENDBRANCH  12  15
ENDBRANCH   1   3
BRANCH   1  20
HETATM   20  N   UNL     1       4.565  30.663  56.340  1.00  0.00    -0.334 N 
HETATM   21  C   UNL     1       3.549  29.803  56.687  1.00  0.00     0.321 C 
HETATM   22  N   UNL     1       3.581  28.583  56.071  1.00  0.00    -0.306 N 
HETATM   23  O   UNL     1       2.609  30.118  57.407  1.00  0.00    -0.247 OA
HETATM   24  H   UNL     1       2.668  28.141  55.989  1.00  0.00     0.171 HD
HETATM   25  H   UNL     1       4.901  30.471  55.407  1.00  0.00     0.165 HD
BRANCH  22  26
HETATM   26  C   UNL     1       4.656  27.872  55.505  1.00  0.00     0.071 A 
HETATM   27  C   UNL     1       4.688  27.693  54.111  1.00  0.00     0.097 A 
HETATM   28  C   UNL     1       5.740  26.978  53.522  1.00  0.00     0.077 A 
HETATM   29  C   UNL     1       6.768  26.443  54.312  1.00  0.00     0.092 A 
HETATM   30  C   UNL     1       6.705  26.605  55.704  1.00  0.00     0.069 A 
HETATM   31 CL   UNL     1       7.916  25.956  56.759  1.00  0.00    -0.081 Cl
HETATM   32  C   UNL     1       5.652  27.302  56.295  1.00  0.00     0.059 A 
BRANCH  27  33
HETATM   33  O   UNL     1       3.647  28.255  53.415  1.00  0.00    -0.354 OA
HETATM   34  C   UNL     1       3.963  29.388  52.611  1.00  0.00     0.210 C 
ENDBRANCH  27  33
BRANCH  29  35
HETATM   35  O   UNL     1       7.842  25.747  53.826  1.00  0.00    -0.354 OA
HETATM   36  C   UNL     1       7.795  25.308  52.474  1.00  0.00     0.210 C 
ENDBRANCH  29  35
ENDBRANCH  22  26
ENDBRANCH   1  20
TORSDOF 7
ENDMDL
MODEL 5
REMARK VINA RESULT:      -7.6      4.446      8.765
REMARK  7 active torsions:
REMARK  status: ('A' for Active; 'I' for Inactive)
REMARK    1  A    between atoms: C_2  and  N_3 
REMARK    2  A    between atoms: C_8  and  C_9 
REMARK    3  A    between atoms: C_9  and  N_10 
REMARK       I    between atoms: N_10  and  C_11 
REMARK       I    between atoms: C_11  and  N_12 
REMARK    4  A    between atoms: N_12  and  C_13 
REMARK    5  A    between atoms: C_14  and  O_15 
REMARK    6  A    between atoms: C_18  and  O_19 
REMARK    7  A    between atoms: C_26  and  N_27 
ROOT
HETATM    1  C   UNL     1       4.327  33.134  58.630  1.00  0.00     0.118 C 
HETATM    2  C   UNL     1       4.624  34.396  57.823  1.00  0.00     0.037 C 
ENDROOT
BRANCH   1   3
HETATM    3  C   UNL     1       5.405  32.832  59.663  1.00  0.00     0.006 C 
HETATM    4  C   UNL     1       6.496  31.879  59.478  1.00  0.00    -0.031 C 
HETATM    5  C   UNL     1       7.231  31.706  60.635  1.00  0.00     0.017 C 
HETATM    6  C   UNL     1       6.889  31.152  58.217  1.00  0.00     0.068 C 
HETATM    7  C   UNL     1       8.399  30.793  60.794  1.00  0.00     0.281 C 
HETATM    8  S   UNL     1       6.666  32.643  61.919  1.00  0.00    -0.074 SA
HETATM    9  N   UNL     1       9.010  30.454  59.439  1.00  0.00    -0.067 N 
HETATM   10  H   UNL     1       9.606  29.630  59.590  1.00  0.00     0.280 HD
HETATM   11  C   UNL     1       7.901  30.018  58.478  1.00  0.00     0.240 C 
HETATM   12  C   UNL     1       5.502  33.403  60.932  1.00  0.00     0.089 C 
BRANCH   9  13
HETATM   13  C   UNL     1       9.891  31.542  58.862  1.00  0.00     0.231 C 
HETATM   14  C   UNL     1      10.655  31.045  57.648  1.00  0.00     0.034 C 
ENDBRANCH   9  13
BRANCH  12  15
HETATM   15  N   UNL     1       4.826  34.513  61.485  1.00  0.00    -0.327 N 
HETATM   16  C   UNL     1       3.467  34.626  61.752  1.00  0.00     0.097 A 
HETATM   17  C   UNL     1       3.204  35.845  62.336  1.00  0.00     0.019 A 
HETATM   18  C   UNL     1       4.434  36.511  62.473  1.00  0.00     0.019 A 
HETATM   19  C   UNL     1       5.406  35.675  61.968  1.00  0.00     0.097 A 
ENDBRANCH  12  15
ENDBRANCH   1   3
BRANCH   1  20
HETATM   20  N   UNL     1       4.180  31.977  57.754  1.00  0.00    -0.334 N 
HETATM   21  C   UNL     1       3.435  30.898  58.168  1.00  0.00     0.321 C 
HETATM   22  N   UNL     1       3.118  29.997  57.189  1.00  0.00    -0.306 N 
HETATM   23  O   UNL     1       2.980  30.782  59.299  1.00  0.00    -0.247 OA
HETATM   24  H   UNL     1       2.268  29.471  57.376  1.00  0.00     0.171 HD
HETATM   25  H   UNL     1       4.010  32.185  56.780  1.00  0.00     0.165 HD
BRANCH  22  26
HETATM   26  C   UNL     1       3.753  29.716  55.964  1.00  0.00     0.071 A 
HETATM   27  C   UNL     1       4.780  28.757  55.941  1.00  0.00     0.097 A 
HETATM   28  C   UNL     1       5.439  28.467  54.739  1.00  0.00     0.077 A 
HETATM   29  C   UNL     1       5.077  29.122  53.552  1.00  0.00     0.092 A 
HETATM   30  C   UNL     1       4.071  30.098  53.599  1.00  0.00     0.069 A 
HETATM   31 CL   UNL     1       3.577  30.976  52.189  1.00  0.00    -0.081 Cl
HETATM   32  C   UNL     1       3.424  30.400  54.797  1.00  0.00     0.059 A 
BRANCH  27  33
HETATM   33  O   UNL     1       5.064  28.160  57.144  1.00  0.00    -0.354 OA
HETATM   34  C   UNL     1       5.512  26.808  57.090  1.00  0.00     0.210 C 
ENDBRANCH  27  33
BRANCH  29  35
HETATM   35  O   UNL     1       5.650  28.893  52.330  1.00  0.00    -0.354 OA
HETATM   36  C   UNL     1       5.291  27.703  51.638  1.00  0.00     0.210 C 
ENDBRANCH  29  35
ENDBRANCH  22  26
ENDBRANCH   1  20
TORSDOF 7
ENDMDL
MODEL 6
REMARK VINA RESULT:      -7.6      4.019      8.368
REMARK  7 active torsions:
REMARK  status: ('A' for Active; 'I' for Inactive)
REMARK    1  A    between atoms: C_2  and  N_3 
REMARK    2  A    between atoms: C_8  and  C_9 
REMARK    3  A    between atoms: C_9  and  N_10 
REMARK       I    between atoms: N_10  and  C_11 
REMARK       I    between atoms: C_11  and  N_12 
REMARK    4  A    between atoms: N_12  and  C_13 
REMARK    5  A    between atoms: C_14  and  O_15 
REMARK    6  A    between atoms: C_18  and  O_19 
REMARK    7  A    between atoms: C_26  and  N_27 
ROOT
HETATM    1  C   UNL     1       5.593  25.782  53.766  1.00  0.00     0.118 C 
HETATM    2  C   UNL     1       4.361  25.006  54.226  1.00  0.00     0.037 C 
ENDROOT
BRANCH   1   3
HETATM    3  C   UNL     1       5.988  26.884  54.742  1.00  0.00     0.006 C 
HETATM    4  C   UNL     1       5.380  28.210  54.795  1.00  0.00    -0.031 C 
HETATM    5  C   UNL     1       6.040  29.045  55.677  1.00  0.00     0.017 C 
HETATM    6  C   UNL     1       4.159  28.702  54.059  1.00  0.00     0.068 C 
HETATM    7  C   UNL     1       5.688  30.467  55.955  1.00  0.00     0.281 C 
HETATM    8  S   UNL     1       7.346  28.296  56.438  1.00  0.00    -0.074 SA
HETATM    9  N   UNL     1       4.244  30.756  55.561  1.00  0.00    -0.067 N 
HETATM   10  H   UNL     1       4.158  31.779  55.514  1.00  0.00     0.280 HD
HETATM   11  C   UNL     1       3.993  30.232  54.144  1.00  0.00     0.240 C 
HETATM   12  C   UNL     1       6.990  26.797  55.708  1.00  0.00     0.089 C 
BRANCH   9  13
HETATM   13  C   UNL     1       3.215  30.267  56.557  1.00  0.00     0.231 C 
HETATM   14  C   UNL     1       3.517  30.775  57.955  1.00  0.00     0.034 C 
ENDBRANCH   9  13
BRANCH  12  15
HETATM   15  N   UNL     1       7.702  25.673  56.184  1.00  0.00    -0.327 N 
HETATM   16  C   UNL     1       8.010  24.512  55.486  1.00  0.00     0.097 A 
HETATM   17  C   UNL     1       8.757  23.672  56.281  1.00  0.00     0.019 A 
HETATM   18  C   UNL     1       8.956  24.332  57.506  1.00  0.00     0.019 A 
HETATM   19  C   UNL     1       8.322  25.552  57.417  1.00  0.00     0.097 A 
ENDBRANCH  12  15
ENDBRANCH   1   3
BRANCH   1  20
HETATM   20  N   UNL     1       5.373  26.376  52.452  1.00  0.00    -0.334 N 
HETATM   21  C   UNL     1       6.174  26.008  51.396  1.00  0.00     0.321 C 
HETATM   22  N   UNL     1       5.724  26.389  50.162  1.00  0.00    -0.306 N 
HETATM   23  O   UNL     1       7.164  25.296  51.511  1.00  0.00    -0.247 OA
HETATM   24  H   UNL     1       6.049  25.792  49.405  1.00  0.00     0.171 HD
HETATM   25  H   UNL     1       4.408  26.460  52.165  1.00  0.00     0.165 HD
BRANCH  22  26
HETATM   26  C   UNL     1       4.864  27.439  49.786  1.00  0.00     0.071 A 
HETATM   27  C   UNL     1       3.721  27.135  49.028  1.00  0.00     0.097 A 
HETATM   28  C   UNL     1       2.854  28.161  48.628  1.00  0.00     0.077 A 
HETATM   29  C   UNL     1       3.114  29.493  48.985  1.00  0.00     0.092 A 
HETATM   30  C   UNL     1       4.275  29.782  49.717  1.00  0.00     0.069 A 
HETATM   31 CL   UNL     1       4.690  31.399  50.179  1.00  0.00    -0.081 Cl
HETATM   32  C   UNL     1       5.148  28.765  50.102  1.00  0.00     0.059 A 
BRANCH  27  33
HETATM   33  O   UNL     1       3.539  25.807  48.730  1.00  0.00    -0.354 OA
HETATM   34  C   UNL     1       3.028  25.514  47.432  1.00  0.00     0.210 C 
ENDBRANCH  27  33
BRANCH  29  35
HETATM   35  O   UNL     1       2.318  30.557  48.656  1.00  0.00    -0.354 OA
HETATM   36  C   UNL     1       1.122  30.749  49.401  1.00  0.00     0.210 C 
ENDBRANCH  29  35
ENDBRANCH  22  26
ENDBRANCH   1  20
TORSDOF 7
ENDMDL
MODEL 7
REMARK VINA RESULT:      -7.6      6.833     10.005
REMARK  7 active torsions:
REMARK  status: ('A' for Active; 'I' for Inactive)
REMARK    1  A    between atoms: C_2  and  N_3 
REMARK    2  A    between atoms: C_8  and  C_9 
REMARK    3  A    between atoms: C_9  and  N_10 
REMARK       I    between atoms: N_10  and  C_11 
REMARK       I    between atoms: C_11  and  N_12 
REMARK    4  A    between atoms: N_12  and  C_13 
REMARK    5  A    between atoms: C_14  and  O_15 
REMARK    6  A    between atoms: C_18  and  O_19 
REMARK    7  A    between atoms: C_26  and  N_27 
ROOT
HETATM    1  C   UNL     1       4.378  32.994  59.572  1.00  0.00     0.118 C 
HETATM    2  C   UNL     1       3.118  32.454  60.246  1.00  0.00     0.037 C 
ENDROOT
BRANCH   1   3
HETATM    3  C   UNL     1       5.629  32.781  60.414  1.00  0.00     0.006 C 
HETATM    4  C   UNL     1       6.714  31.863  60.081  1.00  0.00    -0.031 C 
HETATM    5  C   UNL     1       7.643  31.770  61.101  1.00  0.00     0.017 C 
HETATM    6  C   UNL     1       6.920  31.095  58.800  1.00  0.00     0.068 C 
HETATM    7  C   UNL     1       8.861  30.910  61.090  1.00  0.00     0.281 C 
HETATM    8  S   UNL     1       7.262  32.742  62.426  1.00  0.00    -0.074 SA
HETATM    9  N   UNL     1       9.248  30.534  59.665  1.00  0.00    -0.067 N 
HETATM   10  H   UNL     1       9.897  29.741  59.742  1.00  0.00     0.280 HD
HETATM   11  C   UNL     1       8.011  30.013  58.926  1.00  0.00     0.240 C 
HETATM   12  C   UNL     1       5.914  33.411  61.625  1.00  0.00     0.089 C 
BRANCH   9  13
HETATM   13  C   UNL     1       9.967  31.628  58.904  1.00  0.00     0.231 C 
HETATM   14  C   UNL     1      10.628  31.083  57.651  1.00  0.00     0.034 C 
ENDBRANCH   9  13
BRANCH  12  15
HETATM   15  N   UNL     1       5.292  34.519  62.245  1.00  0.00    -0.327 N 
HETATM   16  C   UNL     1       4.211  34.500  63.116  1.00  0.00     0.097 A 
HETATM   17  C   UNL     1       3.931  35.779  63.542  1.00  0.00     0.019 A 
HETATM   18  C   UNL     1       4.880  36.629  62.949  1.00  0.00     0.019 A 
HETATM   19  C   UNL     1       5.707  35.839  62.181  1.00  0.00     0.097 A 
ENDBRANCH  12  15
ENDBRANCH   1   3
BRANCH   1  20
HETATM   20  N   UNL     1       4.244  34.418  59.283  1.00  0.00    -0.334 N 
HETATM   21  C   UNL     1       4.587  34.896  58.040  1.00  0.00     0.321 C 
HETATM   22  N   UNL     1       4.167  36.168  57.768  1.00  0.00    -0.306 N 
HETATM   23  O   UNL     1       5.130  34.216  57.178  1.00  0.00    -0.247 OA
HETATM   24  H   UNL     1       4.040  36.355  56.776  1.00  0.00     0.171 HD
HETATM   25  H   UNL     1       3.398  34.855  59.621  1.00  0.00     0.165 HD
BRANCH  22  26
HETATM   26  C   UNL     1       3.850  37.232  58.634  1.00  0.00     0.071 A 
HETATM   27  C   UNL     1       2.511  37.410  59.023  1.00  0.00     0.097 A 
HETATM   28  C   UNL     1       2.165  38.469  59.874  1.00  0.00     0.077 A 
HETATM   29  C   UNL     1       3.146  39.351  60.349  1.00  0.00     0.092 A 
HETATM   30  C   UNL     1       4.473  39.177  59.928  1.00  0.00     0.069 A 
HETATM   31 CL   UNL     1       5.746  40.233  60.442  1.00  0.00    -0.081 Cl
HETATM   32  C   UNL     1       4.819  38.135  59.068  1.00  0.00     0.059 A 
BRANCH  27  33
HETATM   33  O   UNL     1       1.619  36.497  58.518  1.00  0.00    -0.354 OA
HETATM   34  C   UNL     1       0.975  35.650  59.466  1.00  0.00     0.210 C 
ENDBRANCH  27  33
BRANCH  29  35
HETATM   35  O   UNL     1       2.907  40.400  61.195  1.00  0.00    -0.354 OA
HETATM   36  C   UNL     1       1.586  40.925  61.248  1.00  0.00     0.210 C 
ENDBRANCH  29  35
ENDBRANCH  22  26
ENDBRANCH   1  20
TORSDOF 7
ENDMDL
MODEL 8
REMARK VINA RESULT:      -7.5      7.317     12.628
REMARK  7 active torsions:
REMARK  status: ('A' for Active; 'I' for Inactive)
REMARK    1  A    between atoms: C_2  and  N_3 
REMARK    2  A    between atoms: C_8  and  C_9 
REMARK    3  A    between atoms: C_9  and  N_10 
REMARK       I    between atoms: N_10  and  C_11 
REMARK       I    between atoms: C_11  and  N_12 
REMARK    4  A    between atoms: N_12  and  C_13 
REMARK    5  A    between atoms: C_14  and  O_15 
REMARK    6  A    between atoms: C_18  and  O_19 
REMARK    7  A    between atoms: C_26  and  N_27 
ROOT
HETATM    1  C   UNL     1       3.400  35.283  61.872  1.00  0.00     0.118 C 
HETATM    2  C   UNL     1       2.514  35.610  60.671  1.00  0.00     0.037 C 
ENDROOT
BRANCH   1   3
HETATM    3  C   UNL     1       4.208  36.484  62.346  1.00  0.00     0.006 C 
HETATM    4  C   UNL     1       4.436  37.698  61.568  1.00  0.00    -0.031 C 
HETATM    5  C   UNL     1       5.327  38.551  62.192  1.00  0.00     0.017 C 
HETATM    6  C   UNL     1       3.799  38.095  60.261  1.00  0.00     0.068 C 
HETATM    7  C   UNL     1       5.789  39.865  61.660  1.00  0.00     0.281 C 
HETATM    8  S   UNL     1       5.888  37.952  63.666  1.00  0.00    -0.074 SA
HETATM    9  N   UNL     1       4.813  40.403  60.620  1.00  0.00    -0.067 N 
HETATM   10  H   UNL     1       5.314  41.139  60.108  1.00  0.00     0.280 HD
HETATM   11  C   UNL     1       4.499  39.301  59.603  1.00  0.00     0.240 C 
HETATM   12  C   UNL     1       4.860  36.595  63.575  1.00  0.00     0.089 C 
BRANCH   9  13
HETATM   13  C   UNL     1       3.566  41.034  61.202  1.00  0.00     0.231 C 
HETATM   14  C   UNL     1       3.910  42.005  62.317  1.00  0.00     0.034 C 
ENDBRANCH   9  13
BRANCH  12  15
HETATM   15  N   UNL     1       4.761  35.793  64.734  1.00  0.00    -0.327 N 
HETATM   16  C   UNL     1       3.785  35.853  65.721  1.00  0.00     0.097 A 
HETATM   17  C   UNL     1       4.009  34.874  66.662  1.00  0.00     0.019 A 
HETATM   18  C   UNL     1       5.140  34.151  66.245  1.00  0.00     0.019 A 
HETATM   19  C   UNL     1       5.568  34.715  65.063  1.00  0.00     0.097 A 
ENDBRANCH  12  15
ENDBRANCH   1   3
BRANCH   1  20
HETATM   20  N   UNL     1       4.318  34.193  61.560  1.00  0.00    -0.334 N 
HETATM   21  C   UNL     1       4.107  32.948  62.104  1.00  0.00     0.321 C 
HETATM   22  N   UNL     1       4.833  31.934  61.543  1.00  0.00    -0.306 N 
HETATM   23  O   UNL     1       3.255  32.714  62.954  1.00  0.00    -0.247 OA
HETATM   24  H   UNL     1       4.397  31.020  61.630  1.00  0.00     0.171 HD
HETATM   25  H   UNL     1       4.604  34.124  60.594  1.00  0.00     0.165 HD
BRANCH  22  26
HETATM   26  C   UNL     1       6.053  31.964  60.840  1.00  0.00     0.071 A 
HETATM   27  C   UNL     1       6.024  31.929  59.436  1.00  0.00     0.097 A 
HETATM   28  C   UNL     1       7.223  31.944  58.710  1.00  0.00     0.077 A 
HETATM   29  C   UNL     1       8.457  32.001  59.375  1.00  0.00     0.092 A 
HETATM   30  C   UNL     1       8.469  32.005  60.778  1.00  0.00     0.069 A 
HETATM   31 CL   UNL     1       9.946  32.047  61.683  1.00  0.00    -0.081 Cl
HETATM   32  C   UNL     1       7.278  31.974  61.503  1.00  0.00     0.059 A 
BRANCH  27  33
HETATM   33  O   UNL     1       4.774  31.882  58.868  1.00  0.00    -0.354 OA
HETATM   34  C   UNL     1       4.393  33.009  58.083  1.00  0.00     0.210 C 
ENDBRANCH  27  33
BRANCH  29  35
HETATM   35  O   UNL     1       9.676  32.037  58.753  1.00  0.00    -0.354 OA
HETATM   36  C   UNL     1      10.083  30.890  58.017  1.00  0.00     0.210 C 
ENDBRANCH  29  35
ENDBRANCH  22  26
ENDBRANCH   1  20
TORSDOF 7
ENDMDL
MODEL 9
REMARK VINA RESULT:      -7.5      2.413      4.508
REMARK  7 active torsions:
REMARK  status: ('A' for Active; 'I' for Inactive)
REMARK    1  A    between atoms: C_2  and  N_3 
REMARK    2  A    between atoms: C_8  and  C_9 
REMARK    3  A    between atoms: C_9  and  N_10 
REMARK       I    between atoms: N_10  and  C_11 
REMARK       I    between atoms: C_11  and  N_12 
REMARK    4  A    between atoms: N_12  and  C_13 
REMARK    5  A    between atoms: C_14  and  O_15 
REMARK    6  A    between atoms: C_18  and  O_19 
REMARK    7  A    between atoms: C_26  and  N_27 
ROOT
HETATM    1  C   UNL     1       6.935  28.606  54.455  1.00  0.00     0.118 C 
HETATM    2  C   UNL     1       6.392  28.243  53.074  1.00  0.00     0.037 C 
ENDROOT
BRANCH   1   3
HETATM    3  C   UNL     1       7.310  27.379  55.276  1.00  0.00     0.006 C 
HETATM    4  C   UNL     1       7.062  25.997  54.875  1.00  0.00    -0.031 C 
HETATM    5  C   UNL     1       7.373  25.103  55.883  1.00  0.00     0.017 C 
HETATM    6  C   UNL     1       6.574  25.491  53.541  1.00  0.00     0.068 C 
HETATM    7  C   UNL     1       7.222  23.622  55.807  1.00  0.00     0.281 C 
HETATM    8  S   UNL     1       7.951  25.859  57.276  1.00  0.00    -0.074 SA
HETATM    9  N   UNL     1       7.172  23.155  54.357  1.00  0.00    -0.067 N 
HETATM   10  H   UNL     1       6.795  22.199  54.375  1.00  0.00     0.280 HD
HETATM   11  C   UNL     1       6.159  24.007  53.586  1.00  0.00     0.240 C 
HETATM   12  C   UNL     1       7.924  27.392  56.529  1.00  0.00     0.089 C 
BRANCH   9  13
HETATM   13  C   UNL     1       8.522  23.090  53.675  1.00  0.00     0.231 C 
HETATM   14  C   UNL     1       9.049  21.667  53.634  1.00  0.00     0.034 C 
ENDBRANCH   9  13
BRANCH  12  15
HETATM   15  N   UNL     1       8.544  28.451  57.228  1.00  0.00    -0.327 N 
HETATM   16  C   UNL     1       9.775  29.034  56.956  1.00  0.00     0.097 A 
HETATM   17  C   UNL     1      10.008  30.069  57.834  1.00  0.00     0.019 A 
HETATM   18  C   UNL     1       8.879  30.167  58.665  1.00  0.00     0.019 A 
HETATM   19  C   UNL     1       7.996  29.187  58.267  1.00  0.00     0.097 A 
ENDBRANCH  12  15
ENDBRANCH   1   3
BRANCH   1  20
HETATM   20  N   UNL     1       5.963  29.393  55.206  1.00  0.00    -0.334 N 
HETATM   21  C   UNL     1       4.660  28.963  55.293  1.00  0.00     0.321 C 
HETATM   22  N   UNL     1       3.898  29.597  56.236  1.00  0.00    -0.306 N 
HETATM   23  O   UNL     1       4.216  28.010  54.665  1.00  0.00    -0.247 OA
HETATM   24  H   UNL     1       3.126  29.034  56.585  1.00  0.00     0.171 HD
HETATM   25  H   UNL     1       6.286  29.759  56.090  1.00  0.00     0.165 HD
BRANCH  22  26
HETATM   26  C   UNL     1       4.036  30.872  56.818  1.00  0.00     0.071 A 
HETATM   27  C   UNL     1       3.278  31.936  56.301  1.00  0.00     0.097 A 
HETATM   28  C   UNL     1       3.406  33.218  56.852  1.00  0.00     0.077 A 
HETATM   29  C   UNL     1       4.282  33.449  57.922  1.00  0.00     0.092 A 
HETATM   30  C   UNL     1       5.053  32.383  58.407  1.00  0.00     0.069 A 
HETATM   31 CL   UNL     1       6.179  32.581  59.708  1.00  0.00    -0.081 Cl
HETATM   32  C   UNL     1       4.940  31.109  57.851  1.00  0.00     0.059 A 
BRANCH  27  33
HETATM   33  O   UNL     1       2.442  31.619  55.259  1.00  0.00    -0.354 OA
HETATM   34  C   UNL     1       2.195  32.652  54.309  1.00  0.00     0.210 C 
ENDBRANCH  27  33
BRANCH  29  35
HETATM   35  O   UNL     1       4.460  34.660  58.536  1.00  0.00    -0.354 OA
HETATM   36  C   UNL     1       3.835  35.799  57.956  1.00  0.00     0.210 C 
ENDBRANCH  29  35
ENDBRANCH  22  26
ENDBRANCH   1  20
TORSDOF 7
ENDMDL
MODEL 10
REMARK VINA RESULT:      -7.4      4.312      8.316
REMARK  7 active torsions:
REMARK  status: ('A' for Active; 'I' for Inactive)
REMARK    1  A    between atoms: C_2  and  N_3 
REMARK    2  A    between atoms: C_8  and  C_9 
REMARK    3  A    between atoms: C_9  and  N_10 
REMARK       I    between atoms: N_10  and  C_11 
REMARK       I    between atoms: C_11  and  N_12 
REMARK    4  A    between atoms: N_12  and  C_13 
REMARK    5  A    between atoms: C_14  and  O_15 
REMARK    6  A    between atoms: C_18  and  O_19 
REMARK    7  A    between atoms: C_26  and  N_27 
ROOT
HETATM    1  C   UNL     1       2.703  30.048  50.695  1.00  0.00     0.118 C 
HETATM    2  C   UNL     1       1.445  29.202  50.506  1.00  0.00     0.037 C 
ENDROOT
BRANCH   1   3
HETATM    3  C   UNL     1       3.473  30.249  49.396  1.00  0.00     0.006 C 
HETATM    4  C   UNL     1       3.947  31.536  48.896  1.00  0.00    -0.031 C 
HETATM    5  C   UNL     1       4.481  31.430  47.625  1.00  0.00     0.017 C 
HETATM    6  C   UNL     1       3.946  32.865  49.607  1.00  0.00     0.068 C 
HETATM    7  C   UNL     1       5.038  32.555  46.821  1.00  0.00     0.281 C 
HETATM    8  S   UNL     1       4.438  29.855  47.023  1.00  0.00    -0.074 SA
HETATM    9  N   UNL     1       5.420  33.727  47.718  1.00  0.00    -0.067 N 
HETATM   10  H   UNL     1       5.525  34.541  47.100  1.00  0.00     0.280 HD
HETATM   11  C   UNL     1       4.255  34.043  48.661  1.00  0.00     0.240 C 
HETATM   12  C   UNL     1       3.821  29.246  48.491  1.00  0.00     0.089 C 
BRANCH   9  13
HETATM   13  C   UNL     1       6.734  33.550  48.450  1.00  0.00     0.231 C 
HETATM   14  C   UNL     1       7.850  34.324  47.772  1.00  0.00     0.034 C 
ENDBRANCH   9  13
BRANCH  12  15
HETATM   15  N   UNL     1       3.778  27.840  48.629  1.00  0.00    -0.327 N 
HETATM   16  C   UNL     1       2.971  26.949  47.933  1.00  0.00     0.097 A 
HETATM   17  C   UNL     1       3.260  25.658  48.317  1.00  0.00     0.019 A 
HETATM   18  C   UNL     1       4.300  25.730  49.259  1.00  0.00     0.019 A 
HETATM   19  C   UNL     1       4.611  27.063  49.418  1.00  0.00     0.097 A 
ENDBRANCH  12  15
ENDBRANCH   1   3
BRANCH   1  20
HETATM   20  N   UNL     1       3.593  29.445  51.680  1.00  0.00    -0.334 N 
HETATM   21  C   UNL     1       4.331  30.251  52.516  1.00  0.00     0.321 C 
HETATM   22  N   UNL     1       4.909  29.616  53.580  1.00  0.00    -0.306 N 
HETATM   23  O   UNL     1       4.391  31.470  52.404  1.00  0.00    -0.247 OA
HETATM   24  H   UNL     1       5.074  30.222  54.379  1.00  0.00     0.171 HD
HETATM   25  H   UNL     1       3.220  28.649  52.178  1.00  0.00     0.165 HD
BRANCH  22  26
HETATM   26  C   UNL     1       5.270  28.266  53.752  1.00  0.00     0.071 A 
HETATM   27  C   UNL     1       4.990  27.644  54.981  1.00  0.00     0.097 A 
HETATM   28  C   UNL     1       5.350  26.305  55.185  1.00  0.00     0.077 A 
HETATM   29  C   UNL     1       5.984  25.575  54.169  1.00  0.00     0.092 A 
HETATM   30  C   UNL     1       6.283  26.219  52.960  1.00  0.00     0.069 A 
HETATM   31 CL   UNL     1       7.087  25.404  51.660  1.00  0.00    -0.081 Cl
HETATM   32  C   UNL     1       5.940  27.556  52.759  1.00  0.00     0.059 A 
BRANCH  27  33
HETATM   33  O   UNL     1       4.362  28.430  55.915  1.00  0.00    -0.354 OA
HETATM   34  C   UNL     1       5.132  28.793  57.058  1.00  0.00     0.210 C 
ENDBRANCH  27  33
BRANCH  29  35
HETATM   35  O   UNL     1       6.357  24.261  54.270  1.00  0.00    -0.354 OA
HETATM   36  C   UNL     1       7.119  23.870  55.406  1.00  0.00     0.210 C 
ENDBRANCH  29  35
ENDBRANCH  22  26
ENDBRANCH   1  20
TORSDOF 7
ENDMDL
