MODEL 1
REMARK VINA RESULT:     -10.3      0.000      0.000
REMARK  6 active torsions:
REMARK  status: ('A' for Active; 'I' for Inactive)
REMARK    1  A    between atoms: N_6  and  C_7 
REMARK    2  A    between atoms: C_8  and  N_9 
REMARK    3  A    between atoms: C_10  and  N_11 
REMARK       I    between atoms: N_11  and  C_12 
REMARK    4  A    between atoms: C_12  and  C_13 
REMARK    5  A    between atoms: C_14  and  C_15 
REMARK    6  A    between atoms: C_17  and  C_18 
ROOT
HETATM    1  N   UNL     1       6.062  30.440  58.049  1.00  0.00    -0.300 N 
HETATM    2  C   UNL     1       7.074  29.897  57.273  1.00  0.00     0.247 C 
HETATM    3  O   UNL     1       8.163  30.418  57.073  1.00  0.00    -0.268 OA
HETATM    4  H   UNL     1       5.322  29.818  58.337  1.00  0.00     0.171 HD
ENDROOT
BRANCH   1   5
HETATM    5  C   UNL     1       5.789  31.773  58.244  1.00  0.00     0.179 C 
HETATM    6  N   UNL     1       6.135  32.315  59.448  1.00  0.00    -0.331 N 
HETATM    7  H   UNL     1       5.767  33.256  59.584  1.00  0.00     0.168 HD
HETATM    8  S   UNL     1       4.964  32.781  57.193  1.00  0.00    -0.040 SA
BRANCH   6   9
HETATM    9  C   UNL     1       7.055  31.947  60.455  1.00  0.00     0.061 A 
HETATM   10  C   UNL     1       6.831  32.500  61.752  1.00  0.00     0.057 A 
HETATM   11  C   UNL     1       7.811  32.279  62.732  1.00  0.00     0.031 A 
HETATM   12  C   UNL     1       8.946  31.509  62.465  1.00  0.00     0.002 A 
HETATM   13  C   UNL     1       9.139  30.965  61.201  1.00  0.00     0.002 A 
HETATM   14  C   UNL     1       8.206  31.195  60.193  1.00  0.00     0.032 A 
BRANCH  10  15
HETATM   15  N   UNL     1       5.661  33.245  62.006  1.00  0.00    -0.376 N 
HETATM   16  C   UNL     1       5.727  34.721  62.058  1.00  0.00     0.150 C 
HETATM   17  C   UNL     1       5.898  35.269  63.494  1.00  0.00     0.254 C 
HETATM   18  N   UNL     1       4.882  34.647  64.448  1.00  0.00    -0.072 N 
HETATM   19  C   UNL     1       5.036  35.161  65.848  1.00  0.00     0.269 C 
HETATM   20  H   UNL     1       3.948  34.923  64.115  1.00  0.00     0.279 HD
HETATM   21  C   UNL     1       4.946  33.122  64.396  1.00  0.00     0.254 C 
HETATM   22  C   UNL     1       4.710  32.625  62.957  1.00  0.00     0.150 C 
ENDBRANCH  10  15
ENDBRANCH   6   9
ENDBRANCH   1   5
BRANCH   2  23
HETATM   23  C   UNL     1       6.798  28.499  56.851  1.00  0.00     0.077 C 
HETATM   24  C   UNL     1       6.793  28.235  55.537  1.00  0.00     0.042 C 
BRANCH  24  25
HETATM   25  C   UNL     1       6.498  26.942  55.026  1.00  0.00     0.076 A 
HETATM   26  O   UNL     1       7.261  25.813  55.239  1.00  0.00    -0.310 OA
HETATM   27  C   UNL     1       6.637  24.747  54.652  1.00  0.00     0.086 A 
HETATM   28  C   UNL     1       5.496  25.179  54.013  1.00  0.00     0.041 A 
HETATM   29  C   UNL     1       5.402  26.567  54.262  1.00  0.00     0.040 A 
BRANCH  27  30
HETATM   30  C   UNL     1       7.260  23.437  54.826  1.00  0.00     0.001 A 
HETATM   31  C   UNL     1       7.588  22.948  56.097  1.00  0.00     0.038 A 
HETATM   32  C   UNL     1       8.140  21.674  56.247  1.00  0.00     0.036 A 
HETATM   33 CL   UNL     1       8.524  21.093  57.822  1.00  0.00    -0.084 Cl
HETATM   34  C   UNL     1       8.379  20.866  55.140  1.00  0.00     0.047 A 
HETATM   35  C   UNL     1       8.062  21.347  53.874  1.00  0.00     0.036 A 
HETATM   36 CL   UNL     1       8.352  20.364  52.491  1.00  0.00    -0.084 Cl
HETATM   37  C   UNL     1       7.507  22.618  53.712  1.00  0.00     0.038 A 
ENDBRANCH  27  30
ENDBRANCH  24  25
ENDBRANCH   2  23
TORSDOF 6
ENDMDL
MODEL 2
REMARK VINA RESULT:     -10.1      1.820      2.719
REMARK  6 active torsions:
REMARK  status: ('A' for Active; 'I' for Inactive)
REMARK    1  A    between atoms: N_6  and  C_7 
REMARK    2  A    between atoms: C_8  and  N_9 
REMARK    3  A    between atoms: C_10  and  N_11 
REMARK       I    between atoms: N_11  and  C_12 
REMARK    4  A    between atoms: C_12  and  C_13 
REMARK    5  A    between atoms: C_14  and  C_15 
REMARK    6  A    between atoms: C_17  and  C_18 
ROOT
HETATM    1  N   UNL     1       5.767  31.445  58.967  1.00  0.00    -0.300 N 
HETATM    2  C   UNL     1       6.855  30.939  58.274  1.00  0.00     0.247 C 
HETATM    3  O   UNL     1       7.930  31.510  58.139  1.00  0.00    -0.268 OA
HETATM    4  H   UNL     1       5.039  30.792  59.216  1.00  0.00     0.171 HD
ENDROOT
BRANCH   1   5
HETATM    5  C   UNL     1       5.417  32.766  59.112  1.00  0.00     0.179 C 
HETATM    6  N   UNL     1       5.585  33.328  60.345  1.00  0.00    -0.331 N 
HETATM    7  H   UNL     1       5.165  34.252  60.425  1.00  0.00     0.168 HD
HETATM    8  S   UNL     1       4.690  33.735  57.956  1.00  0.00    -0.040 SA
BRANCH   6   9
HETATM    9  C   UNL     1       6.385  33.003  61.463  1.00  0.00     0.061 A 
HETATM   10  C   UNL     1       6.081  33.684  62.680  1.00  0.00     0.057 A 
HETATM   11  C   UNL     1       6.952  33.500  63.765  1.00  0.00     0.031 A 
HETATM   12  C   UNL     1       8.054  32.646  63.676  1.00  0.00     0.002 A 
HETATM   13  C   UNL     1       8.326  31.979  62.488  1.00  0.00     0.002 A 
HETATM   14  C   UNL     1       7.504  32.167  61.379  1.00  0.00     0.032 A 
BRANCH  10  15
HETATM   15  N   UNL     1       4.943  34.514  62.756  1.00  0.00    -0.376 N 
HETATM   16  C   UNL     1       5.101  35.953  63.057  1.00  0.00     0.150 C 
HETATM   17  C   UNL     1       4.935  36.279  64.559  1.00  0.00     0.254 C 
HETATM   18  N   UNL     1       3.665  35.651  65.124  1.00  0.00    -0.072 N 
HETATM   19  C   UNL     1       3.489  35.950  66.583  1.00  0.00     0.269 C 
HETATM   20  H   UNL     1       2.871  36.071  64.621  1.00  0.00     0.279 HD
HETATM   21  C   UNL     1       3.627  34.149  64.847  1.00  0.00     0.254 C 
HETATM   22  C   UNL     1       3.735  33.881  63.335  1.00  0.00     0.150 C 
ENDBRANCH  10  15
ENDBRANCH   6   9
ENDBRANCH   1   5
BRANCH   2  23
HETATM   23  C   UNL     1       6.677  29.521  57.865  1.00  0.00     0.077 C 
HETATM   24  C   UNL     1       7.763  28.734  57.860  1.00  0.00     0.042 C 
BRANCH  24  25
HETATM   25  C   UNL     1       7.712  27.376  57.446  1.00  0.00     0.076 A 
HETATM   26  O   UNL     1       7.534  26.950  56.147  1.00  0.00    -0.310 OA
HETATM   27  C   UNL     1       7.605  25.584  56.122  1.00  0.00     0.086 A 
HETATM   28  C   UNL     1       7.777  25.111  57.403  1.00  0.00     0.041 A 
HETATM   29  C   UNL     1       7.858  26.246  58.239  1.00  0.00     0.040 A 
BRANCH  27  30
HETATM   30  C   UNL     1       7.507  24.941  54.814  1.00  0.00     0.001 A 
HETATM   31  C   UNL     1       6.936  25.601  53.717  1.00  0.00     0.038 A 
HETATM   32  C   UNL     1       6.894  24.987  52.463  1.00  0.00     0.036 A 
HETATM   33 CL   UNL     1       6.197  25.824  51.130  1.00  0.00    -0.084 Cl
HETATM   34  C   UNL     1       7.413  23.710  52.277  1.00  0.00     0.047 A 
HETATM   35  C   UNL     1       7.975  23.046  53.362  1.00  0.00     0.036 A 
HETATM   36 CL   UNL     1       8.621  21.465  53.152  1.00  0.00    -0.084 Cl
HETATM   37  C   UNL     1       8.026  23.651  54.619  1.00  0.00     0.038 A 
ENDBRANCH  27  30
ENDBRANCH  24  25
ENDBRANCH   2  23
TORSDOF 6
ENDMDL
MODEL 3
REMARK VINA RESULT:      -9.9      1.797      2.515
REMARK  6 active torsions:
REMARK  status: ('A' for Active; 'I' for Inactive)
REMARK    1  A    between atoms: N_6  and  C_7 
REMARK    2  A    between atoms: C_8  and  N_9 
REMARK    3  A    between atoms: C_10  and  N_11 
REMARK       I    between atoms: N_11  and  C_12 
REMARK    4  A    between atoms: C_12  and  C_13 
REMARK    5  A    between atoms: C_14  and  C_15 
REMARK    6  A    between atoms: C_17  and  C_18 
ROOT
HETATM    1  N   UNL     1       5.194  31.880  57.545  1.00  0.00    -0.300 N 
HETATM    2  C   UNL     1       4.268  30.863  57.718  1.00  0.00     0.247 C 
HETATM    3  O   UNL     1       3.066  31.027  57.879  1.00  0.00    -0.268 OA
HETATM    4  H   UNL     1       6.097  31.620  57.180  1.00  0.00     0.171 HD
ENDROOT
BRANCH   1   5
HETATM    5  C   UNL     1       5.139  33.150  58.069  1.00  0.00     0.179 C 
HETATM    6  N   UNL     1       5.635  33.331  59.329  1.00  0.00    -0.331 N 
HETATM    7  H   UNL     1       5.424  34.250  59.714  1.00  0.00     0.168 HD
HETATM    8  S   UNL     1       4.416  34.485  57.365  1.00  0.00    -0.040 SA
BRANCH   6   9
HETATM    9  C   UNL     1       6.547  32.608  60.130  1.00  0.00     0.061 A 
HETATM   10  C   UNL     1       6.498  32.864  61.534  1.00  0.00     0.057 A 
HETATM   11  C   UNL     1       7.491  32.282  62.337  1.00  0.00     0.031 A 
HETATM   12  C   UNL     1       8.467  31.444  61.793  1.00  0.00     0.002 A 
HETATM   13  C   UNL     1       8.490  31.194  60.427  1.00  0.00     0.002 A 
HETATM   14  C   UNL     1       7.542  31.785  59.593  1.00  0.00     0.032 A 
BRANCH  10  15
HETATM   15  N   UNL     1       5.482  33.686  62.064  1.00  0.00    -0.376 N 
HETATM   16  C   UNL     1       5.791  35.077  62.456  1.00  0.00     0.150 C 
HETATM   17  C   UNL     1       6.128  35.223  63.958  1.00  0.00     0.254 C 
HETATM   18  N   UNL     1       5.078  34.539  64.829  1.00  0.00    -0.072 N 
HETATM   19  C   UNL     1       5.390  34.663  66.290  1.00  0.00     0.269 C 
HETATM   20  H   UNL     1       4.185  35.022  64.659  1.00  0.00     0.279 HD
HETATM   21  C   UNL     1       4.887  33.082  64.414  1.00  0.00     0.254 C 
HETATM   22  C   UNL     1       4.496  32.996  62.927  1.00  0.00     0.150 C 
ENDBRANCH  10  15
ENDBRANCH   6   9
ENDBRANCH   1   5
BRANCH   2  23
HETATM   23  C   UNL     1       4.839  29.511  57.484  1.00  0.00     0.077 C 
HETATM   24  C   UNL     1       6.173  29.403  57.410  1.00  0.00     0.042 C 
BRANCH  24  25
HETATM   25  C   UNL     1       6.820  28.165  57.148  1.00  0.00     0.076 A 
HETATM   26  O   UNL     1       6.529  27.328  56.091  1.00  0.00    -0.310 OA
HETATM   27  C   UNL     1       7.394  26.270  56.122  1.00  0.00     0.086 A 
HETATM   28  C   UNL     1       8.215  26.381  57.222  1.00  0.00     0.041 A 
HETATM   29  C   UNL     1       7.860  27.589  57.863  1.00  0.00     0.040 A 
BRANCH  27  30
HETATM   30  C   UNL     1       7.290  25.297  55.037  1.00  0.00     0.001 A 
HETATM   31  C   UNL     1       8.177  24.216  54.938  1.00  0.00     0.038 A 
HETATM   32  C   UNL     1       8.032  23.271  53.920  1.00  0.00     0.036 A 
HETATM   33 CL   UNL     1       9.129  21.946  53.829  1.00  0.00    -0.084 Cl
HETATM   34  C   UNL     1       7.010  23.382  52.983  1.00  0.00     0.047 A 
HETATM   35  C   UNL     1       6.130  24.456  53.071  1.00  0.00     0.036 A 
HETATM   36 CL   UNL     1       4.860  24.613  51.920  1.00  0.00    -0.084 Cl
HETATM   37  C   UNL     1       6.263  25.406  54.086  1.00  0.00     0.038 A 
ENDBRANCH  27  30
ENDBRANCH  24  25
ENDBRANCH   2  23
TORSDOF 6
ENDMDL
MODEL 4
REMARK VINA RESULT:      -9.9      2.110      3.451
REMARK  6 active torsions:
REMARK  status: ('A' for Active; 'I' for Inactive)
REMARK    1  A    between atoms: N_6  and  C_7 
REMARK    2  A    between atoms: C_8  and  N_9 
REMARK    3  A    between atoms: C_10  and  N_11 
REMARK       I    between atoms: N_11  and  C_12 
REMARK    4  A    between atoms: C_12  and  C_13 
REMARK    5  A    between atoms: C_14  and  C_15 
REMARK    6  A    between atoms: C_17  and  C_18 
ROOT
HETATM    1  N   UNL     1       8.602  29.994  58.756  1.00  0.00    -0.300 N 
HETATM    2  C   UNL     1       9.385  29.703  57.650  1.00  0.00     0.247 C 
HETATM    3  O   UNL     1      10.400  30.306  57.328  1.00  0.00    -0.268 OA
HETATM    4  H   UNL     1       7.946  29.287  59.051  1.00  0.00     0.171 HD
ENDROOT
BRANCH   1   5
HETATM    5  C   UNL     1       8.405  31.226  59.332  1.00  0.00     0.179 C 
HETATM    6  N   UNL     1       7.266  31.901  58.995  1.00  0.00    -0.331 N 
HETATM    7  H   UNL     1       7.257  32.863  59.331  1.00  0.00     0.168 HD
HETATM    8  S   UNL     1       9.480  32.045  60.320  1.00  0.00    -0.040 SA
BRANCH   6   9
HETATM    9  C   UNL     1       6.017  31.502  58.469  1.00  0.00     0.061 A 
HETATM   10  C   UNL     1       4.859  32.020  59.126  1.00  0.00     0.057 A 
HETATM   11  C   UNL     1       3.609  31.523  58.727  1.00  0.00     0.031 A 
HETATM   12  C   UNL     1       3.493  30.588  57.696  1.00  0.00     0.002 A 
HETATM   13  C   UNL     1       4.630  30.107  57.058  1.00  0.00     0.002 A 
HETATM   14  C   UNL     1       5.891  30.550  57.452  1.00  0.00     0.032 A 
BRANCH  10  15
HETATM   15  N   UNL     1       5.000  32.988  60.141  1.00  0.00    -0.376 N 
HETATM   16  C   UNL     1       4.818  32.602  61.556  1.00  0.00     0.150 C 
HETATM   17  C   UNL     1       3.384  32.858  62.074  1.00  0.00     0.254 C 
HETATM   18  N   UNL     1       2.921  34.274  61.741  1.00  0.00    -0.072 N 
HETATM   19  C   UNL     1       1.529  34.541  62.230  1.00  0.00     0.269 C 
HETATM   20  H   UNL     1       3.554  34.921  62.231  1.00  0.00     0.279 HD
HETATM   21  C   UNL     1       3.059  34.557  60.247  1.00  0.00     0.254 C 
HETATM   22  C   UNL     1       4.515  34.344  59.794  1.00  0.00     0.150 C 
ENDBRANCH  10  15
ENDBRANCH   6   9
ENDBRANCH   1   5
BRANCH   2  23
HETATM   23  C   UNL     1       8.994  28.437  56.977  1.00  0.00     0.077 C 
HETATM   24  C   UNL     1       8.027  28.498  56.050  1.00  0.00     0.042 C 
BRANCH  24  25
HETATM   25  C   UNL     1       7.548  27.342  55.378  1.00  0.00     0.076 A 
HETATM   26  O   UNL     1       7.987  26.054  55.606  1.00  0.00    -0.310 OA
HETATM   27  C   UNL     1       7.255  25.200  54.827  1.00  0.00     0.086 A 
HETATM   28  C   UNL     1       6.377  25.924  54.053  1.00  0.00     0.041 A 
HETATM   29  C   UNL     1       6.553  27.278  54.412  1.00  0.00     0.040 A 
BRANCH  27  30
HETATM   30  C   UNL     1       7.527  23.772  54.976  1.00  0.00     0.001 A 
HETATM   31  C   UNL     1       7.579  22.920  53.864  1.00  0.00     0.038 A 
HETATM   32  C   UNL     1       7.886  21.566  54.022  1.00  0.00     0.036 A 
HETATM   33 CL   UNL     1       7.954  20.543  52.639  1.00  0.00    -0.084 Cl
HETATM   34  C   UNL     1       8.144  21.036  55.282  1.00  0.00     0.047 A 
HETATM   35  C   UNL     1       8.088  21.874  56.390  1.00  0.00     0.036 A 
HETATM   36 CL   UNL     1       8.402  21.237  57.958  1.00  0.00    -0.084 Cl
HETATM   37  C   UNL     1       7.785  23.229  56.245  1.00  0.00     0.038 A 
ENDBRANCH  27  30
ENDBRANCH  24  25
ENDBRANCH   2  23
TORSDOF 6
ENDMDL
MODEL 5
REMARK VINA RESULT:      -9.8      5.269     11.512
REMARK  6 active torsions:
REMARK  status: ('A' for Active; 'I' for Inactive)
REMARK    1  A    between atoms: N_6  and  C_7 
REMARK    2  A    between atoms: C_8  and  N_9 
REMARK    3  A    between atoms: C_10  and  N_11 
REMARK       I    between atoms: N_11  and  C_12 
REMARK    4  A    between atoms: C_12  and  C_13 
REMARK    5  A    between atoms: C_14  and  C_15 
REMARK    6  A    between atoms: C_17  and  C_18 
ROOT
HETATM    1  N   UNL     1       8.127  29.342  57.699  1.00  0.00    -0.300 N 
HETATM    2  C   UNL     1       7.082  30.250  57.632  1.00  0.00     0.247 C 
HETATM    3  O   UNL     1       6.325  30.380  56.679  1.00  0.00    -0.268 OA
HETATM    4  H   UNL     1       8.516  29.159  58.611  1.00  0.00     0.171 HD
ENDROOT
BRANCH   1   5
HETATM    5  C   UNL     1       8.886  28.871  56.655  1.00  0.00     0.179 C 
HETATM    6  N   UNL     1       8.638  27.599  56.221  1.00  0.00    -0.331 N 
HETATM    7  H   UNL     1       9.331  27.260  55.558  1.00  0.00     0.168 HD
HETATM    8  S   UNL     1      10.174  29.656  55.928  1.00  0.00    -0.040 SA
BRANCH   6   9
HETATM    9  C   UNL     1       7.526  26.733  56.329  1.00  0.00     0.061 A 
HETATM   10  C   UNL     1       6.805  26.476  55.123  1.00  0.00     0.057 A 
HETATM   11  C   UNL     1       5.610  25.747  55.223  1.00  0.00     0.031 A 
HETATM   12  C   UNL     1       5.161  25.252  56.449  1.00  0.00     0.002 A 
HETATM   13  C   UNL     1       5.884  25.499  57.609  1.00  0.00     0.002 A 
HETATM   14  C   UNL     1       7.056  26.250  57.554  1.00  0.00     0.032 A 
BRANCH  10  15
HETATM   15  N   UNL     1       7.297  26.958  53.893  1.00  0.00    -0.376 N 
HETATM   16  C   UNL     1       6.679  28.147  53.269  1.00  0.00     0.150 C 
HETATM   17  C   UNL     1       5.593  27.789  52.229  1.00  0.00     0.254 C 
HETATM   18  N   UNL     1       6.099  26.746  51.237  1.00  0.00    -0.072 N 
HETATM   19  C   UNL     1       5.057  26.381  50.223  1.00  0.00     0.269 C 
HETATM   20  H   UNL     1       6.890  27.170  50.733  1.00  0.00     0.279 HD
HETATM   21  C   UNL     1       6.637  25.516  51.964  1.00  0.00     0.254 C 
HETATM   22  C   UNL     1       7.755  25.918  52.943  1.00  0.00     0.150 C 
ENDBRANCH  10  15
ENDBRANCH   6   9
ENDBRANCH   1   5
BRANCH   2  23
HETATM   23  C   UNL     1       6.823  30.936  58.925  1.00  0.00     0.077 C 
HETATM   24  C   UNL     1       7.846  31.051  59.783  1.00  0.00     0.042 C 
BRANCH  24  25
HETATM   25  C   UNL     1       7.696  31.650  61.063  1.00  0.00     0.076 A 
HETATM   26  O   UNL     1       6.544  32.251  61.527  1.00  0.00    -0.310 OA
HETATM   27  C   UNL     1       6.752  32.653  62.818  1.00  0.00     0.086 A 
HETATM   28  C   UNL     1       8.047  32.365  63.185  1.00  0.00     0.041 A 
HETATM   29  C   UNL     1       8.640  31.718  62.079  1.00  0.00     0.040 A 
BRANCH  27  30
HETATM   30  C   UNL     1       5.617  33.257  63.513  1.00  0.00     0.001 A 
HETATM   31  C   UNL     1       4.456  33.631  62.824  1.00  0.00     0.038 A 
HETATM   32  C   UNL     1       3.363  34.164  63.512  1.00  0.00     0.036 A 
HETATM   33 CL   UNL     1       1.944  34.606  62.643  1.00  0.00    -0.084 Cl
HETATM   34  C   UNL     1       3.405  34.337  64.892  1.00  0.00     0.047 A 
HETATM   35  C   UNL     1       4.557  33.974  65.581  1.00  0.00     0.036 A 
HETATM   36 CL   UNL     1       4.631  34.182  67.289  1.00  0.00    -0.084 Cl
HETATM   37  C   UNL     1       5.654  33.438  64.904  1.00  0.00     0.038 A 
ENDBRANCH  27  30
ENDBRANCH  24  25
ENDBRANCH   2  23
TORSDOF 6
ENDMDL
MODEL 6
REMARK VINA RESULT:      -9.6      7.023      9.569
REMARK  6 active torsions:
REMARK  status: ('A' for Active; 'I' for Inactive)
REMARK    1  A    between atoms: N_6  and  C_7 
REMARK    2  A    between atoms: C_8  and  N_9 
REMARK    3  A    between atoms: C_10  and  N_11 
REMARK       I    between atoms: N_11  and  C_12 
REMARK    4  A    between atoms: C_12  and  C_13 
REMARK    5  A    between atoms: C_14  and  C_15 
REMARK    6  A    between atoms: C_17  and  C_18 
ROOT
HETATM    1  N   UNL     1       3.415  27.671  48.899  1.00  0.00    -0.300 N 
HETATM    2  C   UNL     1       4.240  26.585  48.653  1.00  0.00     0.247 C 
HETATM    3  O   UNL     1       4.564  26.186  47.542  1.00  0.00    -0.268 OA
HETATM    4  H   UNL     1       3.421  28.047  49.835  1.00  0.00     0.171 HD
ENDROOT
BRANCH   1   5
HETATM    5  C   UNL     1       2.383  28.125  48.113  1.00  0.00     0.179 C 
HETATM    6  N   UNL     1       2.299  29.471  47.902  1.00  0.00    -0.331 N 
HETATM    7  H   UNL     1       1.433  29.752  47.446  1.00  0.00     0.168 HD
HETATM    8  S   UNL     1       1.139  27.203  47.476  1.00  0.00    -0.040 SA
BRANCH   6   9
HETATM    9  C   UNL     1       3.231  30.530  47.987  1.00  0.00     0.061 A 
HETATM   10  C   UNL     1       3.143  31.361  49.145  1.00  0.00     0.057 A 
HETATM   11  C   UNL     1       3.948  32.509  49.185  1.00  0.00     0.031 A 
HETATM   12  C   UNL     1       4.838  32.810  48.151  1.00  0.00     0.002 A 
HETATM   13  C   UNL     1       4.921  31.982  47.039  1.00  0.00     0.002 A 
HETATM   14  C   UNL     1       4.110  30.853  46.947  1.00  0.00     0.032 A 
BRANCH  10  15
HETATM   15  N   UNL     1       2.261  31.018  50.191  1.00  0.00    -0.376 N 
HETATM   16  C   UNL     1       1.120  31.901  50.510  1.00  0.00     0.150 C 
HETATM   17  C   UNL     1       1.429  32.903  51.646  1.00  0.00     0.254 C 
HETATM   18  N   UNL     1       2.039  32.198  52.854  1.00  0.00    -0.072 N 
HETATM   19  C   UNL     1       2.352  33.154  53.966  1.00  0.00     0.269 C 
HETATM   20  H   UNL     1       1.334  31.533  53.203  1.00  0.00     0.279 HD
HETATM   21  C   UNL     1       3.264  31.381  52.449  1.00  0.00     0.254 C 
HETATM   22  C   UNL     1       2.891  30.360  51.359  1.00  0.00     0.150 C 
ENDBRANCH  10  15
ENDBRANCH   6   9
ENDBRANCH   1   5
BRANCH   2  23
HETATM   23  C   UNL     1       4.879  26.049  49.883  1.00  0.00     0.077 C 
HETATM   24  C   UNL     1       5.327  26.932  50.786  1.00  0.00     0.042 C 
BRANCH  24  25
HETATM   25  C   UNL     1       5.992  26.528  51.975  1.00  0.00     0.076 A 
HETATM   26  O   UNL     1       6.292  25.225  52.311  1.00  0.00    -0.310 OA
HETATM   27  C   UNL     1       6.989  25.227  53.488  1.00  0.00     0.086 A 
HETATM   28  C   UNL     1       7.102  26.518  53.951  1.00  0.00     0.041 A 
HETATM   29  C   UNL     1       6.483  27.343  52.986  1.00  0.00     0.040 A 
BRANCH  27  30
HETATM   30  C   UNL     1       7.460  23.934  53.981  1.00  0.00     0.001 A 
HETATM   31  C   UNL     1       7.677  23.711  55.347  1.00  0.00     0.038 A 
HETATM   32  C   UNL     1       8.083  22.454  55.804  1.00  0.00     0.036 A 
HETATM   33 CL   UNL     1       8.333  22.203  57.489  1.00  0.00    -0.084 Cl
HETATM   34  C   UNL     1       8.280  21.402  54.916  1.00  0.00     0.047 A 
HETATM   35  C   UNL     1       8.071  21.619  53.558  1.00  0.00     0.036 A 
HETATM   36 CL   UNL     1       8.313  20.330  52.442  1.00  0.00    -0.084 Cl
HETATM   37  C   UNL     1       7.664  22.869  53.090  1.00  0.00     0.038 A 
ENDBRANCH  27  30
ENDBRANCH  24  25
ENDBRANCH   2  23
TORSDOF 6
ENDMDL
MODEL 7
REMARK VINA RESULT:      -9.5      4.577      9.392
REMARK  6 active torsions:
REMARK  status: ('A' for Active; 'I' for Inactive)
REMARK    1  A    between atoms: N_6  and  C_7 
REMARK    2  A    between atoms: C_8  and  N_9 
REMARK    3  A    between atoms: C_10  and  N_11 
REMARK       I    between atoms: N_11  and  C_12 
REMARK    4  A    between atoms: C_12  and  C_13 
REMARK    5  A    between atoms: C_14  and  C_15 
REMARK    6  A    between atoms: C_17  and  C_18 
ROOT
HETATM    1  N   UNL     1       4.003  28.919  55.490  1.00  0.00    -0.300 N 
HETATM    2  C   UNL     1       3.571  30.230  55.616  1.00  0.00     0.247 C 
HETATM    3  O   UNL     1       2.971  30.859  54.755  1.00  0.00    -0.268 OA
HETATM    4  H   UNL     1       4.260  28.438  56.338  1.00  0.00     0.171 HD
ENDROOT
BRANCH   1   5
HETATM    5  C   UNL     1       4.393  28.282  54.336  1.00  0.00     0.179 C 
HETATM    6  N   UNL     1       5.458  27.431  54.419  1.00  0.00    -0.331 N 
HETATM    7  H   UNL     1       5.790  27.116  53.509  1.00  0.00     0.168 HD
HETATM    8  S   UNL     1       3.768  28.530  52.803  1.00  0.00    -0.040 SA
BRANCH   6   9
HETATM    9  C   UNL     1       6.066  26.732  55.486  1.00  0.00     0.061 A 
HETATM   10  C   UNL     1       7.175  27.376  56.115  1.00  0.00     0.057 A 
HETATM   11  C   UNL     1       7.895  26.644  57.071  1.00  0.00     0.031 A 
HETATM   12  C   UNL     1       7.519  25.348  57.430  1.00  0.00     0.002 A 
HETATM   13  C   UNL     1       6.428  24.744  56.819  1.00  0.00     0.002 A 
HETATM   14  C   UNL     1       5.711  25.426  55.838  1.00  0.00     0.032 A 
BRANCH  10  15
HETATM   15  N   UNL     1       7.515  28.698  55.760  1.00  0.00    -0.376 N 
HETATM   16  C   UNL     1       8.753  28.959  54.997  1.00  0.00     0.150 C 
HETATM   17  C   UNL     1       9.954  29.326  55.899  1.00  0.00     0.254 C 
HETATM   18  N   UNL     1       9.583  30.421  56.895  1.00  0.00    -0.072 N 
HETATM   19  C   UNL     1      10.732  30.787  57.785  1.00  0.00     0.269 C 
HETATM   20  H   UNL     1       9.334  31.256  56.346  1.00  0.00     0.279 HD
HETATM   21  C   UNL     1       8.346  30.030  57.702  1.00  0.00     0.254 C 
HETATM   22  C   UNL     1       7.165  29.732  56.760  1.00  0.00     0.150 C 
ENDBRANCH  10  15
ENDBRANCH   6   9
ENDBRANCH   1   5
BRANCH   2  23
HETATM   23  C   UNL     1       3.725  30.763  56.996  1.00  0.00     0.077 C 
HETATM   24  C   UNL     1       4.169  32.020  57.131  1.00  0.00     0.042 C 
BRANCH  24  25
HETATM   25  C   UNL     1       4.392  32.612  58.403  1.00  0.00     0.076 A 
HETATM   26  O   UNL     1       5.353  32.209  59.307  1.00  0.00    -0.310 OA
HETATM   27  C   UNL     1       5.316  33.049  60.386  1.00  0.00     0.086 A 
HETATM   28  C   UNL     1       4.305  33.967  60.218  1.00  0.00     0.041 A 
HETATM   29  C   UNL     1       3.729  33.699  58.956  1.00  0.00     0.040 A 
BRANCH  27  30
HETATM   30  C   UNL     1       6.312  32.826  61.432  1.00  0.00     0.001 A 
HETATM   31  C   UNL     1       6.229  33.481  62.668  1.00  0.00     0.038 A 
HETATM   32  C   UNL     1       7.163  33.219  63.673  1.00  0.00     0.036 A 
HETATM   33 CL   UNL     1       7.034  34.030  65.187  1.00  0.00    -0.084 Cl
HETATM   34  C   UNL     1       8.194  32.307  63.469  1.00  0.00     0.047 A 
HETATM   35  C   UNL     1       8.285  31.658  62.243  1.00  0.00     0.036 A 
HETATM   36 CL   UNL     1       9.554  30.527  61.969  1.00  0.00    -0.084 Cl
HETATM   37  C   UNL     1       7.356  31.909  61.232  1.00  0.00     0.038 A 
ENDBRANCH  27  30
ENDBRANCH  24  25
ENDBRANCH   2  23
TORSDOF 6
ENDMDL
MODEL 8
REMARK VINA RESULT:      -9.5      1.768      2.552
REMARK  6 active torsions:
REMARK  status: ('A' for Active; 'I' for Inactive)
REMARK    1  A    between atoms: N_6  and  C_7 
REMARK    2  A    between atoms: C_8  and  N_9 
REMARK    3  A    between atoms: C_10  and  N_11 
REMARK       I    between atoms: N_11  and  C_12 
REMARK    4  A    between atoms: C_12  and  C_13 
REMARK    5  A    between atoms: C_14  and  C_15 
REMARK    6  A    between atoms: C_17  and  C_18 
ROOT
HETATM    1  N   UNL     1       4.647  31.912  56.770  1.00  0.00    -0.300 N 
HETATM    2  C   UNL     1       4.006  30.777  57.239  1.00  0.00     0.247 C 
HETATM    3  O   UNL     1       3.014  30.775  57.957  1.00  0.00    -0.268 OA
HETATM    4  H   UNL     1       5.289  31.791  56.002  1.00  0.00     0.171 HD
ENDROOT
BRANCH   1   5
HETATM    5  C   UNL     1       4.735  33.133  57.395  1.00  0.00     0.179 C 
HETATM    6  N   UNL     1       5.357  33.173  58.611  1.00  0.00    -0.331 N 
HETATM    7  H   UNL     1       5.251  34.068  59.086  1.00  0.00     0.168 HD
HETATM    8  S   UNL     1       4.052  34.569  56.873  1.00  0.00    -0.040 SA
BRANCH   6   9
HETATM    9  C   UNL     1       6.283  32.325  59.260  1.00  0.00     0.061 A 
HETATM   10  C   UNL     1       6.320  32.401  60.685  1.00  0.00     0.057 A 
HETATM   11  C   UNL     1       7.331  31.689  61.348  1.00  0.00     0.031 A 
HETATM   12  C   UNL     1       8.244  30.898  60.646  1.00  0.00     0.002 A 
HETATM   13  C   UNL     1       8.182  30.824  59.260  1.00  0.00     0.002 A 
HETATM   14  C   UNL     1       7.215  31.546  58.565  1.00  0.00     0.032 A 
BRANCH  10  15
HETATM   15  N   UNL     1       5.367  33.179  61.373  1.00  0.00    -0.376 N 
HETATM   16  C   UNL     1       5.718  34.542  61.825  1.00  0.00     0.150 C 
HETATM   17  C   UNL     1       6.211  34.586  63.290  1.00  0.00     0.254 C 
HETATM   18  N   UNL     1       5.256  33.840  64.217  1.00  0.00    -0.072 N 
HETATM   19  C   UNL     1       5.720  33.866  65.642  1.00  0.00     0.269 C 
HETATM   20  H   UNL     1       4.351  34.328  64.174  1.00  0.00     0.279 HD
HETATM   21  C   UNL     1       5.020  32.413  63.725  1.00  0.00     0.254 C 
HETATM   22  C   UNL     1       4.475  32.427  62.285  1.00  0.00     0.150 C 
ENDBRANCH  10  15
ENDBRANCH   6   9
ENDBRANCH   1   5
BRANCH   2  23
HETATM   23  C   UNL     1       4.514  29.524  56.622  1.00  0.00     0.077 C 
HETATM   24  C   UNL     1       4.235  29.311  55.328  1.00  0.00     0.042 C 
BRANCH  24  25
HETATM   25  C   UNL     1       4.636  28.127  54.652  1.00  0.00     0.076 A 
HETATM   26  O   UNL     1       5.570  27.226  55.118  1.00  0.00    -0.310 OA
HETATM   27  C   UNL     1       5.647  26.183  54.237  1.00  0.00     0.086 A 
HETATM   28  C   UNL     1       4.808  26.419  53.172  1.00  0.00     0.041 A 
HETATM   29  C   UNL     1       4.158  27.644  53.442  1.00  0.00     0.040 A 
BRANCH  27  30
HETATM   30  C   UNL     1       6.541  25.082  54.592  1.00  0.00     0.001 A 
HETATM   31  C   UNL     1       6.732  23.993  53.732  1.00  0.00     0.038 A 
HETATM   32  C   UNL     1       7.627  22.973  54.066  1.00  0.00     0.036 A 
HETATM   33 CL   UNL     1       7.851  21.650  52.987  1.00  0.00    -0.084 Cl
HETATM   34  C   UNL     1       8.343  23.017  55.258  1.00  0.00     0.047 A 
HETATM   35  C   UNL     1       8.154  24.092  56.119  1.00  0.00     0.036 A 
HETATM   36 CL   UNL     1       9.030  24.163  57.599  1.00  0.00    -0.084 Cl
HETATM   37  C   UNL     1       7.265  25.118  55.794  1.00  0.00     0.038 A 
ENDBRANCH  27  30
ENDBRANCH  24  25
ENDBRANCH   2  23
TORSDOF 6
ENDMDL
MODEL 9
REMARK VINA RESULT:      -9.4      5.588     11.100
REMARK  6 active torsions:
REMARK  status: ('A' for Active; 'I' for Inactive)
REMARK    1  A    between atoms: N_6  and  C_7 
REMARK    2  A    between atoms: C_8  and  N_9 
REMARK    3  A    between atoms: C_10  and  N_11 
REMARK       I    between atoms: N_11  and  C_12 
REMARK    4  A    between atoms: C_12  and  C_13 
REMARK    5  A    between atoms: C_14  and  C_15 
REMARK    6  A    between atoms: C_17  and  C_18 
ROOT
HETATM    1  N   UNL     1       7.547  27.183  54.527  1.00  0.00    -0.300 N 
HETATM    2  C   UNL     1       7.515  26.770  55.849  1.00  0.00     0.247 C 
HETATM    3  O   UNL     1       7.550  25.605  56.223  1.00  0.00    -0.268 OA
HETATM    4  H   UNL     1       7.761  28.154  54.356  1.00  0.00     0.171 HD
ENDROOT
BRANCH   1   5
HETATM    5  C   UNL     1       7.051  26.511  53.435  1.00  0.00     0.179 C 
HETATM    6  N   UNL     1       5.783  26.819  53.032  1.00  0.00    -0.331 N 
HETATM    7  H   UNL     1       5.423  26.182  52.323  1.00  0.00     0.168 HD
HETATM    8  S   UNL     1       7.801  25.261  52.612  1.00  0.00    -0.040 SA
BRANCH   6   9
HETATM    9  C   UNL     1       4.944  27.939  53.225  1.00  0.00     0.061 A 
HETATM   10  C   UNL     1       4.743  28.783  52.090  1.00  0.00     0.057 A 
HETATM   11  C   UNL     1       4.043  29.983  52.288  1.00  0.00     0.031 A 
HETATM   12  C   UNL     1       3.523  30.324  53.539  1.00  0.00     0.002 A 
HETATM   13  C   UNL     1       3.716  29.484  54.628  1.00  0.00     0.002 A 
HETATM   14  C   UNL     1       4.437  28.301  54.477  1.00  0.00     0.032 A 
BRANCH  10  15
HETATM   15  N   UNL     1       5.248  28.400  50.831  1.00  0.00    -0.376 N 
HETATM   16  C   UNL     1       5.824  29.420  49.929  1.00  0.00     0.150 C 
HETATM   17  C   UNL     1       4.805  29.963  48.900  1.00  0.00     0.254 C 
HETATM   18  N   UNL     1       4.081  28.825  48.187  1.00  0.00    -0.072 N 
HETATM   19  C   UNL     1       3.083  29.331  47.189  1.00  0.00     0.269 C 
HETATM   20  H   UNL     1       4.793  28.290  47.672  1.00  0.00     0.279 HD
HETATM   21  C   UNL     1       3.440  27.870  49.191  1.00  0.00     0.254 C 
HETATM   22  C   UNL     1       4.505  27.313  50.154  1.00  0.00     0.150 C 
ENDBRANCH  10  15
ENDBRANCH   6   9
ENDBRANCH   1   5
BRANCH   2  23
HETATM   23  C   UNL     1       7.641  27.894  56.814  1.00  0.00     0.077 C 
HETATM   24  C   UNL     1       8.650  28.758  56.633  1.00  0.00     0.042 C 
BRANCH  24  25
HETATM   25  C   UNL     1       8.886  29.842  57.521  1.00  0.00     0.076 A 
HETATM   26  O   UNL     1       7.943  30.401  58.358  1.00  0.00    -0.310 OA
HETATM   27  C   UNL     1       8.547  31.372  59.108  1.00  0.00     0.086 A 
HETATM   28  C   UNL     1       9.866  31.488  58.732  1.00  0.00     0.041 A 
HETATM   29  C   UNL     1      10.084  30.510  57.737  1.00  0.00     0.040 A 
BRANCH  27  30
HETATM   30  C   UNL     1       7.722  32.042  60.111  1.00  0.00     0.001 A 
HETATM   31  C   UNL     1       6.430  32.492  59.810  1.00  0.00     0.038 A 
HETATM   32  C   UNL     1       5.638  33.088  60.795  1.00  0.00     0.036 A 
HETATM   33 CL   UNL     1       4.050  33.623  60.401  1.00  0.00    -0.084 Cl
HETATM   34  C   UNL     1       6.115  33.248  62.092  1.00  0.00     0.047 A 
HETATM   35  C   UNL     1       7.399  32.809  62.397  1.00  0.00     0.036 A 
HETATM   36 CL   UNL     1       8.009  33.000  63.995  1.00  0.00    -0.084 Cl
HETATM   37  C   UNL     1       8.198  32.210  61.421  1.00  0.00     0.038 A 
ENDBRANCH  27  30
ENDBRANCH  24  25
ENDBRANCH   2  23
TORSDOF 6
ENDMDL
MODEL 10
REMARK VINA RESULT:      -9.3      4.503     10.406
REMARK  6 active torsions:
REMARK  status: ('A' for Active; 'I' for Inactive)
REMARK    1  A    between atoms: N_6  and  C_7 
REMARK    2  A    between atoms: C_8  and  N_9 
REMARK    3  A    between atoms: C_10  and  N_11 
REMARK       I    between atoms: N_11  and  C_12 
REMARK    4  A    between atoms: C_12  and  C_13 
REMARK    5  A    between atoms: C_14  and  C_15 
REMARK    6  A    between atoms: C_17  and  C_18 
ROOT
HETATM    1  N   UNL     1       3.951  29.283  55.158  1.00  0.00    -0.300 N 
HETATM    2  C   UNL     1       3.520  30.597  55.244  1.00  0.00     0.247 C 
HETATM    3  O   UNL     1       2.980  31.221  54.340  1.00  0.00    -0.268 OA
HETATM    4  H   UNL     1       4.150  28.808  56.025  1.00  0.00     0.171 HD
ENDROOT
BRANCH   1   5
HETATM    5  C   UNL     1       4.411  28.632  54.038  1.00  0.00     0.179 C 
HETATM    6  N   UNL     1       5.741  28.328  53.991  1.00  0.00    -0.331 N 
HETATM    7  H   UNL     1       6.043  27.991  53.078  1.00  0.00     0.168 HD
HETATM    8  S   UNL     1       3.526  28.274  52.663  1.00  0.00    -0.040 SA
BRANCH   6   9
HETATM    9  C   UNL     1       6.743  28.180  54.977  1.00  0.00     0.061 A 
HETATM   10  C   UNL     1       7.032  26.845  55.390  1.00  0.00     0.057 A 
HETATM   11  C   UNL     1       7.907  26.674  56.474  1.00  0.00     0.031 A 
HETATM   12  C   UNL     1       8.510  27.768  57.101  1.00  0.00     0.002 A 
HETATM   13  C   UNL     1       8.229  29.059  56.674  1.00  0.00     0.002 A 
HETATM   14  C   UNL     1       7.336  29.269  55.625  1.00  0.00     0.032 A 
BRANCH  10  15
HETATM   15  N   UNL     1       6.437  25.756  54.720  1.00  0.00    -0.376 N 
HETATM   16  C   UNL     1       6.064  24.542  55.476  1.00  0.00     0.150 C 
HETATM   17  C   UNL     1       7.153  23.445  55.436  1.00  0.00     0.254 C 
HETATM   18  N   UNL     1       7.619  23.182  54.007  1.00  0.00    -0.072 N 
HETATM   19  C   UNL     1       8.681  22.124  53.947  1.00  0.00     0.269 C 
HETATM   20  H   UNL     1       6.804  22.835  53.483  1.00  0.00     0.279 HD
HETATM   21  C   UNL     1       8.071  24.475  53.332  1.00  0.00     0.254 C 
HETATM   22  C   UNL     1       6.933  25.512  53.346  1.00  0.00     0.150 C 
ENDBRANCH  10  15
ENDBRANCH   6   9
ENDBRANCH   1   5
BRANCH   2  23
HETATM   23  C   UNL     1       3.587  31.142  56.625  1.00  0.00     0.077 C 
HETATM   24  C   UNL     1       4.464  32.128  56.862  1.00  0.00     0.042 C 
BRANCH  24  25
HETATM   25  C   UNL     1       4.639  32.691  58.155  1.00  0.00     0.076 A 
HETATM   26  O   UNL     1       5.543  32.247  59.097  1.00  0.00    -0.310 OA
HETATM   27  C   UNL     1       5.475  33.068  60.189  1.00  0.00     0.086 A 
HETATM   28  C   UNL     1       4.497  34.015  59.989  1.00  0.00     0.041 A 
HETATM   29  C   UNL     1       3.977  33.785  58.696  1.00  0.00     0.040 A 
BRANCH  27  30
HETATM   30  C   UNL     1       6.412  32.799  61.278  1.00  0.00     0.001 A 
HETATM   31  C   UNL     1       6.328  33.485  62.497  1.00  0.00     0.038 A 
HETATM   32  C   UNL     1       7.202  33.182  63.543  1.00  0.00     0.036 A 
HETATM   33 CL   UNL     1       7.071  34.032  65.035  1.00  0.00    -0.084 Cl
HETATM   34  C   UNL     1       8.174  32.197  63.397  1.00  0.00     0.047 A 
HETATM   35  C   UNL     1       8.267  31.517  62.187  1.00  0.00     0.036 A 
HETATM   36 CL   UNL     1       9.465  30.297  61.986  1.00  0.00    -0.084 Cl
HETATM   37  C   UNL     1       7.397  31.810  61.136  1.00  0.00     0.038 A 
ENDBRANCH  27  30
ENDBRANCH  24  25
ENDBRANCH   2  23
TORSDOF 6
ENDMDL
