MODEL 1
REMARK VINA RESULT:      -8.3      0.000      0.000
REMARK  5 active torsions:
REMARK  status: ('A' for Active; 'I' for Inactive)
REMARK    1  A    between atoms: C_2  and  O_3 
REMARK    2  A    between atoms: C_2  and  C_5 
REMARK    3  A    between atoms: C_7  and  N_8 
REMARK    4  A    between atoms: N_8  and  C_9 
REMARK    5  A    between atoms: C_9  and  C_10 
ROOT
HETATM    1  N   UNL     1       7.998  26.579  58.070  1.00  0.00    -0.289 NA
HETATM    2  H   UNL     1       8.908  26.677  58.520  1.00  0.00     0.128 HD
ENDROOT
BRANCH   1   3
HETATM    3  C   UNL     1       8.061  25.589  57.074  1.00  0.00     0.009 A 
HETATM    4  C   UNL     1       7.505  25.870  55.815  1.00  0.00     0.033 A 
HETATM    5  C   UNL     1       7.584  24.962  54.740  1.00  0.00    -0.028 A 
HETATM    6  C   UNL     1       8.244  23.747  54.948  1.00  0.00     0.010 A 
HETATM    7  C   UNL     1       8.856  23.476  56.171  1.00  0.00     0.002 A 
HETATM    8  C   UNL     1       8.783  24.401  57.215  1.00  0.00     0.023 A 
BRANCH   5   9
HETATM    9  C   UNL     1       6.921  25.311  53.420  1.00  0.00     0.149 C 
HETATM   10  C   UNL     1       7.746  24.911  52.196  1.00  0.00     0.045 C 
BRANCH   9  11
HETATM   11  O   UNL     1       5.651  24.652  53.409  1.00  0.00    -0.386 OA
HETATM   12  C   UNL     1       4.909  24.879  52.220  1.00  0.00     0.202 C 
ENDBRANCH   9  11
ENDBRANCH   5   9
ENDBRANCH   1   3
BRANCH   1  13
HETATM   13  C   UNL     1       7.471  27.902  57.708  1.00  0.00     0.133 C 
BRANCH  13  14
HETATM   14  C   UNL     1       8.521  28.992  57.735  1.00  0.00    -0.016 A 
HETATM   15  C   UNL     1       8.603  30.028  58.682  1.00  0.00     0.069 A 
HETATM   16  C   UNL     1       9.609  30.986  58.705  1.00  0.00     0.012 A 
HETATM   17  N   UNL     1       7.784  30.349  59.736  1.00  0.00    -0.277 N 
HETATM   18  C   UNL     1       9.298  31.802  59.815  1.00  0.00     0.152 A 
HETATM   19  C   UNL     1      10.618  30.946  57.730  1.00  0.00     0.015 A 
HETATM   20  N   UNL     1       8.191  31.414  60.452  1.00  0.00    -0.186 NA
HETATM   21  C   UNL     1      10.575  29.935  56.765  1.00  0.00     0.002 A 
HETATM   22  C   UNL     1       9.553  28.983  56.773  1.00  0.00     0.011 A 
HETATM   23  H   UNL     1       6.930  29.862  59.992  1.00  0.00     0.189 HD
ENDBRANCH  13  14
ENDBRANCH   1  13
TORSDOF 5
ENDMDL
MODEL 2
REMARK VINA RESULT:      -8.3      1.486      2.576
REMARK  5 active torsions:
REMARK  status: ('A' for Active; 'I' for Inactive)
REMARK    1  A    between atoms: C_2  and  O_3 
REMARK    2  A    between atoms: C_2  and  C_5 
REMARK    3  A    between atoms: C_7  and  N_8 
REMARK    4  A    between atoms: N_8  and  C_9 
REMARK    5  A    between atoms: C_9  and  C_10 
ROOT
HETATM    1  N   UNL     1       8.040  26.487  57.788  1.00  0.00    -0.289 NA
HETATM    2  H   UNL     1       9.051  26.542  57.904  1.00  0.00     0.128 HD
ENDROOT
BRANCH   1   3
HETATM    3  C   UNL     1       7.725  25.597  56.745  1.00  0.00     0.009 A 
HETATM    4  C   UNL     1       8.431  24.385  56.665  1.00  0.00     0.033 A 
HETATM    5  C   UNL     1       8.134  23.408  55.694  1.00  0.00    -0.028 A 
HETATM    6  C   UNL     1       7.098  23.666  54.790  1.00  0.00     0.010 A 
HETATM    7  C   UNL     1       6.346  24.835  54.894  1.00  0.00     0.002 A 
HETATM    8  C   UNL     1       6.645  25.780  55.878  1.00  0.00     0.023 A 
BRANCH   5   9
HETATM    9  C   UNL     1       8.966  22.141  55.634  1.00  0.00     0.149 C 
HETATM   10  C   UNL     1       8.464  21.034  56.563  1.00  0.00     0.045 C 
BRANCH   9  11
HETATM   11  O   UNL     1       8.954  21.701  54.274  1.00  0.00    -0.386 OA
HETATM   12  C   UNL     1       8.620  20.328  54.127  1.00  0.00     0.202 C 
ENDBRANCH   9  11
ENDBRANCH   5   9
ENDBRANCH   1   3
BRANCH   1  13
HETATM   13  C   UNL     1       7.464  27.838  57.752  1.00  0.00     0.133 C 
BRANCH  13  14
HETATM   14  C   UNL     1       8.508  28.933  57.747  1.00  0.00    -0.016 A 
HETATM   15  C   UNL     1       8.589  29.994  58.666  1.00  0.00     0.069 A 
HETATM   16  C   UNL     1       9.591  30.956  58.660  1.00  0.00     0.012 A 
HETATM   17  N   UNL     1       7.773  30.338  59.715  1.00  0.00    -0.277 N 
HETATM   18  C   UNL     1       9.280  31.800  59.750  1.00  0.00     0.152 A 
HETATM   19  C   UNL     1      10.596  30.896  57.682  1.00  0.00     0.015 A 
HETATM   20  N   UNL     1       8.177  31.423  60.402  1.00  0.00    -0.186 NA
HETATM   21  C   UNL     1      10.554  29.861  56.744  1.00  0.00     0.002 A 
HETATM   22  C   UNL     1       9.537  28.904  56.780  1.00  0.00     0.011 A 
HETATM   23  H   UNL     1       6.922  29.853  59.988  1.00  0.00     0.189 HD
ENDBRANCH  13  14
ENDBRANCH   1  13
TORSDOF 5
ENDMDL
MODEL 3
REMARK VINA RESULT:      -8.2      2.960      7.535
REMARK  5 active torsions:
REMARK  status: ('A' for Active; 'I' for Inactive)
REMARK    1  A    between atoms: C_2  and  O_3 
REMARK    2  A    between atoms: C_2  and  C_5 
REMARK    3  A    between atoms: C_7  and  N_8 
REMARK    4  A    between atoms: N_8  and  C_9 
REMARK    5  A    between atoms: C_9  and  C_10 
ROOT
HETATM    1  N   UNL     1       7.154  24.775  57.420  1.00  0.00    -0.289 NA
HETATM    2  H   UNL     1       6.408  24.161  57.094  1.00  0.00     0.128 HD
ENDROOT
BRANCH   1   3
HETATM    3  C   UNL     1       6.755  26.118  57.301  1.00  0.00     0.009 A 
HETATM    4  C   UNL     1       7.729  27.121  57.450  1.00  0.00     0.033 A 
HETATM    5  C   UNL     1       7.430  28.487  57.279  1.00  0.00    -0.028 A 
HETATM    6  C   UNL     1       6.118  28.842  56.947  1.00  0.00     0.010 A 
HETATM    7  C   UNL     1       5.153  27.858  56.734  1.00  0.00     0.002 A 
HETATM    8  C   UNL     1       5.478  26.508  56.888  1.00  0.00     0.023 A 
BRANCH   5   9
HETATM    9  C   UNL     1       8.519  29.520  57.500  1.00  0.00     0.149 C 
HETATM   10  C   UNL     1       8.562  30.068  58.928  1.00  0.00     0.045 C 
BRANCH   9  11
HETATM   11  O   UNL     1       9.759  28.894  57.163  1.00  0.00    -0.386 OA
HETATM   12  C   UNL     1      10.863  29.787  57.172  1.00  0.00     0.202 C 
ENDBRANCH   9  11
ENDBRANCH   5   9
ENDBRANCH   1   3
BRANCH   1  13
HETATM   13  C   UNL     1       8.434  24.371  56.823  1.00  0.00     0.133 C 
BRANCH  13  14
HETATM   14  C   UNL     1       8.275  23.642  55.506  1.00  0.00    -0.016 A 
HETATM   15  C   UNL     1       8.378  22.252  55.320  1.00  0.00     0.069 A 
HETATM   16  C   UNL     1       8.180  21.611  54.104  1.00  0.00     0.012 A 
HETATM   17  N   UNL     1       8.681  21.247  56.205  1.00  0.00    -0.277 N 
HETATM   18  C   UNL     1       8.370  20.240  54.388  1.00  0.00     0.152 A 
HETATM   19  C   UNL     1       7.862  22.374  52.968  1.00  0.00     0.015 A 
HETATM   20  N   UNL     1       8.668  20.012  55.670  1.00  0.00    -0.186 NA
HETATM   21  C   UNL     1       7.753  23.761  53.105  1.00  0.00     0.002 A 
HETATM   22  C   UNL     1       7.953  24.375  54.344  1.00  0.00     0.011 A 
HETATM   23  H   UNL     1       8.909  21.372  57.187  1.00  0.00     0.189 HD
ENDBRANCH  13  14
ENDBRANCH   1  13
TORSDOF 5
ENDMDL
MODEL 4
REMARK VINA RESULT:      -8.1      2.938      7.034
REMARK  5 active torsions:
REMARK  status: ('A' for Active; 'I' for Inactive)
REMARK    1  A    between atoms: C_2  and  O_3 
REMARK    2  A    between atoms: C_2  and  C_5 
REMARK    3  A    between atoms: C_7  and  N_8 
REMARK    4  A    between atoms: N_8  and  C_9 
REMARK    5  A    between atoms: C_9  and  C_10 
ROOT
HETATM    1  N   UNL     1       7.593  24.341  57.525  1.00  0.00    -0.289 NA
HETATM    2  H   UNL     1       6.884  23.616  57.415  1.00  0.00     0.128 HD
ENDROOT
BRANCH   1   3
HETATM    3  C   UNL     1       7.005  25.610  57.378  1.00  0.00     0.009 A 
HETATM    4  C   UNL     1       7.831  26.743  57.463  1.00  0.00     0.033 A 
HETATM    5  C   UNL     1       7.338  28.047  57.260  1.00  0.00    -0.028 A 
HETATM    6  C   UNL     1       5.980  28.203  56.962  1.00  0.00     0.010 A 
HETATM    7  C   UNL     1       5.158  27.086  56.811  1.00  0.00     0.002 A 
HETATM    8  C   UNL     1       5.674  25.802  56.996  1.00  0.00     0.023 A 
BRANCH   5   9
HETATM    9  C   UNL     1       8.275  29.231  57.413  1.00  0.00     0.149 C 
HETATM   10  C   UNL     1       8.258  29.850  58.812  1.00  0.00     0.045 C 
BRANCH   9  11
HETATM   11  O   UNL     1       9.587  28.764  57.085  1.00  0.00    -0.386 OA
HETATM   12  C   UNL     1      10.586  29.767  57.193  1.00  0.00     0.202 C 
ENDBRANCH   9  11
ENDBRANCH   5   9
ENDBRANCH   1   3
BRANCH   1  13
HETATM   13  C   UNL     1       8.773  24.019  56.713  1.00  0.00     0.133 C 
BRANCH  13  14
HETATM   14  C   UNL     1       8.428  23.389  55.380  1.00  0.00    -0.016 A 
HETATM   15  C   UNL     1       8.086  24.085  54.208  1.00  0.00     0.069 A 
HETATM   16  C   UNL     1       7.821  23.475  52.988  1.00  0.00     0.012 A 
HETATM   17  N   UNL     1       7.929  25.428  53.974  1.00  0.00    -0.277 N 
HETATM   18  C   UNL     1       7.540  24.545  52.109  1.00  0.00     0.152 A 
HETATM   19  C   UNL     1       7.883  22.076  52.891  1.00  0.00     0.015 A 
HETATM   20  N   UNL     1       7.613  25.739  52.703  1.00  0.00    -0.186 NA
HETATM   21  C   UNL     1       8.216  21.342  54.033  1.00  0.00     0.002 A 
HETATM   22  C   UNL     1       8.483  21.985  55.244  1.00  0.00     0.011 A 
HETATM   23  H   UNL     1       8.026  26.166  54.667  1.00  0.00     0.189 HD
ENDBRANCH  13  14
ENDBRANCH   1  13
TORSDOF 5
ENDMDL
MODEL 5
REMARK VINA RESULT:      -8.1      3.402      7.594
REMARK  5 active torsions:
REMARK  status: ('A' for Active; 'I' for Inactive)
REMARK    1  A    between atoms: C_2  and  O_3 
REMARK    2  A    between atoms: C_2  and  C_5 
REMARK    3  A    between atoms: C_7  and  N_8 
REMARK    4  A    between atoms: N_8  and  C_9 
REMARK    5  A    between atoms: C_9  and  C_10 
ROOT
HETATM    1  N   UNL     1       6.513  24.729  54.969  1.00  0.00    -0.289 NA
HETATM    2  H   UNL     1       5.541  24.428  55.031  1.00  0.00     0.128 HD
ENDROOT
BRANCH   1   3
HETATM    3  C   UNL     1       6.599  26.116  55.186  1.00  0.00     0.009 A 
HETATM    4  C   UNL     1       7.584  26.595  56.067  1.00  0.00     0.033 A 
HETATM    5  C   UNL     1       7.784  27.972  56.290  1.00  0.00    -0.028 A 
HETATM    6  C   UNL     1       6.970  28.879  55.603  1.00  0.00     0.010 A 
HETATM    7  C   UNL     1       6.030  28.425  54.679  1.00  0.00     0.002 A 
HETATM    8  C   UNL     1       5.864  27.055  54.458  1.00  0.00     0.023 A 
BRANCH   5   9
HETATM    9  C   UNL     1       8.834  28.419  57.289  1.00  0.00     0.149 C 
HETATM   10  C   UNL     1       9.645  29.630  56.825  1.00  0.00     0.045 C 
BRANCH   9  11
HETATM   11  O   UNL     1       8.147  28.711  58.509  1.00  0.00    -0.386 OA
HETATM   12  C   UNL     1       8.335  30.045  58.958  1.00  0.00     0.202 C 
ENDBRANCH   9  11
ENDBRANCH   5   9
ENDBRANCH   1   3
BRANCH   1  13
HETATM   13  C   UNL     1       7.136  24.171  53.761  1.00  0.00     0.133 C 
BRANCH  13  14
HETATM   14  C   UNL     1       7.678  22.772  53.960  1.00  0.00    -0.016 A 
HETATM   15  C   UNL     1       8.019  22.192  55.194  1.00  0.00     0.069 A 
HETATM   16  C   UNL     1       8.470  20.887  55.345  1.00  0.00     0.012 A 
HETATM   17  N   UNL     1       8.007  22.712  56.465  1.00  0.00    -0.277 N 
HETATM   18  C   UNL     1       8.673  20.739  56.736  1.00  0.00     0.152 A 
HETATM   19  C   UNL     1       8.611  20.073  54.210  1.00  0.00     0.015 A 
HETATM   20  N   UNL     1       8.385  21.846  57.424  1.00  0.00    -0.186 NA
HETATM   21  C   UNL     1       8.287  20.608  52.960  1.00  0.00     0.002 A 
HETATM   22  C   UNL     1       7.831  21.923  52.842  1.00  0.00     0.011 A 
HETATM   23  H   UNL     1       7.750  23.664  56.713  1.00  0.00     0.189 HD
ENDBRANCH  13  14
ENDBRANCH   1  13
TORSDOF 5
ENDMDL
MODEL 6
REMARK VINA RESULT:      -7.9      2.413      3.644
REMARK  5 active torsions:
REMARK  status: ('A' for Active; 'I' for Inactive)
REMARK    1  A    between atoms: C_2  and  O_3 
REMARK    2  A    between atoms: C_2  and  C_5 
REMARK    3  A    between atoms: C_7  and  N_8 
REMARK    4  A    between atoms: N_8  and  C_9 
REMARK    5  A    between atoms: C_9  and  C_10 
ROOT
HETATM    1  N   UNL     1       5.204  25.900  55.328  1.00  0.00    -0.289 NA
HETATM    2  H   UNL     1       4.309  25.414  55.272  1.00  0.00     0.128 HD
ENDROOT
BRANCH   1   3
HETATM    3  C   UNL     1       6.104  25.353  54.396  1.00  0.00     0.009 A 
HETATM    4  C   UNL     1       6.797  24.181  54.744  1.00  0.00     0.033 A 
HETATM    5  C   UNL     1       7.665  23.529  53.846  1.00  0.00    -0.028 A 
HETATM    6  C   UNL     1       7.830  24.076  52.570  1.00  0.00     0.010 A 
HETATM    7  C   UNL     1       7.104  25.203  52.185  1.00  0.00     0.002 A 
HETATM    8  C   UNL     1       6.232  25.820  53.085  1.00  0.00     0.023 A 
BRANCH   5   9
HETATM    9  C   UNL     1       8.418  22.293  54.303  1.00  0.00     0.149 C 
HETATM   10  C   UNL     1       8.595  22.209  55.820  1.00  0.00     0.045 C 
BRANCH   9  11
HETATM   11  O   UNL     1       7.690  21.162  53.817  1.00  0.00    -0.386 OA
HETATM   12  C   UNL     1       8.429  20.366  52.902  1.00  0.00     0.202 C 
ENDBRANCH   9  11
ENDBRANCH   5   9
ENDBRANCH   1   3
BRANCH   1  13
HETATM   13  C   UNL     1       5.630  26.010  56.730  1.00  0.00     0.133 C 
BRANCH  13  14
HETATM   14  C   UNL     1       6.517  27.208  56.992  1.00  0.00    -0.016 A 
HETATM   15  C   UNL     1       6.074  28.494  57.350  1.00  0.00     0.069 A 
HETATM   16  C   UNL     1       6.920  29.560  57.630  1.00  0.00     0.012 A 
HETATM   17  N   UNL     1       4.806  28.998  57.500  1.00  0.00    -0.277 N 
HETATM   18  C   UNL     1       6.052  30.628  57.948  1.00  0.00     0.152 A 
HETATM   19  C   UNL     1       8.309  29.375  57.551  1.00  0.00     0.015 A 
HETATM   20  N   UNL     1       4.762  30.289  57.878  1.00  0.00    -0.186 NA
HETATM   21  C   UNL     1       8.795  28.114  57.194  1.00  0.00     0.002 A 
HETATM   22  C   UNL     1       7.919  27.059  56.925  1.00  0.00     0.011 A 
HETATM   23  H   UNL     1       3.943  28.485  57.344  1.00  0.00     0.189 HD
ENDBRANCH  13  14
ENDBRANCH   1  13
TORSDOF 5
ENDMDL
MODEL 7
REMARK VINA RESULT:      -7.9      3.548      6.213
REMARK  5 active torsions:
REMARK  status: ('A' for Active; 'I' for Inactive)
REMARK    1  A    between atoms: C_2  and  O_3 
REMARK    2  A    between atoms: C_2  and  C_5 
REMARK    3  A    between atoms: C_7  and  N_8 
REMARK    4  A    between atoms: N_8  and  C_9 
REMARK    5  A    between atoms: C_9  and  C_10 
ROOT
HETATM    1  N   UNL     1       7.624  30.848  60.608  1.00  0.00    -0.289 NA
HETATM    2  H   UNL     1       6.936  30.102  60.699  1.00  0.00     0.128 HD
ENDROOT
BRANCH   1   3
HETATM    3  C   UNL     1       8.475  30.584  59.520  1.00  0.00     0.009 A 
HETATM    4  C   UNL     1       8.134  29.542  58.641  1.00  0.00     0.033 A 
HETATM    5  C   UNL     1       8.893  29.253  57.490  1.00  0.00    -0.028 A 
HETATM    6  C   UNL     1      10.019  30.040  57.225  1.00  0.00     0.010 A 
HETATM    7  C   UNL     1      10.338  31.117  58.052  1.00  0.00     0.002 A 
HETATM    8  C   UNL     1       9.558  31.397  59.176  1.00  0.00     0.023 A 
BRANCH   5   9
HETATM    9  C   UNL     1       8.494  28.085  56.608  1.00  0.00     0.149 C 
HETATM   10  C   UNL     1       7.882  26.915  57.382  1.00  0.00     0.045 C 
BRANCH   9  11
HETATM   11  O   UNL     1       7.567  28.591  55.644  1.00  0.00    -0.386 OA
HETATM   12  C   UNL     1       7.875  28.211  54.311  1.00  0.00     0.202 C 
ENDBRANCH   9  11
ENDBRANCH   5   9
ENDBRANCH   1   3
BRANCH   1  13
HETATM   13  C   UNL     1       8.228  31.138  61.915  1.00  0.00     0.133 C 
BRANCH  13  14
HETATM   14  C   UNL     1       7.414  32.104  62.749  1.00  0.00    -0.016 A 
HETATM   15  C   UNL     1       6.047  32.382  62.581  1.00  0.00     0.069 A 
HETATM   16  C   UNL     1       5.319  33.240  63.396  1.00  0.00     0.012 A 
HETATM   17  N   UNL     1       5.146  31.930  61.649  1.00  0.00    -0.277 N 
HETATM   18  C   UNL     1       4.008  33.204  62.870  1.00  0.00     0.152 A 
HETATM   19  C   UNL     1       5.965  33.890  64.459  1.00  0.00     0.015 A 
HETATM   20  N   UNL     1       3.895  32.401  61.809  1.00  0.00    -0.186 NA
HETATM   21  C   UNL     1       7.326  33.647  64.663  1.00  0.00     0.002 A 
HETATM   22  C   UNL     1       8.029  32.774  63.829  1.00  0.00     0.011 A 
HETATM   23  H   UNL     1       5.355  31.299  60.880  1.00  0.00     0.189 HD
ENDBRANCH  13  14
ENDBRANCH   1  13
TORSDOF 5
ENDMDL
MODEL 8
REMARK VINA RESULT:      -7.7      5.403      7.557
REMARK  5 active torsions:
REMARK  status: ('A' for Active; 'I' for Inactive)
REMARK    1  A    between atoms: C_2  and  O_3 
REMARK    2  A    between atoms: C_2  and  C_5 
REMARK    3  A    between atoms: C_7  and  N_8 
REMARK    4  A    between atoms: N_8  and  C_9 
REMARK    5  A    between atoms: C_9  and  C_10 
ROOT
HETATM    1  N   UNL     1       5.840  24.643  53.270  1.00  0.00    -0.289 NA
HETATM    2  H   UNL     1       5.706  23.821  52.683  1.00  0.00     0.128 HD
ENDROOT
BRANCH   1   3
HETATM    3  C   UNL     1       5.716  25.811  52.496  1.00  0.00     0.009 A 
HETATM    4  C   UNL     1       5.040  25.728  51.266  1.00  0.00     0.033 A 
HETATM    5  C   UNL     1       4.812  26.861  50.460  1.00  0.00    -0.028 A 
HETATM    6  C   UNL     1       5.275  28.101  50.912  1.00  0.00     0.010 A 
HETATM    7  C   UNL     1       5.892  28.212  52.157  1.00  0.00     0.002 A 
HETATM    8  C   UNL     1       6.089  27.078  52.950  1.00  0.00     0.023 A 
BRANCH   5   9
HETATM    9  C   UNL     1       4.116  26.694  49.121  1.00  0.00     0.149 C 
HETATM   10  C   UNL     1       4.965  27.140  47.930  1.00  0.00     0.045 C 
BRANCH   9  11
HETATM   11  O   UNL     1       3.771  25.311  49.004  1.00  0.00    -0.386 OA
HETATM   12  C   UNL     1       3.001  25.017  47.848  1.00  0.00     0.202 C 
ENDBRANCH   9  11
ENDBRANCH   5   9
ENDBRANCH   1   3
BRANCH   1  13
HETATM   13  C   UNL     1       7.041  24.479  54.099  1.00  0.00     0.133 C 
BRANCH  13  14
HETATM   14  C   UNL     1       7.553  23.055  54.135  1.00  0.00    -0.016 A 
HETATM   15  C   UNL     1       7.922  22.345  55.290  1.00  0.00     0.069 A 
HETATM   16  C   UNL     1       8.343  21.021  55.291  1.00  0.00     0.012 A 
HETATM   17  N   UNL     1       7.969  22.732  56.606  1.00  0.00    -0.277 N 
HETATM   18  C   UNL     1       8.592  20.727  56.650  1.00  0.00     0.152 A 
HETATM   19  C   UNL     1       8.422  20.324  54.075  1.00  0.00     0.015 A 
HETATM   20  N   UNL     1       8.358  21.765  57.458  1.00  0.00    -0.186 NA
HETATM   21  C   UNL     1       8.069  20.992  52.899  1.00  0.00     0.002 A 
HETATM   22  C   UNL     1       7.643  22.322  52.932  1.00  0.00     0.011 A 
HETATM   23  H   UNL     1       7.746  23.659  56.960  1.00  0.00     0.189 HD
ENDBRANCH  13  14
ENDBRANCH   1  13
TORSDOF 5
ENDMDL
MODEL 9
REMARK VINA RESULT:      -7.7      3.289      7.675
REMARK  5 active torsions:
REMARK  status: ('A' for Active; 'I' for Inactive)
REMARK    1  A    between atoms: C_2  and  O_3 
REMARK    2  A    between atoms: C_2  and  C_5 
REMARK    3  A    between atoms: C_7  and  N_8 
REMARK    4  A    between atoms: N_8  and  C_9 
REMARK    5  A    between atoms: C_9  and  C_10 
ROOT
HETATM    1  N   UNL     1       5.993  25.669  55.565  1.00  0.00    -0.289 NA
HETATM    2  H   UNL     1       6.302  25.797  54.602  1.00  0.00     0.128 HD
ENDROOT
BRANCH   1   3
HETATM    3  C   UNL     1       5.955  26.911  56.225  1.00  0.00     0.009 A 
HETATM    4  C   UNL     1       7.147  27.411  56.776  1.00  0.00     0.033 A 
HETATM    5  C   UNL     1       7.214  28.676  57.394  1.00  0.00    -0.028 A 
HETATM    6  C   UNL     1       6.049  29.448  57.449  1.00  0.00     0.010 A 
HETATM    7  C   UNL     1       4.873  28.996  56.853  1.00  0.00     0.002 A 
HETATM    8  C   UNL     1       4.836  27.747  56.227  1.00  0.00     0.023 A 
BRANCH   5   9
HETATM    9  C   UNL     1       8.523  29.135  58.010  1.00  0.00     0.149 C 
HETATM   10  C   UNL     1       9.685  29.179  57.016  1.00  0.00     0.045 C 
BRANCH   9  11
HETATM   11  O   UNL     1       8.286  30.431  58.567  1.00  0.00    -0.386 OA
HETATM   12  C   UNL     1       8.675  30.540  59.928  1.00  0.00     0.202 C 
ENDBRANCH   9  11
ENDBRANCH   5   9
ENDBRANCH   1   3
BRANCH   1  13
HETATM   13  C   UNL     1       6.737  24.568  56.190  1.00  0.00     0.133 C 
BRANCH  13  14
HETATM   14  C   UNL     1       7.290  23.576  55.189  1.00  0.00    -0.016 A 
HETATM   15  C   UNL     1       7.932  22.366  55.503  1.00  0.00     0.069 A 
HETATM   16  C   UNL     1       8.386  21.456  54.557  1.00  0.00     0.012 A 
HETATM   17  N   UNL     1       8.261  21.811  56.715  1.00  0.00    -0.277 N 
HETATM   18  C   UNL     1       8.944  20.402  55.315  1.00  0.00     0.152 A 
HETATM   19  C   UNL     1       8.213  21.738  53.192  1.00  0.00     0.015 A 
HETATM   20  N   UNL     1       8.863  20.610  56.631  1.00  0.00    -0.186 NA
HETATM   21  C   UNL     1       7.582  22.933  52.833  1.00  0.00     0.002 A 
HETATM   22  C   UNL     1       7.131  23.825  53.809  1.00  0.00     0.011 A 
HETATM   23  H   UNL     1       8.093  22.232  57.624  1.00  0.00     0.189 HD
ENDBRANCH  13  14
ENDBRANCH   1  13
TORSDOF 5
ENDMDL
MODEL 10
REMARK VINA RESULT:      -7.7      5.410      7.728
REMARK  5 active torsions:
REMARK  status: ('A' for Active; 'I' for Inactive)
REMARK    1  A    between atoms: C_2  and  O_3 
REMARK    2  A    between atoms: C_2  and  C_5 
REMARK    3  A    between atoms: C_7  and  N_8 
REMARK    4  A    between atoms: N_8  and  C_9 
REMARK    5  A    between atoms: C_9  and  C_10 
ROOT
HETATM    1  N   UNL     1       6.573  24.803  52.703  1.00  0.00    -0.289 NA
HETATM    2  H   UNL     1       6.596  24.045  52.022  1.00  0.00     0.128 HD
ENDROOT
BRANCH   1   3
HETATM    3  C   UNL     1       6.094  25.977  52.096  1.00  0.00     0.009 A 
HETATM    4  C   UNL     1       5.375  25.863  50.894  1.00  0.00     0.033 A 
HETATM    5  C   UNL     1       4.802  26.980  50.254  1.00  0.00    -0.028 A 
HETATM    6  C   UNL     1       4.959  28.236  50.849  1.00  0.00     0.010 A 
HETATM    7  C   UNL     1       5.615  28.361  52.073  1.00  0.00     0.002 A 
HETATM    8  C   UNL     1       6.157  27.236  52.699  1.00  0.00     0.023 A 
BRANCH   5   9
HETATM    9  C   UNL     1       4.078  26.791  48.934  1.00  0.00     0.149 C 
HETATM   10  C   UNL     1       4.935  27.126  47.712  1.00  0.00     0.045 C 
BRANCH   9  11
HETATM   11  O   UNL     1       3.646  25.429  48.890  1.00  0.00    -0.386 OA
HETATM   12  C   UNL     1       2.985  25.085  47.680  1.00  0.00     0.202 C 
ENDBRANCH   9  11
ENDBRANCH   5   9
ENDBRANCH   1   3
BRANCH   1  13
HETATM   13  C   UNL     1       7.847  24.863  53.432  1.00  0.00     0.133 C 
BRANCH  13  14
HETATM   14  C   UNL     1       8.006  23.754  54.450  1.00  0.00    -0.016 A 
HETATM   15  C   UNL     1       8.070  22.380  54.163  1.00  0.00     0.069 A 
HETATM   16  C   UNL     1       8.265  21.391  55.119  1.00  0.00     0.012 A 
HETATM   17  N   UNL     1       7.962  21.705  52.972  1.00  0.00    -0.277 N 
HETATM   18  C   UNL     1       8.272  20.183  54.386  1.00  0.00     0.152 A 
HETATM   19  C   UNL     1       8.402  21.756  56.468  1.00  0.00     0.015 A 
HETATM   20  N   UNL     1       8.096  20.369  53.075  1.00  0.00    -0.186 NA
HETATM   21  C   UNL     1       8.341  23.113  56.801  1.00  0.00     0.002 A 
HETATM   22  C   UNL     1       8.151  24.084  55.815  1.00  0.00     0.011 A 
HETATM   23  H   UNL     1       7.788  22.128  52.065  1.00  0.00     0.189 HD
ENDBRANCH  13  14
ENDBRANCH   1  13
TORSDOF 5
ENDMDL
