MODEL 1
REMARK VINA RESULT:      -9.4      0.000      0.000
REMARK  6 active torsions:
REMARK  status: ('A' for Active; 'I' for Inactive)
REMARK    1  A    between atoms: C_2  and  C_3 
REMARK    2  A    between atoms: C_3  and  C_4 
REMARK    3  A    between atoms: C_3  and  C_10 
REMARK    4  A    between atoms: C_10  and  C_11 
REMARK       I    between atoms: C_11  and  N_12 
REMARK    5  A    between atoms: N_12  and  C_13 
REMARK    6  A    between atoms: C_20  and  C_21 
REMARK       I    between atoms: C_21  and  N_22 
ROOT
HETATM    1  C   UNL     1       8.125  28.287  57.320  1.00  0.00     0.035 A 
HETATM    2  C   UNL     1       7.652  29.235  58.238  1.00  0.00     0.046 A 
HETATM    3  C   UNL     1       8.449  30.359  58.552  1.00  0.00     0.030 A 
HETATM    4  C   UNL     1       9.685  30.499  57.932  1.00  0.00     0.063 A 
HETATM    5  N   UNL     1      10.209  31.660  58.426  1.00  0.00    -0.277 N 
HETATM    6  H   UNL     1      11.104  32.077  58.194  1.00  0.00     0.189 HD
HETATM    7  N   UNL     1       9.428  32.289  59.319  1.00  0.00    -0.168 NA
HETATM    8  C   UNL     1       8.335  31.495  59.408  1.00  0.00     0.156 A 
HETATM    9  C   UNL     1      10.185  29.576  57.013  1.00  0.00     0.034 A 
HETATM   10  C   UNL     1       9.380  28.468  56.723  1.00  0.00     0.032 A 
ENDROOT
BRANCH   1  11
HETATM   11  N   UNL     1       7.416  27.121  56.961  1.00  0.00    -0.327 N 
HETATM   12  C   UNL     1       7.582  25.843  57.465  1.00  0.00     0.222 C 
HETATM   13  O   UNL     1       8.329  25.500  58.372  1.00  0.00    -0.273 OA
HETATM   14  H   UNL     1       6.690  27.241  56.266  1.00  0.00     0.169 HD
BRANCH  12  15
HETATM   15  C   UNL     1       6.729  24.816  56.740  1.00  0.00     0.112 C 
BRANCH  15  16
HETATM   16  C   UNL     1       7.506  24.151  55.588  1.00  0.00     0.027 C 
BRANCH  16  17
HETATM   17  C   UNL     1       7.585  22.610  55.694  1.00  0.00     0.005 C 
HETATM   18  C   UNL     1       8.959  21.998  55.455  1.00  0.00     0.006 C 
ENDBRANCH  16  17
BRANCH  16  19
HETATM   19  C   UNL     1       7.027  24.593  54.211  1.00  0.00    -0.054 A 
HETATM   20  C   UNL     1       7.887  24.684  53.106  1.00  0.00     0.007 A 
HETATM   21  C   UNL     1       7.408  25.104  51.862  1.00  0.00     0.001 A 
HETATM   22  C   UNL     1       6.067  25.442  51.705  1.00  0.00     0.000 A 
HETATM   23  C   UNL     1       5.202  25.366  52.794  1.00  0.00     0.001 A 
HETATM   24  C   UNL     1       5.679  24.948  54.037  1.00  0.00     0.007 A 
ENDBRANCH  16  19
ENDBRANCH  15  16
ENDBRANCH  12  15
ENDBRANCH   1  11
BRANCH   8  25
HETATM   25  C   UNL     1       7.222  31.836  60.305  1.00  0.00     0.270 C 
HETATM   26  N   UNL     1       7.214  31.132  61.478  1.00  0.00    -0.365 N 
HETATM   27  H   UNL     1       7.944  30.449  61.638  1.00  0.00     0.159 HD
HETATM   28  H   UNL     1       6.482  31.295  62.152  1.00  0.00     0.159 HD
HETATM   29  O   UNL     1       6.354  32.669  60.059  1.00  0.00    -0.266 OA
ENDBRANCH   8  25
TORSDOF 6
ENDMDL
MODEL 2
REMARK VINA RESULT:      -9.3      1.044      2.456
REMARK  6 active torsions:
REMARK  status: ('A' for Active; 'I' for Inactive)
REMARK    1  A    between atoms: C_2  and  C_3 
REMARK    2  A    between atoms: C_3  and  C_4 
REMARK    3  A    between atoms: C_3  and  C_10 
REMARK    4  A    between atoms: C_10  and  C_11 
REMARK       I    between atoms: C_11  and  N_12 
REMARK    5  A    between atoms: N_12  and  C_13 
REMARK    6  A    between atoms: C_20  and  C_21 
REMARK       I    between atoms: C_21  and  N_22 
ROOT
HETATM    1  C   UNL     1       8.019  28.274  57.373  1.00  0.00     0.035 A 
HETATM    2  C   UNL     1       7.637  29.216  58.338  1.00  0.00     0.046 A 
HETATM    3  C   UNL     1       8.469  30.329  58.595  1.00  0.00     0.030 A 
HETATM    4  C   UNL     1       9.648  30.465  57.872  1.00  0.00     0.063 A 
HETATM    5  N   UNL     1      10.225  31.616  58.332  1.00  0.00    -0.277 N 
HETATM    6  H   UNL     1      11.100  32.028  58.028  1.00  0.00     0.189 HD
HETATM    7  N   UNL     1       9.530  32.241  59.296  1.00  0.00    -0.168 NA
HETATM    8  C   UNL     1       8.441  31.456  59.471  1.00  0.00     0.156 A 
HETATM    9  C   UNL     1      10.058  29.549  56.903  1.00  0.00     0.034 A 
HETATM   10  C   UNL     1       9.221  28.451  56.672  1.00  0.00     0.032 A 
ENDROOT
BRANCH   1  11
HETATM   11  N   UNL     1       7.271  27.119  57.064  1.00  0.00    -0.327 N 
HETATM   12  C   UNL     1       7.659  25.798  57.204  1.00  0.00     0.222 C 
HETATM   13  O   UNL     1       8.703  25.386  57.694  1.00  0.00    -0.273 OA
HETATM   14  H   UNL     1       6.335  27.279  56.715  1.00  0.00     0.169 HD
BRANCH  12  15
HETATM   15  C   UNL     1       6.636  24.827  56.642  1.00  0.00     0.112 C 
BRANCH  15  16
HETATM   16  C   UNL     1       6.834  24.615  55.129  1.00  0.00     0.027 C 
BRANCH  16  17
HETATM   17  C   UNL     1       7.729  25.683  54.458  1.00  0.00     0.005 C 
HETATM   18  C   UNL     1       7.018  26.655  53.526  1.00  0.00     0.006 C 
ENDBRANCH  16  17
BRANCH  16  19
HETATM   19  C   UNL     1       7.288  23.204  54.778  1.00  0.00    -0.054 A 
HETATM   20  C   UNL     1       7.494  22.214  55.751  1.00  0.00     0.007 A 
HETATM   21  C   UNL     1       7.922  20.934  55.387  1.00  0.00     0.001 A 
HETATM   22  C   UNL     1       8.152  20.626  54.049  1.00  0.00     0.000 A 
HETATM   23  C   UNL     1       7.961  21.600  53.072  1.00  0.00     0.001 A 
HETATM   24  C   UNL     1       7.535  22.879  53.434  1.00  0.00     0.007 A 
ENDBRANCH  16  19
ENDBRANCH  15  16
ENDBRANCH  12  15
ENDBRANCH   1  11
BRANCH   8  25
HETATM   25  C   UNL     1       7.412  31.796  60.464  1.00  0.00     0.270 C 
HETATM   26  N   UNL     1       7.434  31.008  61.582  1.00  0.00    -0.365 N 
HETATM   27  H   UNL     1       8.126  30.272  61.643  1.00  0.00     0.159 HD
HETATM   28  H   UNL     1       6.760  31.164  62.314  1.00  0.00     0.159 HD
HETATM   29  O   UNL     1       6.588  32.696  60.338  1.00  0.00    -0.266 OA
ENDBRANCH   8  25
TORSDOF 6
ENDMDL
MODEL 3
REMARK VINA RESULT:      -9.2      1.967      3.451
REMARK  6 active torsions:
REMARK  status: ('A' for Active; 'I' for Inactive)
REMARK    1  A    between atoms: C_2  and  C_3 
REMARK    2  A    between atoms: C_3  and  C_4 
REMARK    3  A    between atoms: C_3  and  C_10 
REMARK    4  A    between atoms: C_10  and  C_11 
REMARK       I    between atoms: C_11  and  N_12 
REMARK    5  A    between atoms: N_12  and  C_13 
REMARK    6  A    between atoms: C_20  and  C_21 
REMARK       I    between atoms: C_21  and  N_22 
ROOT
HETATM    1  C   UNL     1       7.046  28.235  56.767  1.00  0.00     0.035 A 
HETATM    2  C   UNL     1       7.859  29.103  57.510  1.00  0.00     0.046 A 
HETATM    3  C   UNL     1       7.313  30.301  58.025  1.00  0.00     0.030 A 
HETATM    4  C   UNL     1       5.974  30.584  57.785  1.00  0.00     0.063 A 
HETATM    5  N   UNL     1       5.742  31.783  58.397  1.00  0.00    -0.277 N 
HETATM    6  H   UNL     1       4.869  32.298  58.429  1.00  0.00     0.189 HD
HETATM    7  N   UNL     1       6.813  32.313  59.011  1.00  0.00    -0.168 NA
HETATM    8  C   UNL     1       7.794  31.407  58.788  1.00  0.00     0.156 A 
HETATM    9  C   UNL     1       5.136  29.742  57.053  1.00  0.00     0.034 A 
HETATM   10  C   UNL     1       5.702  28.565  56.548  1.00  0.00     0.032 A 
ENDROOT
BRANCH   1  11
HETATM   11  N   UNL     1       7.504  27.031  56.192  1.00  0.00    -0.327 N 
HETATM   12  C   UNL     1       7.179  25.739  56.565  1.00  0.00     0.222 C 
HETATM   13  O   UNL     1       6.372  25.401  57.423  1.00  0.00    -0.273 OA
HETATM   14  H   UNL     1       8.130  27.128  55.403  1.00  0.00     0.169 HD
BRANCH  12  15
HETATM   15  C   UNL     1       7.971  24.694  55.800  1.00  0.00     0.112 C 
BRANCH  15  16
HETATM   16  C   UNL     1       7.067  23.885  54.850  1.00  0.00     0.027 C 
BRANCH  16  17
HETATM   17  C   UNL     1       6.699  24.634  53.548  1.00  0.00     0.005 C 
HETATM   18  C   UNL     1       5.212  24.873  53.317  1.00  0.00     0.006 C 
ENDBRANCH  16  17
BRANCH  16  19
HETATM   19  C   UNL     1       7.603  22.489  54.560  1.00  0.00    -0.054 A 
HETATM   20  C   UNL     1       7.897  21.567  55.577  1.00  0.00     0.007 A 
HETATM   21  C   UNL     1       8.397  20.299  55.267  1.00  0.00     0.001 A 
HETATM   22  C   UNL     1       8.613  19.936  53.941  1.00  0.00     0.000 A 
HETATM   23  C   UNL     1       8.335  20.842  52.921  1.00  0.00     0.001 A 
HETATM   24  C   UNL     1       7.837  22.109  53.228  1.00  0.00     0.007 A 
ENDBRANCH  16  19
ENDBRANCH  15  16
ENDBRANCH  12  15
ENDBRANCH   1  11
BRANCH   8  25
HETATM   25  C   UNL     1       9.154  31.621  59.301  1.00  0.00     0.270 C 
HETATM   26  N   UNL     1       9.436  30.924  60.445  1.00  0.00    -0.365 N 
HETATM   27  H   UNL     1       8.714  30.337  60.845  1.00  0.00     0.159 HD
HETATM   28  H   UNL     1      10.343  31.015  60.873  1.00  0.00     0.159 HD
HETATM   29  O   UNL     1       9.991  32.353  58.783  1.00  0.00    -0.266 OA
ENDBRANCH   8  25
TORSDOF 6
ENDMDL
MODEL 4
REMARK VINA RESULT:      -9.0      1.704      2.669
REMARK  6 active torsions:
REMARK  status: ('A' for Active; 'I' for Inactive)
REMARK    1  A    between atoms: C_2  and  C_3 
REMARK    2  A    between atoms: C_3  and  C_4 
REMARK    3  A    between atoms: C_3  and  C_10 
REMARK    4  A    between atoms: C_10  and  C_11 
REMARK       I    between atoms: C_11  and  N_12 
REMARK    5  A    between atoms: N_12  and  C_13 
REMARK    6  A    between atoms: C_20  and  C_21 
REMARK       I    between atoms: C_21  and  N_22 
ROOT
HETATM    1  C   UNL     1       8.484  28.786  56.784  1.00  0.00     0.035 A 
HETATM    2  C   UNL     1       7.766  29.665  57.608  1.00  0.00     0.046 A 
HETATM    3  C   UNL     1       8.454  30.681  58.309  1.00  0.00     0.030 A 
HETATM    4  C   UNL     1       9.830  30.788  58.155  1.00  0.00     0.063 A 
HETATM    5  N   UNL     1      10.203  31.844  58.939  1.00  0.00    -0.277 N 
HETATM    6  H   UNL     1      11.138  32.211  59.071  1.00  0.00     0.189 HD
HETATM    7  N   UNL     1       9.191  32.433  59.597  1.00  0.00    -0.168 NA
HETATM    8  C   UNL     1       8.102  31.724  59.218  1.00  0.00     0.156 A 
HETATM    9  C   UNL     1      10.575  29.933  57.342  1.00  0.00     0.034 A 
HETATM   10  C   UNL     1       9.873  28.929  56.664  1.00  0.00     0.032 A 
ENDROOT
BRANCH   1  11
HETATM   11  N   UNL     1       7.892  27.725  56.065  1.00  0.00    -0.327 N 
HETATM   12  C   UNL     1       7.642  27.662  54.706  1.00  0.00     0.222 C 
HETATM   13  O   UNL     1       7.956  28.491  53.860  1.00  0.00    -0.273 OA
HETATM   14  H   UNL     1       7.639  26.910  56.609  1.00  0.00     0.169 HD
BRANCH  12  15
HETATM   15  C   UNL     1       6.870  26.415  54.313  1.00  0.00     0.112 C 
BRANCH  15  16
HETATM   16  C   UNL     1       7.023  25.303  55.367  1.00  0.00     0.027 C 
BRANCH  16  17
HETATM   17  C   UNL     1       5.709  24.955  56.104  1.00  0.00     0.005 C 
HETATM   18  C   UNL     1       5.102  26.073  56.941  1.00  0.00     0.006 C 
ENDBRANCH  16  17
BRANCH  16  19
HETATM   19  C   UNL     1       7.707  24.055  54.824  1.00  0.00    -0.054 A 
HETATM   20  C   UNL     1       8.737  23.397  55.514  1.00  0.00     0.007 A 
HETATM   21  C   UNL     1       9.345  22.260  54.974  1.00  0.00     0.001 A 
HETATM   22  C   UNL     1       8.935  21.766  53.738  1.00  0.00     0.000 A 
HETATM   23  C   UNL     1       7.921  22.412  53.037  1.00  0.00     0.001 A 
HETATM   24  C   UNL     1       7.314  23.548  53.574  1.00  0.00     0.007 A 
ENDBRANCH  16  19
ENDBRANCH  15  16
ENDBRANCH  12  15
ENDBRANCH   1  11
BRANCH   8  25
HETATM   25  C   UNL     1       6.766  32.054  59.733  1.00  0.00     0.270 C 
HETATM   26  N   UNL     1       6.544  31.640  61.019  1.00  0.00    -0.365 N 
HETATM   27  H   UNL     1       7.286  31.150  61.504  1.00  0.00     0.159 HD
HETATM   28  H   UNL     1       5.653  31.817  61.452  1.00  0.00     0.159 HD
HETATM   29  O   UNL     1       5.897  32.643  59.098  1.00  0.00    -0.266 OA
ENDBRANCH   8  25
TORSDOF 6
ENDMDL
MODEL 5
REMARK VINA RESULT:      -8.9      2.445      3.552
REMARK  6 active torsions:
REMARK  status: ('A' for Active; 'I' for Inactive)
REMARK    1  A    between atoms: C_2  and  C_3 
REMARK    2  A    between atoms: C_3  and  C_4 
REMARK    3  A    between atoms: C_3  and  C_10 
REMARK    4  A    between atoms: C_10  and  C_11 
REMARK       I    between atoms: C_11  and  N_12 
REMARK    5  A    between atoms: N_12  and  C_13 
REMARK    6  A    between atoms: C_20  and  C_21 
REMARK       I    between atoms: C_21  and  N_22 
ROOT
HETATM    1  C   UNL     1       7.668  28.272  56.269  1.00  0.00     0.035 A 
HETATM    2  C   UNL     1       6.469  28.910  56.619  1.00  0.00     0.046 A 
HETATM    3  C   UNL     1       6.490  29.969  57.555  1.00  0.00     0.030 A 
HETATM    4  C   UNL     1       7.707  30.357  58.100  1.00  0.00     0.063 A 
HETATM    5  N   UNL     1       7.412  31.385  58.951  1.00  0.00    -0.277 N 
HETATM    6  H   UNL     1       8.061  31.914  59.524  1.00  0.00     0.189 HD
HETATM    7  N   UNL     1       6.108  31.698  59.015  1.00  0.00    -0.168 NA
HETATM    8  C   UNL     1       5.524  30.830  58.157  1.00  0.00     0.156 A 
HETATM    9  C   UNL     1       8.919  29.747  57.773  1.00  0.00     0.034 A 
HETATM   10  C   UNL     1       8.871  28.696  56.850  1.00  0.00     0.032 A 
ENDROOT
BRANCH   1  11
HETATM   11  N   UNL     1       7.747  27.191  55.367  1.00  0.00    -0.327 N 
HETATM   12  C   UNL     1       7.579  27.223  53.993  1.00  0.00     0.222 C 
HETATM   13  O   UNL     1       7.402  28.214  53.296  1.00  0.00    -0.273 OA
HETATM   14  H   UNL     1       7.970  26.291  55.773  1.00  0.00     0.169 HD
BRANCH  12  15
HETATM   15  C   UNL     1       7.605  25.838  53.371  1.00  0.00     0.112 C 
BRANCH  15  16
HETATM   16  C   UNL     1       6.695  24.859  54.137  1.00  0.00     0.027 C 
BRANCH  16  17
HETATM   17  C   UNL     1       5.220  24.880  53.670  1.00  0.00     0.005 C 
HETATM   18  C   UNL     1       5.000  25.113  52.181  1.00  0.00     0.006 C 
ENDBRANCH  16  17
BRANCH  16  19
HETATM   19  C   UNL     1       7.248  23.441  54.182  1.00  0.00    -0.054 A 
HETATM   20  C   UNL     1       7.644  22.748  53.028  1.00  0.00     0.007 A 
HETATM   21  C   UNL     1       8.136  21.442  53.113  1.00  0.00     0.001 A 
HETATM   22  C   UNL     1       8.237  20.811  54.349  1.00  0.00     0.000 A 
HETATM   23  C   UNL     1       7.840  21.481  55.504  1.00  0.00     0.001 A 
HETATM   24  C   UNL     1       7.347  22.784  55.420  1.00  0.00     0.007 A 
ENDBRANCH  16  19
ENDBRANCH  15  16
ENDBRANCH  12  15
ENDBRANCH   1  11
BRANCH   8  25
HETATM   25  C   UNL     1       4.070  30.841  57.939  1.00  0.00     0.270 C 
HETATM   26  N   UNL     1       3.337  30.512  59.047  1.00  0.00    -0.365 N 
HETATM   27  H   UNL     1       3.828  30.289  59.903  1.00  0.00     0.159 HD
HETATM   28  H   UNL     1       2.332  30.487  58.989  1.00  0.00     0.159 HD
HETATM   29  O   UNL     1       3.524  31.111  56.874  1.00  0.00    -0.266 OA
ENDBRANCH   8  25
TORSDOF 6
ENDMDL
MODEL 6
REMARK VINA RESULT:      -8.9      5.089      8.939
REMARK  6 active torsions:
REMARK  status: ('A' for Active; 'I' for Inactive)
REMARK    1  A    between atoms: C_2  and  C_3 
REMARK    2  A    between atoms: C_3  and  C_4 
REMARK    3  A    between atoms: C_3  and  C_10 
REMARK    4  A    between atoms: C_10  and  C_11 
REMARK       I    between atoms: C_11  and  N_12 
REMARK    5  A    between atoms: N_12  and  C_13 
REMARK    6  A    between atoms: C_20  and  C_21 
REMARK       I    between atoms: C_21  and  N_22 
ROOT
HETATM    1  C   UNL     1       5.255  26.432  51.523  1.00  0.00     0.035 A 
HETATM    2  C   UNL     1       4.589  25.787  50.472  1.00  0.00     0.046 A 
HETATM    3  C   UNL     1       4.342  26.486  49.269  1.00  0.00     0.030 A 
HETATM    4  C   UNL     1       4.775  27.801  49.157  1.00  0.00     0.063 A 
HETATM    5  N   UNL     1       4.401  28.202  47.905  1.00  0.00    -0.277 N 
HETATM    6  H   UNL     1       4.556  29.108  47.478  1.00  0.00     0.189 HD
HETATM    7  N   UNL     1       3.755  27.266  47.191  1.00  0.00    -0.168 NA
HETATM    8  C   UNL     1       3.710  26.198  48.022  1.00  0.00     0.156 A 
HETATM    9  C   UNL     1       5.443  28.474  50.181  1.00  0.00     0.034 A 
HETATM   10  C   UNL     1       5.670  27.762  51.366  1.00  0.00     0.032 A 
ENDROOT
BRANCH   1  11
HETATM   11  N   UNL     1       5.526  25.829  52.769  1.00  0.00    -0.327 N 
HETATM   12  C   UNL     1       6.756  25.445  53.273  1.00  0.00     0.222 C 
HETATM   13  O   UNL     1       7.852  25.626  52.757  1.00  0.00    -0.273 OA
HETATM   14  H   UNL     1       4.725  25.676  53.369  1.00  0.00     0.169 HD
BRANCH  12  15
HETATM   15  C   UNL     1       6.640  24.705  54.594  1.00  0.00     0.112 C 
BRANCH  15  16
HETATM   16  C   UNL     1       8.009  24.183  55.069  1.00  0.00     0.027 C 
BRANCH  16  17
HETATM   17  C   UNL     1       8.350  24.563  56.529  1.00  0.00     0.005 C 
HETATM   18  C   UNL     1       7.944  25.965  56.963  1.00  0.00     0.006 C 
ENDBRANCH  16  17
BRANCH  16  19
HETATM   19  C   UNL     1       8.200  22.693  54.820  1.00  0.00    -0.054 A 
HETATM   20  C   UNL     1       8.223  21.750  55.859  1.00  0.00     0.007 A 
HETATM   21  C   UNL     1       8.411  20.392  55.587  1.00  0.00     0.001 A 
HETATM   22  C   UNL     1       8.581  19.957  54.275  1.00  0.00     0.000 A 
HETATM   23  C   UNL     1       8.569  20.881  53.233  1.00  0.00     0.001 A 
HETATM   24  C   UNL     1       8.383  22.237  53.504  1.00  0.00     0.007 A 
ENDBRANCH  16  19
ENDBRANCH  15  16
ENDBRANCH  12  15
ENDBRANCH   1  11
BRANCH   8  25
HETATM   25  C   UNL     1       3.065  24.944  47.610  1.00  0.00     0.270 C 
HETATM   26  N   UNL     1       2.627  24.940  46.313  1.00  0.00    -0.365 N 
HETATM   27  H   UNL     1       2.769  25.771  45.752  1.00  0.00     0.159 HD
HETATM   28  H   UNL     1       2.167  24.123  45.945  1.00  0.00     0.159 HD
HETATM   29  O   UNL     1       2.910  23.965  48.334  1.00  0.00    -0.266 OA
ENDBRANCH   8  25
TORSDOF 6
ENDMDL
MODEL 7
REMARK VINA RESULT:      -8.8      4.882      8.094
REMARK  6 active torsions:
REMARK  status: ('A' for Active; 'I' for Inactive)
REMARK    1  A    between atoms: C_2  and  C_3 
REMARK    2  A    between atoms: C_3  and  C_4 
REMARK    3  A    between atoms: C_3  and  C_10 
REMARK    4  A    between atoms: C_10  and  C_11 
REMARK       I    between atoms: C_11  and  N_12 
REMARK    5  A    between atoms: N_12  and  C_13 
REMARK    6  A    between atoms: C_20  and  C_21 
REMARK       I    between atoms: C_21  and  N_22 
ROOT
HETATM    1  C   UNL     1       4.522  27.084  52.494  1.00  0.00     0.035 A 
HETATM    2  C   UNL     1       4.738  26.863  51.126  1.00  0.00     0.046 A 
HETATM    3  C   UNL     1       4.328  27.837  50.189  1.00  0.00     0.030 A 
HETATM    4  C   UNL     1       3.724  29.000  50.652  1.00  0.00     0.063 A 
HETATM    5  N   UNL     1       3.447  29.735  49.533  1.00  0.00    -0.277 N 
HETATM    6  H   UNL     1       3.005  30.646  49.491  1.00  0.00     0.189 HD
HETATM    7  N   UNL     1       3.811  29.152  48.379  1.00  0.00    -0.168 NA
HETATM    8  C   UNL     1       4.357  27.976  48.768  1.00  0.00     0.156 A 
HETATM    9  C   UNL     1       3.496  29.254  52.004  1.00  0.00     0.034 A 
HETATM   10  C   UNL     1       3.905  28.270  52.913  1.00  0.00     0.032 A 
ENDROOT
BRANCH   1  11
HETATM   11  N   UNL     1       4.872  26.162  53.503  1.00  0.00    -0.327 N 
HETATM   12  C   UNL     1       6.043  26.119  54.239  1.00  0.00     0.222 C 
HETATM   13  O   UNL     1       6.966  26.923  54.201  1.00  0.00    -0.273 OA
HETATM   14  H   UNL     1       4.175  25.462  53.723  1.00  0.00     0.169 HD
BRANCH  12  15
HETATM   15  C   UNL     1       6.118  24.902  55.144  1.00  0.00     0.112 C 
BRANCH  15  16
HETATM   16  C   UNL     1       7.568  24.403  55.297  1.00  0.00     0.027 C 
BRANCH  16  17
HETATM   17  C   UNL     1       8.145  24.584  56.720  1.00  0.00     0.005 C 
HETATM   18  C   UNL     1       7.489  25.665  57.569  1.00  0.00     0.006 C 
ENDBRANCH  16  17
BRANCH  16  19
HETATM   19  C   UNL     1       7.767  22.981  54.789  1.00  0.00    -0.054 A 
HETATM   20  C   UNL     1       7.844  22.670  53.423  1.00  0.00     0.007 A 
HETATM   21  C   UNL     1       8.016  21.349  53.000  1.00  0.00     0.001 A 
HETATM   22  C   UNL     1       8.111  20.321  53.934  1.00  0.00     0.000 A 
HETATM   23  C   UNL     1       8.028  20.611  55.294  1.00  0.00     0.001 A 
HETATM   24  C   UNL     1       7.854  21.930  55.717  1.00  0.00     0.007 A 
ENDBRANCH  16  19
ENDBRANCH  15  16
ENDBRANCH  12  15
ENDBRANCH   1  11
BRANCH   8  25
HETATM   25  C   UNL     1       4.884  27.022  47.783  1.00  0.00     0.270 C 
HETATM   26  N   UNL     1       6.065  27.406  47.209  1.00  0.00    -0.365 N 
HETATM   27  H   UNL     1       6.475  28.289  47.489  1.00  0.00     0.159 HD
HETATM   28  H   UNL     1       6.497  26.817  46.516  1.00  0.00     0.159 HD
HETATM   29  O   UNL     1       4.342  25.966  47.472  1.00  0.00    -0.266 OA
ENDBRANCH   8  25
TORSDOF 6
ENDMDL
MODEL 8
REMARK VINA RESULT:      -8.5      2.071      2.839
REMARK  6 active torsions:
REMARK  status: ('A' for Active; 'I' for Inactive)
REMARK    1  A    between atoms: C_2  and  C_3 
REMARK    2  A    between atoms: C_3  and  C_4 
REMARK    3  A    between atoms: C_3  and  C_10 
REMARK    4  A    between atoms: C_10  and  C_11 
REMARK       I    between atoms: C_11  and  N_12 
REMARK    5  A    between atoms: N_12  and  C_13 
REMARK    6  A    between atoms: C_20  and  C_21 
REMARK       I    between atoms: C_21  and  N_22 
ROOT
HETATM    1  C   UNL     1       7.437  28.256  56.769  1.00  0.00     0.035 A 
HETATM    2  C   UNL     1       6.438  29.167  57.143  1.00  0.00     0.046 A 
HETATM    3  C   UNL     1       6.784  30.311  57.896  1.00  0.00     0.030 A 
HETATM    4  C   UNL     1       8.115  30.508  58.242  1.00  0.00     0.063 A 
HETATM    5  N   UNL     1       8.137  31.677  58.951  1.00  0.00    -0.277 N 
HETATM    6  H   UNL     1       8.945  32.131  59.362  1.00  0.00     0.189 HD
HETATM    7  N   UNL     1       6.935  32.257  59.106  1.00  0.00    -0.168 NA
HETATM    8  C   UNL     1       6.088  31.423  58.459  1.00  0.00     0.156 A 
HETATM    9  C   UNL     1       9.135  29.626  57.885  1.00  0.00     0.034 A 
HETATM   10  C   UNL     1       8.766  28.496  57.145  1.00  0.00     0.032 A 
ENDROOT
BRANCH   1  11
HETATM   11  N   UNL     1       7.189  27.074  56.040  1.00  0.00    -0.327 N 
HETATM   12  C   UNL     1       6.145  26.181  56.209  1.00  0.00     0.222 C 
HETATM   13  O   UNL     1       5.198  26.292  56.978  1.00  0.00    -0.273 OA
HETATM   14  H   UNL     1       7.843  26.867  55.297  1.00  0.00     0.169 HD
BRANCH  12  15
HETATM   15  C   UNL     1       6.281  24.952  55.327  1.00  0.00     0.112 C 
BRANCH  15  16
HETATM   16  C   UNL     1       7.611  24.219  55.586  1.00  0.00     0.027 C 
BRANCH  16  17
HETATM   17  C   UNL     1       7.914  23.982  57.084  1.00  0.00     0.005 C 
HETATM   18  C   UNL     1       9.216  24.581  57.600  1.00  0.00     0.006 C 
ENDBRANCH  16  17
BRANCH  16  19
HETATM   19  C   UNL     1       7.753  22.936  54.777  1.00  0.00    -0.054 A 
HETATM   20  C   UNL     1       7.845  22.933  53.377  1.00  0.00     0.007 A 
HETATM   21  C   UNL     1       7.963  21.731  52.672  1.00  0.00     0.001 A 
HETATM   22  C   UNL     1       7.988  20.518  53.355  1.00  0.00     0.000 A 
HETATM   23  C   UNL     1       7.889  20.503  54.744  1.00  0.00     0.001 A 
HETATM   24  C   UNL     1       7.769  21.702  55.448  1.00  0.00     0.007 A 
ENDBRANCH  16  19
ENDBRANCH  15  16
ENDBRANCH  12  15
ENDBRANCH   1  11
BRANCH   8  25
HETATM   25  C   UNL     1       4.647  31.704  58.399  1.00  0.00     0.270 C 
HETATM   26  N   UNL     1       3.997  31.547  59.593  1.00  0.00    -0.365 N 
HETATM   27  H   UNL     1       4.533  31.255  60.401  1.00  0.00     0.159 HD
HETATM   28  H   UNL     1       3.004  31.711  59.646  1.00  0.00     0.159 HD
HETATM   29  O   UNL     1       4.041  32.046  57.388  1.00  0.00    -0.266 OA
ENDBRANCH   8  25
TORSDOF 6
ENDMDL
MODEL 9
REMARK VINA RESULT:      -8.4      3.261      8.415
REMARK  6 active torsions:
REMARK  status: ('A' for Active; 'I' for Inactive)
REMARK    1  A    between atoms: C_2  and  C_3 
REMARK    2  A    between atoms: C_3  and  C_4 
REMARK    3  A    between atoms: C_3  and  C_10 
REMARK    4  A    between atoms: C_10  and  C_11 
REMARK       I    between atoms: C_11  and  N_12 
REMARK    5  A    between atoms: N_12  and  C_13 
REMARK    6  A    between atoms: C_20  and  C_21 
REMARK       I    between atoms: C_21  and  N_22 
ROOT
HETATM    1  C   UNL     1       7.332  25.460  54.691  1.00  0.00     0.035 A 
HETATM    2  C   UNL     1       7.758  24.308  55.367  1.00  0.00     0.046 A 
HETATM    3  C   UNL     1       7.934  23.104  54.649  1.00  0.00     0.030 A 
HETATM    4  C   UNL     1       7.686  23.096  53.282  1.00  0.00     0.063 A 
HETATM    5  N   UNL     1       7.941  21.817  52.874  1.00  0.00    -0.277 N 
HETATM    6  H   UNL     1       7.865  21.445  51.934  1.00  0.00     0.189 HD
HETATM    7  N   UNL     1       8.328  20.986  53.855  1.00  0.00    -0.168 NA
HETATM    8  C   UNL     1       8.328  21.767  54.961  1.00  0.00     0.156 A 
HETATM    9  C   UNL     1       7.263  24.224  52.577  1.00  0.00     0.034 A 
HETATM   10  C   UNL     1       7.089  25.403  53.312  1.00  0.00     0.032 A 
ENDROOT
BRANCH   1  11
HETATM   11  N   UNL     1       7.103  26.701  55.323  1.00  0.00    -0.327 N 
HETATM   12  C   UNL     1       7.596  27.940  54.954  1.00  0.00     0.222 C 
HETATM   13  O   UNL     1       8.267  28.201  53.963  1.00  0.00    -0.273 OA
HETATM   14  H   UNL     1       6.492  26.680  56.129  1.00  0.00     0.169 HD
BRANCH  12  15
HETATM   15  C   UNL     1       7.243  29.028  55.953  1.00  0.00     0.112 C 
BRANCH  15  16
HETATM   16  C   UNL     1       8.055  28.883  57.254  1.00  0.00     0.027 C 
BRANCH  16  17
HETATM   17  C   UNL     1       9.576  28.712  57.026  1.00  0.00     0.005 C 
HETATM   18  C   UNL     1      10.294  29.909  56.417  1.00  0.00     0.006 C 
ENDBRANCH  16  17
BRANCH  16  19
HETATM   19  C   UNL     1       7.762  29.982  58.267  1.00  0.00    -0.054 A 
HETATM   20  C   UNL     1       8.474  30.110  59.470  1.00  0.00     0.007 A 
HETATM   21  C   UNL     1       8.165  31.127  60.377  1.00  0.00     0.001 A 
HETATM   22  C   UNL     1       7.140  32.027  60.098  1.00  0.00     0.000 A 
HETATM   23  C   UNL     1       6.418  31.909  58.914  1.00  0.00     0.001 A 
HETATM   24  C   UNL     1       6.724  30.893  58.007  1.00  0.00     0.007 A 
ENDBRANCH  16  19
ENDBRANCH  15  16
ENDBRANCH  12  15
ENDBRANCH   1  11
BRANCH   8  25
HETATM   25  C   UNL     1       8.695  21.223  56.275  1.00  0.00     0.270 C 
HETATM   26  N   UNL     1       9.554  20.158  56.218  1.00  0.00    -0.365 N 
HETATM   27  H   UNL     1       9.860  19.831  55.310  1.00  0.00     0.159 HD
HETATM   28  H   UNL     1       9.855  19.715  57.071  1.00  0.00     0.159 HD
HETATM   29  O   UNL     1       8.288  21.651  57.349  1.00  0.00    -0.266 OA
ENDBRANCH   8  25
TORSDOF 6
ENDMDL
MODEL 10
REMARK VINA RESULT:      -8.3      3.268      8.415
REMARK  6 active torsions:
REMARK  status: ('A' for Active; 'I' for Inactive)
REMARK    1  A    between atoms: C_2  and  C_3 
REMARK    2  A    between atoms: C_3  and  C_4 
REMARK    3  A    between atoms: C_3  and  C_10 
REMARK    4  A    between atoms: C_10  and  C_11 
REMARK       I    between atoms: C_11  and  N_12 
REMARK    5  A    between atoms: N_12  and  C_13 
REMARK    6  A    between atoms: C_20  and  C_21 
REMARK       I    between atoms: C_21  and  N_22 
ROOT
HETATM    1  C   UNL     1       7.709  24.972  55.130  1.00  0.00     0.035 A 
HETATM    2  C   UNL     1       7.911  23.644  55.532  1.00  0.00     0.046 A 
HETATM    3  C   UNL     1       7.970  22.622  54.558  1.00  0.00     0.030 A 
HETATM    4  C   UNL     1       7.833  22.964  53.219  1.00  0.00     0.063 A 
HETATM    5  N   UNL     1       7.934  21.787  52.532  1.00  0.00    -0.277 N 
HETATM    6  H   UNL     1       7.882  21.655  51.528  1.00  0.00     0.189 HD
HETATM    7  N   UNL     1       8.119  20.704  53.305  1.00  0.00    -0.168 NA
HETATM    8  C   UNL     1       8.142  21.205  54.563  1.00  0.00     0.156 A 
HETATM    9  C   UNL     1       7.634  24.274  52.782  1.00  0.00     0.034 A 
HETATM   10  C   UNL     1       7.572  25.268  53.766  1.00  0.00     0.032 A 
ENDROOT
BRANCH   1  11
HETATM   11  N   UNL     1       7.610  26.058  56.026  1.00  0.00    -0.327 N 
HETATM   12  C   UNL     1       6.494  26.471  56.732  1.00  0.00     0.222 C 
HETATM   13  O   UNL     1       5.399  25.924  56.765  1.00  0.00    -0.273 OA
HETATM   14  H   UNL     1       8.461  26.582  56.181  1.00  0.00     0.169 HD
BRANCH  12  15
HETATM   15  C   UNL     1       6.733  27.761  57.497  1.00  0.00     0.112 C 
BRANCH  15  16
HETATM   16  C   UNL     1       7.187  28.896  56.559  1.00  0.00     0.027 C 
BRANCH  16  17
HETATM   17  C   UNL     1       6.072  29.914  56.225  1.00  0.00     0.005 C 
HETATM   18  C   UNL     1       4.860  29.898  57.147  1.00  0.00     0.006 C 
ENDBRANCH  16  17
BRANCH  16  19
HETATM   19  C   UNL     1       8.456  29.592  57.033  1.00  0.00    -0.054 A 
HETATM   20  C   UNL     1       9.725  29.275  56.526  1.00  0.00     0.007 A 
HETATM   21  C   UNL     1      10.866  29.931  56.997  1.00  0.00     0.001 A 
HETATM   22  C   UNL     1      10.756  30.909  57.981  1.00  0.00     0.000 A 
HETATM   23  C   UNL     1       9.504  31.229  58.502  1.00  0.00     0.001 A 
HETATM   24  C   UNL     1       8.364  30.573  58.034  1.00  0.00     0.007 A 
ENDBRANCH  16  19
ENDBRANCH  15  16
ENDBRANCH  12  15
ENDBRANCH   1  11
BRANCH   8  25
HETATM   25  C   UNL     1       8.321  20.325  55.726  1.00  0.00     0.270 C 
HETATM   26  N   UNL     1       9.602  19.872  55.891  1.00  0.00    -0.365 N 
HETATM   27  H   UNL     1      10.308  20.160  55.224  1.00  0.00     0.159 HD
HETATM   28  H   UNL     1       9.818  19.257  56.659  1.00  0.00     0.159 HD
HETATM   29  O   UNL     1       7.429  19.999  56.501  1.00  0.00    -0.266 OA
ENDBRANCH   8  25
TORSDOF 6
ENDMDL
