MODEL 1
REMARK VINA RESULT:     -10.8      0.000      0.000
REMARK  7 active torsions:
REMARK  status: ('A' for Active; 'I' for Inactive)
REMARK    1  A    between atoms: C_9  and  C_10 
REMARK       I    between atoms: C_10  and  N_11 
REMARK    2  A    between atoms: N_11  and  C_12 
REMARK    3  A    between atoms: C_12  and  C_13 
REMARK    4  A    between atoms: C_12  and  C_22 
REMARK       I    between atoms: C_13  and  N_14 
REMARK    5  A    between atoms: N_14  and  C_15 
REMARK    6  A    between atoms: C_15  and  C_16 
REMARK    7  A    between atoms: C_22  and  C_23 
ROOT
HETATM    1  C   UNL     1       7.173  28.264  56.655  1.00  0.00     0.180 C 
ENDROOT
BRANCH   1   2
HETATM    2  N   UNL     1       7.450  26.851  56.324  1.00  0.00    -0.346 N 
HETATM    3  C   UNL     1       7.472  25.877  57.292  1.00  0.00     0.249 C 
HETATM    4  O   UNL     1       7.454  26.087  58.505  1.00  0.00    -0.271 OA
HETATM    5  H   UNL     1       7.138  26.590  55.396  1.00  0.00     0.163 HD
BRANCH   3   6
HETATM    6  C   UNL     1       7.443  24.427  56.798  1.00  0.00     0.281 C 
HETATM    7  N   UNL     1       8.470  23.622  57.572  1.00  0.00    -0.058 N 
HETATM    8  C   UNL     1       8.385  22.172  57.305  1.00  0.00     0.272 C 
HETATM    9  H   UNL     1       9.404  23.983  57.333  1.00  0.00     0.278 HD
HETATM   10  H   UNL     1       8.358  23.847  58.573  1.00  0.00     0.278 HD
HETATM   11  C   UNL     1       8.281  21.859  55.837  1.00  0.00    -0.026 A 
HETATM   12  C   UNL     1       7.957  22.856  54.893  1.00  0.00    -0.048 A 
HETATM   13  C   UNL     1       8.460  20.536  55.406  1.00  0.00     0.009 A 
HETATM   14  C   UNL     1       7.854  22.517  53.537  1.00  0.00     0.008 A 
HETATM   15  C   UNL     1       7.761  24.298  55.309  1.00  0.00     0.082 C 
HETATM   16  C   UNL     1       8.041  21.200  53.123  1.00  0.00     0.001 A 
HETATM   17  C   UNL     1       8.340  20.211  54.055  1.00  0.00     0.001 A 
ENDBRANCH   3   6
ENDBRANCH   1   2
BRANCH   1  18
HETATM   18  C   UNL     1       8.492  28.871  57.186  1.00  0.00     0.241 C 
HETATM   19  N   UNL     1       8.377  29.885  58.099  1.00  0.00    -0.353 N 
HETATM   20  H   UNL     1       7.479  30.216  58.434  1.00  0.00     0.162 HD
HETATM   21  O   UNL     1       9.588  28.395  56.871  1.00  0.00    -0.271 OA
BRANCH  19  22
HETATM   22  C   UNL     1       9.544  30.418  58.766  1.00  0.00     0.187 C 
BRANCH  22  23
HETATM   23  C   UNL     1       9.185  30.956  60.103  1.00  0.00     0.070 A 
HETATM   24  O   UNL     1       9.074  30.072  61.141  1.00  0.00    -0.325 OA
HETATM   25  C   UNL     1       8.736  30.794  62.241  1.00  0.00     0.142 A 
HETATM   26  C   UNL     1       8.638  32.130  61.931  1.00  0.00     0.027 A 
HETATM   27  C   UNL     1       8.931  32.237  60.551  1.00  0.00     0.036 A 
ENDBRANCH  22  23
ENDBRANCH  19  22
ENDBRANCH   1  18
BRANCH   1  28
HETATM   28  C   UNL     1       6.484  29.075  55.544  1.00  0.00     0.075 C 
BRANCH  28  29
HETATM   29  C   UNL     1       5.634  28.212  54.654  1.00  0.00    -0.028 A 
HETATM   30  C   UNL     1       6.081  27.284  53.658  1.00  0.00    -0.002 A 
HETATM   31  C   UNL     1       4.947  26.685  53.105  1.00  0.00     0.042 A 
HETATM   32  C   UNL     1       7.346  26.898  53.164  1.00  0.00     0.014 A 
HETATM   33  C   UNL     1       5.013  25.712  52.102  1.00  0.00     0.030 A 
HETATM   34  N   UNL     1       3.852  27.253  53.711  1.00  0.00    -0.365 N 
HETATM   35  C   UNL     1       6.279  25.344  51.637  1.00  0.00     0.002 A 
HETATM   36  C   UNL     1       7.430  25.931  52.155  1.00  0.00     0.001 A 
HETATM   37  H   UNL     1       2.892  27.031  53.482  1.00  0.00     0.165 HD
HETATM   38  C   UNL     1       4.251  28.169  54.647  1.00  0.00     0.096 A 
ENDBRANCH  28  29
ENDBRANCH   1  28
TORSDOF 7
ENDMDL
MODEL 2
REMARK VINA RESULT:     -10.6      1.779      8.296
REMARK  7 active torsions:
REMARK  status: ('A' for Active; 'I' for Inactive)
REMARK    1  A    between atoms: C_9  and  C_10 
REMARK       I    between atoms: C_10  and  N_11 
REMARK    2  A    between atoms: N_11  and  C_12 
REMARK    3  A    between atoms: C_12  and  C_13 
REMARK    4  A    between atoms: C_12  and  C_22 
REMARK       I    between atoms: C_13  and  N_14 
REMARK    5  A    between atoms: N_14  and  C_15 
REMARK    6  A    between atoms: C_15  and  C_16 
REMARK    7  A    between atoms: C_22  and  C_23 
ROOT
HETATM    1  C   UNL     1       8.410  27.807  57.022  1.00  0.00     0.180 C 
ENDROOT
BRANCH   1   2
HETATM    2  N   UNL     1       7.928  28.554  58.203  1.00  0.00    -0.346 N 
HETATM    3  C   UNL     1       8.513  29.734  58.595  1.00  0.00     0.249 C 
HETATM    4  O   UNL     1       9.569  30.181  58.146  1.00  0.00    -0.271 OA
HETATM    5  H   UNL     1       6.935  28.438  58.370  1.00  0.00     0.163 HD
BRANCH   3   6
HETATM    6  C   UNL     1       7.735  30.572  59.614  1.00  0.00     0.281 C 
HETATM    7  N   UNL     1       7.249  31.842  58.940  1.00  0.00    -0.058 N 
HETATM    8  C   UNL     1       6.325  32.625  59.784  1.00  0.00     0.272 C 
HETATM    9  H   UNL     1       8.074  32.402  58.684  1.00  0.00     0.278 HD
HETATM   10  H   UNL     1       6.830  31.578  58.035  1.00  0.00     0.278 HD
HETATM   11  C   UNL     1       6.825  32.784  61.195  1.00  0.00    -0.026 A 
HETATM   12  C   UNL     1       7.871  31.982  61.701  1.00  0.00    -0.048 A 
HETATM   13  C   UNL     1       6.203  33.716  62.040  1.00  0.00     0.009 A 
HETATM   14  C   UNL     1       8.293  32.153  63.026  1.00  0.00     0.008 A 
HETATM   15  C   UNL     1       8.576  30.969  60.826  1.00  0.00     0.082 C 
HETATM   16  C   UNL     1       7.669  33.087  63.851  1.00  0.00     0.001 A 
HETATM   17  C   UNL     1       6.625  33.864  63.360  1.00  0.00     0.001 A 
ENDBRANCH   3   6
ENDBRANCH   1   2
BRANCH   1  18
HETATM   18  C   UNL     1       8.039  26.323  57.245  1.00  0.00     0.241 C 
HETATM   19  N   UNL     1       8.931  25.392  56.783  1.00  0.00    -0.353 N 
HETATM   20  H   UNL     1       9.804  25.650  56.337  1.00  0.00     0.162 HD
HETATM   21  O   UNL     1       7.035  26.003  57.890  1.00  0.00    -0.271 OA
BRANCH  19  22
HETATM   22  C   UNL     1       8.752  23.987  57.071  1.00  0.00     0.187 C 
BRANCH  22  23
HETATM   23  C   UNL     1       8.480  23.225  55.826  1.00  0.00     0.070 A 
HETATM   24  O   UNL     1       9.536  22.622  55.199  1.00  0.00    -0.325 OA
HETATM   25  C   UNL     1       9.040  22.002  54.097  1.00  0.00     0.142 A 
HETATM   26  C   UNL     1       7.680  22.187  54.009  1.00  0.00     0.027 A 
HETATM   27  C   UNL     1       7.316  22.974  55.126  1.00  0.00     0.036 A 
ENDBRANCH  22  23
ENDBRANCH  19  22
ENDBRANCH   1  18
BRANCH   1  28
HETATM   28  C   UNL     1       7.987  28.387  55.662  1.00  0.00     0.075 C 
BRANCH  28  29
HETATM   29  C   UNL     1       6.759  27.714  55.114  1.00  0.00    -0.028 A 
HETATM   30  C   UNL     1       6.695  26.757  54.048  1.00  0.00    -0.002 A 
HETATM   31  C   UNL     1       5.357  26.381  53.905  1.00  0.00     0.042 A 
HETATM   32  C   UNL     1       7.646  26.177  53.182  1.00  0.00     0.014 A 
HETATM   33  C   UNL     1       4.928  25.446  52.958  1.00  0.00     0.030 A 
HETATM   34  N   UNL     1       4.631  27.107  54.819  1.00  0.00    -0.365 N 
HETATM   35  C   UNL     1       5.893  24.883  52.117  1.00  0.00     0.002 A 
HETATM   36  C   UNL     1       7.233  25.245  52.223  1.00  0.00     0.001 A 
HETATM   37  H   UNL     1       3.625  27.061  54.917  1.00  0.00     0.165 HD
HETATM   38  C   UNL     1       5.462  27.908  55.554  1.00  0.00     0.096 A 
ENDBRANCH  28  29
ENDBRANCH   1  28
TORSDOF 7
ENDMDL
MODEL 3
REMARK VINA RESULT:     -10.6      2.893      6.475
REMARK  7 active torsions:
REMARK  status: ('A' for Active; 'I' for Inactive)
REMARK    1  A    between atoms: C_9  and  C_10 
REMARK       I    between atoms: C_10  and  N_11 
REMARK    2  A    between atoms: N_11  and  C_12 
REMARK    3  A    between atoms: C_12  and  C_13 
REMARK    4  A    between atoms: C_12  and  C_22 
REMARK       I    between atoms: C_13  and  N_14 
REMARK    5  A    between atoms: N_14  and  C_15 
REMARK    6  A    between atoms: C_15  and  C_16 
REMARK    7  A    between atoms: C_22  and  C_23 
ROOT
HETATM    1  C   UNL     1       6.333  26.803  54.528  1.00  0.00     0.180 C 
ENDROOT
BRANCH   1   2
HETATM    2  N   UNL     1       5.802  27.352  53.263  1.00  0.00    -0.346 N 
HETATM    3  C   UNL     1       6.098  26.776  52.051  1.00  0.00     0.249 C 
HETATM    4  O   UNL     1       6.947  25.902  51.873  1.00  0.00    -0.271 OA
HETATM    5  H   UNL     1       4.899  27.797  53.369  1.00  0.00     0.163 HD
BRANCH   3   6
HETATM    6  C   UNL     1       5.243  27.222  50.860  1.00  0.00     0.281 C 
HETATM    7  N   UNL     1       4.015  27.947  51.380  1.00  0.00    -0.058 N 
HETATM    8  C   UNL     1       3.226  28.584  50.307  1.00  0.00     0.272 C 
HETATM    9  H   UNL     1       3.443  27.269  51.902  1.00  0.00     0.278 HD
HETATM   10  H   UNL     1       4.327  28.621  52.096  1.00  0.00     0.278 HD
HETATM   11  C   UNL     1       2.996  27.668  49.136  1.00  0.00    -0.026 A 
HETATM   12  C   UNL     1       3.748  26.484  48.968  1.00  0.00    -0.048 A 
HETATM   13  C   UNL     1       2.050  28.024  48.163  1.00  0.00     0.009 A 
HETATM   14  C   UNL     1       3.513  25.669  47.853  1.00  0.00     0.008 A 
HETATM   15  C   UNL     1       4.774  26.055  49.993  1.00  0.00     0.082 C 
HETATM   16  C   UNL     1       2.565  26.034  46.899  1.00  0.00     0.001 A 
HETATM   17  C   UNL     1       1.838  27.210  47.051  1.00  0.00     0.001 A 
ENDBRANCH   3   6
ENDBRANCH   1   2
BRANCH   1  18
HETATM   18  C   UNL     1       6.275  27.942  55.573  1.00  0.00     0.241 C 
HETATM   19  N   UNL     1       7.297  27.992  56.483  1.00  0.00    -0.353 N 
HETATM   20  H   UNL     1       8.071  27.336  56.469  1.00  0.00     0.162 HD
HETATM   21  O   UNL     1       5.400  28.812  55.523  1.00  0.00    -0.271 OA
BRANCH  19  22
HETATM   22  C   UNL     1       7.416  29.100  57.404  1.00  0.00     0.187 C 
BRANCH  22  23
HETATM   23  C   UNL     1       8.810  29.611  57.436  1.00  0.00     0.070 A 
HETATM   24  O   UNL     1       9.050  30.779  58.106  1.00  0.00    -0.325 OA
HETATM   25  C   UNL     1      10.378  31.038  57.987  1.00  0.00     0.142 A 
HETATM   26  C   UNL     1      10.999  30.050  57.260  1.00  0.00     0.027 A 
HETATM   27  C   UNL     1       9.989  29.127  56.905  1.00  0.00     0.036 A 
ENDBRANCH  22  23
ENDBRANCH  19  22
ENDBRANCH   1  18
BRANCH   1  28
HETATM   28  C   UNL     1       5.707  25.473  54.980  1.00  0.00     0.075 C 
BRANCH  28  29
HETATM   29  C   UNL     1       6.739  24.499  55.478  1.00  0.00    -0.028 A 
HETATM   30  C   UNL     1       7.368  23.444  54.739  1.00  0.00    -0.002 A 
HETATM   31  C   UNL     1       8.279  22.821  55.594  1.00  0.00     0.042 A 
HETATM   32  C   UNL     1       7.245  22.951  53.422  1.00  0.00     0.014 A 
HETATM   33  C   UNL     1       9.083  21.748  55.196  1.00  0.00     0.030 A 
HETATM   34  N   UNL     1       8.182  23.444  56.815  1.00  0.00    -0.365 N 
HETATM   35  C   UNL     1       8.945  21.284  53.884  1.00  0.00     0.002 A 
HETATM   36  C   UNL     1       8.036  21.872  53.010  1.00  0.00     0.001 A 
HETATM   37  H   UNL     1       8.707  23.177  57.637  1.00  0.00     0.165 HD
HETATM   38  C   UNL     1       7.263  24.457  56.758  1.00  0.00     0.096 A 
ENDBRANCH  28  29
ENDBRANCH   1  28
TORSDOF 7
ENDMDL
MODEL 4
REMARK VINA RESULT:     -10.5      2.446      6.375
REMARK  7 active torsions:
REMARK  status: ('A' for Active; 'I' for Inactive)
REMARK    1  A    between atoms: C_9  and  C_10 
REMARK       I    between atoms: C_10  and  N_11 
REMARK    2  A    between atoms: N_11  and  C_12 
REMARK    3  A    between atoms: C_12  and  C_13 
REMARK    4  A    between atoms: C_12  and  C_22 
REMARK       I    between atoms: C_13  and  N_14 
REMARK    5  A    between atoms: N_14  and  C_15 
REMARK    6  A    between atoms: C_15  and  C_16 
REMARK    7  A    between atoms: C_22  and  C_23 
ROOT
HETATM    1  C   UNL     1       6.071  28.413  55.866  1.00  0.00     0.180 C 
ENDROOT
BRANCH   1   2
HETATM    2  N   UNL     1       6.107  26.942  55.731  1.00  0.00    -0.346 N 
HETATM    3  C   UNL     1       7.019  26.318  54.915  1.00  0.00     0.249 C 
HETATM    4  O   UNL     1       7.745  26.889  54.100  1.00  0.00    -0.271 OA
HETATM    5  H   UNL     1       5.812  26.457  56.570  1.00  0.00     0.163 HD
BRANCH   3   6
HETATM    6  C   UNL     1       7.178  24.806  55.104  1.00  0.00     0.281 C 
HETATM    7  N   UNL     1       8.234  24.551  56.164  1.00  0.00    -0.058 N 
HETATM    8  C   UNL     1       8.322  23.130  56.558  1.00  0.00     0.272 C 
HETATM    9  H   UNL     1       9.136  24.886  55.802  1.00  0.00     0.278 HD
HETATM   10  H   UNL     1       8.034  25.171  56.964  1.00  0.00     0.278 HD
HETATM   11  C   UNL     1       8.347  22.202  55.374  1.00  0.00    -0.026 A 
HETATM   12  C   UNL     1       7.979  22.643  54.084  1.00  0.00    -0.048 A 
HETATM   13  C   UNL     1       8.695  20.856  55.566  1.00  0.00     0.009 A 
HETATM   14  C   UNL     1       8.001  21.740  53.012  1.00  0.00     0.008 A 
HETATM   15  C   UNL     1       7.603  24.086  53.826  1.00  0.00     0.082 C 
HETATM   16  C   UNL     1       8.354  20.409  53.219  1.00  0.00     0.001 A 
HETATM   17  C   UNL     1       8.697  19.967  54.493  1.00  0.00     0.001 A 
ENDBRANCH   3   6
ENDBRANCH   1   2
BRANCH   1  18
HETATM   18  C   UNL     1       5.125  28.944  54.763  1.00  0.00     0.241 C 
HETATM   19  N   UNL     1       5.639  29.012  53.495  1.00  0.00    -0.353 N 
HETATM   20  H   UNL     1       6.582  28.712  53.274  1.00  0.00     0.162 HD
HETATM   21  O   UNL     1       3.941  29.200  55.004  1.00  0.00    -0.271 OA
BRANCH  19  22
HETATM   22  C   UNL     1       4.796  29.351  52.371  1.00  0.00     0.187 C 
BRANCH  22  23
HETATM   23  C   UNL     1       4.820  28.272  51.351  1.00  0.00     0.070 A 
HETATM   24  O   UNL     1       5.188  27.017  51.753  1.00  0.00    -0.325 OA
HETATM   25  C   UNL     1       5.139  26.220  50.655  1.00  0.00     0.142 A 
HETATM   26  C   UNL     1       4.736  26.938  49.554  1.00  0.00     0.027 A 
HETATM   27  C   UNL     1       4.527  28.263  50.002  1.00  0.00     0.036 A 
ENDBRANCH  22  23
ENDBRANCH  19  22
ENDBRANCH   1  18
BRANCH   1  28
HETATM   28  C   UNL     1       5.775  28.934  57.282  1.00  0.00     0.075 C 
BRANCH  28  29
HETATM   29  C   UNL     1       6.840  29.874  57.776  1.00  0.00    -0.028 A 
HETATM   30  C   UNL     1       8.250  29.797  57.529  1.00  0.00    -0.002 A 
HETATM   31  C   UNL     1       8.844  30.895  58.155  1.00  0.00     0.042 A 
HETATM   32  C   UNL     1       9.084  28.893  56.836  1.00  0.00     0.014 A 
HETATM   33  C   UNL     1      10.220  31.144  58.108  1.00  0.00     0.030 A 
HETATM   34  N   UNL     1       7.844  31.591  58.791  1.00  0.00    -0.365 N 
HETATM   35  C   UNL     1      11.022  30.236  57.410  1.00  0.00     0.002 A 
HETATM   36  C   UNL     1      10.465  29.123  56.787  1.00  0.00     0.001 A 
HETATM   37  H   UNL     1       7.991  32.418  59.354  1.00  0.00     0.165 HD
HETATM   38  C   UNL     1       6.635  30.989  58.568  1.00  0.00     0.096 A 
ENDBRANCH  28  29
ENDBRANCH   1  28
TORSDOF 7
ENDMDL
MODEL 5
REMARK VINA RESULT:     -10.4      2.390      6.887
REMARK  7 active torsions:
REMARK  status: ('A' for Active; 'I' for Inactive)
REMARK    1  A    between atoms: C_9  and  C_10 
REMARK       I    between atoms: C_10  and  N_11 
REMARK    2  A    between atoms: N_11  and  C_12 
REMARK    3  A    between atoms: C_12  and  C_13 
REMARK    4  A    between atoms: C_12  and  C_22 
REMARK       I    between atoms: C_13  and  N_14 
REMARK    5  A    between atoms: N_14  and  C_15 
REMARK    6  A    between atoms: C_15  and  C_16 
REMARK    7  A    between atoms: C_22  and  C_23 
ROOT
HETATM    1  C   UNL     1       6.234  28.552  55.470  1.00  0.00     0.180 C 
ENDROOT
BRANCH   1   2
HETATM    2  N   UNL     1       6.218  27.075  55.455  1.00  0.00    -0.346 N 
HETATM    3  C   UNL     1       7.027  26.356  54.609  1.00  0.00     0.249 C 
HETATM    4  O   UNL     1       7.684  26.835  53.684  1.00  0.00    -0.271 OA
HETATM    5  H   UNL     1       5.993  26.669  56.355  1.00  0.00     0.163 HD
BRANCH   3   6
HETATM    6  C   UNL     1       7.163  24.859  54.907  1.00  0.00     0.281 C 
HETATM    7  N   UNL     1       8.154  24.671  56.041  1.00  0.00    -0.058 N 
HETATM    8  C   UNL     1       8.209  23.279  56.532  1.00  0.00     0.272 C 
HETATM    9  H   UNL     1       9.079  24.978  55.709  1.00  0.00     0.278 HD
HETATM   10  H   UNL     1       7.914  25.344  56.785  1.00  0.00     0.278 HD
HETATM   11  C   UNL     1       8.295  22.275  55.415  1.00  0.00    -0.026 A 
HETATM   12  C   UNL     1       8.005  22.631  54.080  1.00  0.00    -0.048 A 
HETATM   13  C   UNL     1       8.621  20.943  55.716  1.00  0.00     0.009 A 
HETATM   14  C   UNL     1       8.081  21.659  53.073  1.00  0.00     0.008 A 
HETATM   15  C   UNL     1       7.655  24.054  53.706  1.00  0.00     0.082 C 
HETATM   16  C   UNL     1       8.412  20.342  53.387  1.00  0.00     0.001 A 
HETATM   17  C   UNL     1       8.678  19.984  54.705  1.00  0.00     0.001 A 
ENDBRANCH   3   6
ENDBRANCH   1   2
BRANCH   1  18
HETATM   18  C   UNL     1       5.192  29.026  54.429  1.00  0.00     0.241 C 
HETATM   19  N   UNL     1       5.641  29.192  53.146  1.00  0.00    -0.353 N 
HETATM   20  H   UNL     1       6.598  28.997  52.875  1.00  0.00     0.162 HD
HETATM   21  O   UNL     1       4.001  29.152  54.728  1.00  0.00    -0.271 OA
BRANCH  19  22
HETATM   22  C   UNL     1       4.719  29.487  52.071  1.00  0.00     0.187 C 
BRANCH  22  23
HETATM   23  C   UNL     1       4.689  28.377  51.086  1.00  0.00     0.070 A 
HETATM   24  O   UNL     1       5.092  27.138  51.503  1.00  0.00    -0.325 OA
HETATM   25  C   UNL     1       4.982  26.305  50.435  1.00  0.00     0.142 A 
HETATM   26  C   UNL     1       4.503  26.986  49.340  1.00  0.00     0.027 A 
HETATM   27  C   UNL     1       4.311  28.323  49.759  1.00  0.00     0.036 A 
ENDBRANCH  22  23
ENDBRANCH  19  22
ENDBRANCH   1  18
BRANCH   1  28
HETATM   28  C   UNL     1       6.102  29.194  56.862  1.00  0.00     0.075 C 
BRANCH  28  29
HETATM   29  C   UNL     1       7.419  29.696  57.384  1.00  0.00    -0.028 A 
HETATM   30  C   UNL     1       7.633  30.679  58.405  1.00  0.00    -0.002 A 
HETATM   31  C   UNL     1       9.012  30.802  58.584  1.00  0.00     0.042 A 
HETATM   32  C   UNL     1       6.784  31.487  59.192  1.00  0.00     0.014 A 
HETATM   33  C   UNL     1       9.583  31.673  59.519  1.00  0.00     0.030 A 
HETATM   34  N   UNL     1       9.616  29.957  57.684  1.00  0.00    -0.365 N 
HETATM   35  C   UNL     1       8.718  32.456  60.289  1.00  0.00     0.002 A 
HETATM   36  C   UNL     1       7.338  32.370  60.126  1.00  0.00     0.001 A 
HETATM   37  H   UNL     1      10.617  29.865  57.568  1.00  0.00     0.165 HD
HETATM   38  C   UNL     1       8.670  29.284  56.959  1.00  0.00     0.096 A 
ENDBRANCH  28  29
ENDBRANCH   1  28
TORSDOF 7
ENDMDL
MODEL 6
REMARK VINA RESULT:     -10.3      2.622      8.302
REMARK  7 active torsions:
REMARK  status: ('A' for Active; 'I' for Inactive)
REMARK    1  A    between atoms: C_9  and  C_10 
REMARK       I    between atoms: C_10  and  N_11 
REMARK    2  A    between atoms: N_11  and  C_12 
REMARK    3  A    between atoms: C_12  and  C_13 
REMARK    4  A    between atoms: C_12  and  C_22 
REMARK       I    between atoms: C_13  and  N_14 
REMARK    5  A    between atoms: N_14  and  C_15 
REMARK    6  A    between atoms: C_15  and  C_16 
REMARK    7  A    between atoms: C_22  and  C_23 
ROOT
HETATM    1  C   UNL     1       6.580  26.124  53.976  1.00  0.00     0.180 C 
ENDROOT
BRANCH   1   2
HETATM    2  N   UNL     1       7.044  27.398  54.562  1.00  0.00    -0.346 N 
HETATM    3  C   UNL     1       6.665  27.789  55.823  1.00  0.00     0.249 C 
HETATM    4  O   UNL     1       5.792  27.243  56.499  1.00  0.00    -0.271 OA
HETATM    5  H   UNL     1       7.960  27.679  54.234  1.00  0.00     0.163 HD
BRANCH   3   6
HETATM    6  C   UNL     1       7.455  28.946  56.443  1.00  0.00     0.281 C 
HETATM    7  N   UNL     1       8.849  28.459  56.793  1.00  0.00    -0.058 N 
HETATM    8  C   UNL     1       9.750  29.549  57.216  1.00  0.00     0.272 C 
HETATM    9  H   UNL     1       8.762  27.749  57.532  1.00  0.00     0.278 HD
HETATM   10  H   UNL     1       9.214  27.937  55.981  1.00  0.00     0.278 HD
HETATM   11  C   UNL     1       9.110  30.473  58.217  1.00  0.00    -0.026 A 
HETATM   12  C   UNL     1       7.715  30.471  58.434  1.00  0.00    -0.048 A 
HETATM   13  C   UNL     1       9.913  31.390  58.913  1.00  0.00     0.009 A 
HETATM   14  C   UNL     1       7.159  31.360  59.364  1.00  0.00     0.008 A 
HETATM   15  C   UNL     1       6.810  29.496  57.713  1.00  0.00     0.082 C 
HETATM   16  C   UNL     1       7.970  32.261  60.051  1.00  0.00     0.001 A 
HETATM   17  C   UNL     1       9.343  32.278  59.824  1.00  0.00     0.001 A 
ENDBRANCH   3   6
ENDBRANCH   1   2
BRANCH   1  18
HETATM   18  C   UNL     1       5.532  26.478  52.895  1.00  0.00     0.241 C 
HETATM   19  N   UNL     1       5.931  26.353  51.590  1.00  0.00    -0.353 N 
HETATM   20  H   UNL     1       6.855  26.024  51.333  1.00  0.00     0.162 HD
HETATM   21  O   UNL     1       4.371  26.766  53.199  1.00  0.00    -0.271 OA
BRANCH  19  22
HETATM   22  C   UNL     1       4.987  26.515  50.508  1.00  0.00     0.187 C 
BRANCH  22  23
HETATM   23  C   UNL     1       5.114  27.862  49.896  1.00  0.00     0.070 A 
HETATM   24  O   UNL     1       5.694  28.852  50.640  1.00  0.00    -0.325 OA
HETATM   25  C   UNL     1       5.689  29.976  49.876  1.00  0.00     0.142 A 
HETATM   26  C   UNL     1       5.125  29.722  48.648  1.00  0.00     0.027 A 
HETATM   27  C   UNL     1       4.756  28.357  48.658  1.00  0.00     0.036 A 
ENDBRANCH  22  23
ENDBRANCH  19  22
ENDBRANCH   1  18
BRANCH   1  28
HETATM   28  C   UNL     1       7.696  25.171  53.512  1.00  0.00     0.075 C 
BRANCH  28  29
HETATM   29  C   UNL     1       7.993  24.105  54.531  1.00  0.00    -0.028 A 
HETATM   30  C   UNL     1       8.194  22.707  54.291  1.00  0.00    -0.002 A 
HETATM   31  C   UNL     1       8.474  22.109  55.522  1.00  0.00     0.042 A 
HETATM   32  C   UNL     1       8.159  21.885  53.144  1.00  0.00     0.014 A 
HETATM   33  C   UNL     1       8.737  20.741  55.660  1.00  0.00     0.030 A 
HETATM   34  N   UNL     1       8.408  23.095  56.477  1.00  0.00    -0.365 N 
HETATM   35  C   UNL     1       8.702  19.953  54.507  1.00  0.00     0.002 A 
HETATM   36  C   UNL     1       8.412  20.513  53.266  1.00  0.00     0.001 A 
HETATM   37  H   UNL     1       8.536  22.940  57.469  1.00  0.00     0.165 HD
HETATM   38  C   UNL     1       8.123  24.300  55.894  1.00  0.00     0.096 A 
ENDBRANCH  28  29
ENDBRANCH   1  28
TORSDOF 7
ENDMDL
MODEL 7
REMARK VINA RESULT:     -10.3      2.436      8.445
REMARK  7 active torsions:
REMARK  status: ('A' for Active; 'I' for Inactive)
REMARK    1  A    between atoms: C_9  and  C_10 
REMARK       I    between atoms: C_10  and  N_11 
REMARK    2  A    between atoms: N_11  and  C_12 
REMARK    3  A    between atoms: C_12  and  C_13 
REMARK    4  A    between atoms: C_12  and  C_22 
REMARK       I    between atoms: C_13  and  N_14 
REMARK    5  A    between atoms: N_14  and  C_15 
REMARK    6  A    between atoms: C_15  and  C_16 
REMARK    7  A    between atoms: C_22  and  C_23 
ROOT
HETATM    1  C   UNL     1       6.183  26.674  55.191  1.00  0.00     0.180 C 
ENDROOT
BRANCH   1   2
HETATM    2  N   UNL     1       6.374  27.410  56.458  1.00  0.00    -0.346 N 
HETATM    3  C   UNL     1       7.128  28.556  56.516  1.00  0.00     0.249 C 
HETATM    4  O   UNL     1       7.849  28.974  55.609  1.00  0.00    -0.271 OA
HETATM    5  H   UNL     1       5.586  27.328  57.090  1.00  0.00     0.163 HD
BRANCH   3   6
HETATM    6  C   UNL     1       6.987  29.399  57.788  1.00  0.00     0.281 C 
HETATM    7  N   UNL     1       6.441  30.765  57.415  1.00  0.00    -0.058 N 
HETATM    8  C   UNL     1       6.086  31.583  58.592  1.00  0.00     0.272 C 
HETATM    9  H   UNL     1       7.144  31.243  56.837  1.00  0.00     0.278 HD
HETATM   10  H   UNL     1       5.642  30.622  56.778  1.00  0.00     0.278 HD
HETATM   11  C   UNL     1       7.159  31.575  59.647  1.00  0.00    -0.026 A 
HETATM   12  C   UNL     1       8.198  30.620  59.633  1.00  0.00    -0.048 A 
HETATM   13  C   UNL     1       7.095  32.505  60.695  1.00  0.00     0.009 A 
HETATM   14  C   UNL     1       9.167  30.638  60.645  1.00  0.00     0.008 A 
HETATM   15  C   UNL     1       8.313  29.601  58.520  1.00  0.00     0.082 C 
HETATM   16  C   UNL     1       9.093  31.572  61.676  1.00  0.00     0.001 A 
HETATM   17  C   UNL     1       8.059  32.501  61.703  1.00  0.00     0.001 A 
ENDBRANCH   3   6
ENDBRANCH   1   2
BRANCH   1  18
HETATM   18  C   UNL     1       5.475  27.638  54.211  1.00  0.00     0.241 C 
HETATM   19  N   UNL     1       6.173  27.991  53.087  1.00  0.00    -0.353 N 
HETATM   20  H   UNL     1       7.099  27.628  52.885  1.00  0.00     0.162 HD
HETATM   21  O   UNL     1       4.305  27.990  54.392  1.00  0.00    -0.271 OA
BRANCH  19  22
HETATM   22  C   UNL     1       5.548  28.765  52.038  1.00  0.00     0.187 C 
BRANCH  22  23
HETATM   23  C   UNL     1       5.040  27.877  50.961  1.00  0.00     0.070 A 
HETATM   24  O   UNL     1       4.187  28.414  50.036  1.00  0.00    -0.325 OA
HETATM   25  C   UNL     1       3.862  27.417  49.172  1.00  0.00     0.142 A 
HETATM   26  C   UNL     1       4.501  26.250  49.519  1.00  0.00     0.027 A 
HETATM   27  C   UNL     1       5.264  26.546  50.672  1.00  0.00     0.036 A 
ENDBRANCH  22  23
ENDBRANCH  19  22
ENDBRANCH   1  18
BRANCH   1  28
HETATM   28  C   UNL     1       7.443  25.990  54.635  1.00  0.00     0.075 C 
BRANCH  28  29
HETATM   29  C   UNL     1       7.678  24.640  55.254  1.00  0.00    -0.028 A 
HETATM   30  C   UNL     1       7.777  23.379  54.578  1.00  0.00    -0.002 A 
HETATM   31  C   UNL     1       8.031  22.406  55.547  1.00  0.00     0.042 A 
HETATM   32  C   UNL     1       7.668  22.968  53.233  1.00  0.00     0.014 A 
HETATM   33  C   UNL     1       8.198  21.052  55.238  1.00  0.00     0.030 A 
HETATM   34  N   UNL     1       8.047  23.040  56.766  1.00  0.00    -0.365 N 
HETATM   35  C   UNL     1       8.091  20.673  53.896  1.00  0.00     0.002 A 
HETATM   36  C   UNL     1       7.824  21.615  52.907  1.00  0.00     0.001 A 
HETATM   37  H   UNL     1       8.178  22.572  57.653  1.00  0.00     0.165 HD
HETATM   38  C   UNL     1       7.840  24.383  56.603  1.00  0.00     0.096 A 
ENDBRANCH  28  29
ENDBRANCH   1  28
TORSDOF 7
ENDMDL
MODEL 8
REMARK VINA RESULT:     -10.3      3.037      4.619
REMARK  7 active torsions:
REMARK  status: ('A' for Active; 'I' for Inactive)
REMARK    1  A    between atoms: C_9  and  C_10 
REMARK       I    between atoms: C_10  and  N_11 
REMARK    2  A    between atoms: N_11  and  C_12 
REMARK    3  A    between atoms: C_12  and  C_13 
REMARK    4  A    between atoms: C_12  and  C_22 
REMARK       I    between atoms: C_13  and  N_14 
REMARK    5  A    between atoms: N_14  and  C_15 
REMARK    6  A    between atoms: C_15  and  C_16 
REMARK    7  A    between atoms: C_22  and  C_23 
ROOT
HETATM    1  C   UNL     1       3.966  27.778  52.792  1.00  0.00     0.180 C 
ENDROOT
BRANCH   1   2
HETATM    2  N   UNL     1       4.449  26.410  53.072  1.00  0.00    -0.346 N 
HETATM    3  C   UNL     1       5.773  26.156  53.335  1.00  0.00     0.249 C 
HETATM    4  O   UNL     1       6.690  26.965  53.189  1.00  0.00    -0.271 OA
HETATM    5  H   UNL     1       3.756  25.825  53.522  1.00  0.00     0.163 HD
BRANCH   3   6
HETATM    6  C   UNL     1       6.097  24.779  53.924  1.00  0.00     0.281 C 
HETATM    7  N   UNL     1       6.839  24.966  55.235  1.00  0.00    -0.058 N 
HETATM    8  C   UNL     1       7.025  23.702  55.976  1.00  0.00     0.272 C 
HETATM    9  H   UNL     1       7.746  25.405  55.028  1.00  0.00     0.278 HD
HETATM   10  H   UNL     1       6.332  25.676  55.785  1.00  0.00     0.278 HD
HETATM   11  C   UNL     1       7.520  22.584  55.099  1.00  0.00    -0.026 A 
HETATM   12  C   UNL     1       7.468  22.675  53.691  1.00  0.00    -0.048 A 
HETATM   13  C   UNL     1       7.997  21.407  55.694  1.00  0.00     0.009 A 
HETATM   14  C   UNL     1       7.924  21.603  52.912  1.00  0.00     0.008 A 
HETATM   15  C   UNL     1       6.967  23.926  53.003  1.00  0.00     0.082 C 
HETATM   16  C   UNL     1       8.401  20.442  53.519  1.00  0.00     0.001 A 
HETATM   17  C   UNL     1       8.435  20.343  54.906  1.00  0.00     0.001 A 
ENDBRANCH   3   6
ENDBRANCH   1   2
BRANCH   1  18
HETATM   18  C   UNL     1       4.232  28.619  54.063  1.00  0.00     0.241 C 
HETATM   19  N   UNL     1       4.284  27.937  55.250  1.00  0.00    -0.353 N 
HETATM   20  H   UNL     1       4.177  26.930  55.303  1.00  0.00     0.162 HD
HETATM   21  O   UNL     1       4.479  29.827  53.990  1.00  0.00    -0.271 OA
BRANCH  19  22
HETATM   22  C   UNL     1       4.673  28.604  56.471  1.00  0.00     0.187 C 
BRANCH  22  23
HETATM   23  C   UNL     1       6.124  28.423  56.730  1.00  0.00     0.070 A 
HETATM   24  O   UNL     1       6.525  27.279  57.364  1.00  0.00    -0.325 OA
HETATM   25  C   UNL     1       7.875  27.348  57.490  1.00  0.00     0.142 A 
HETATM   26  C   UNL     1       8.353  28.514  56.938  1.00  0.00     0.027 A 
HETATM   27  C   UNL     1       7.224  29.208  56.445  1.00  0.00     0.036 A 
ENDBRANCH  22  23
ENDBRANCH  19  22
ENDBRANCH   1  18
BRANCH   1  28
HETATM   28  C   UNL     1       4.478  28.399  51.482  1.00  0.00     0.075 C 
BRANCH  28  29
HETATM   29  C   UNL     1       3.423  28.414  50.410  1.00  0.00    -0.028 A 
HETATM   30  C   UNL     1       3.295  27.511  49.304  1.00  0.00    -0.002 A 
HETATM   31  C   UNL     1       2.154  27.885  48.590  1.00  0.00     0.042 A 
HETATM   32  C   UNL     1       4.044  26.411  48.834  1.00  0.00     0.014 A 
HETATM   33  C   UNL     1       1.717  27.207  47.447  1.00  0.00     0.030 A 
HETATM   34  N   UNL     1       1.631  28.993  49.212  1.00  0.00    -0.365 N 
HETATM   35  C   UNL     1       2.475  26.118  47.008  1.00  0.00     0.002 A 
HETATM   36  C   UNL     1       3.625  25.727  47.687  1.00  0.00     0.001 A 
HETATM   37  H   UNL     1       0.817  29.499  48.889  1.00  0.00     0.165 HD
HETATM   38  C   UNL     1       2.382  29.319  50.308  1.00  0.00     0.096 A 
ENDBRANCH  28  29
ENDBRANCH   1  28
TORSDOF 7
ENDMDL
MODEL 9
REMARK VINA RESULT:     -10.1      3.198      8.781
REMARK  7 active torsions:
REMARK  status: ('A' for Active; 'I' for Inactive)
REMARK    1  A    between atoms: C_9  and  C_10 
REMARK       I    between atoms: C_10  and  N_11 
REMARK    2  A    between atoms: N_11  and  C_12 
REMARK    3  A    between atoms: C_12  and  C_13 
REMARK    4  A    between atoms: C_12  and  C_22 
REMARK       I    between atoms: C_13  and  N_14 
REMARK    5  A    between atoms: N_14  and  C_15 
REMARK    6  A    between atoms: C_15  and  C_16 
REMARK    7  A    between atoms: C_22  and  C_23 
ROOT
HETATM    1  C   UNL     1       6.180  27.207  52.872  1.00  0.00     0.180 C 
ENDROOT
BRANCH   1   2
HETATM    2  N   UNL     1       6.849  28.187  53.753  1.00  0.00    -0.346 N 
HETATM    3  C   UNL     1       6.237  28.670  54.884  1.00  0.00     0.249 C 
HETATM    4  O   UNL     1       5.053  28.498  55.176  1.00  0.00    -0.271 OA
HETATM    5  H   UNL     1       7.857  28.092  53.763  1.00  0.00     0.163 HD
BRANCH   3   6
HETATM    6  C   UNL     1       7.136  29.414  55.878  1.00  0.00     0.281 C 
HETATM    7  N   UNL     1       8.079  28.418  56.529  1.00  0.00    -0.058 N 
HETATM    8  C   UNL     1       9.115  29.066  57.358  1.00  0.00     0.272 C 
HETATM    9  H   UNL     1       7.516  27.767  57.091  1.00  0.00     0.278 HD
HETATM   10  H   UNL     1       8.481  27.830  55.783  1.00  0.00     0.278 HD
HETATM   11  C   UNL     1       8.551  30.123  58.269  1.00  0.00    -0.026 A 
HETATM   12  C   UNL     1       7.253  30.644  58.077  1.00  0.00    -0.048 A 
HETATM   13  C   UNL     1       9.352  30.637  59.300  1.00  0.00     0.009 A 
HETATM   14  C   UNL     1       6.774  31.640  58.938  1.00  0.00     0.008 A 
HETATM   15  C   UNL     1       6.350  30.117  56.983  1.00  0.00     0.082 C 
HETATM   16  C   UNL     1       7.580  32.136  59.961  1.00  0.00     0.001 A 
HETATM   17  C   UNL     1       8.867  31.638  60.140  1.00  0.00     0.001 A 
ENDBRANCH   3   6
ENDBRANCH   1   2
BRANCH   1  18
HETATM   18  C   UNL     1       5.711  27.976  51.615  1.00  0.00     0.241 C 
HETATM   19  N   UNL     1       5.588  27.249  50.461  1.00  0.00    -0.353 N 
HETATM   20  H   UNL     1       5.771  26.252  50.425  1.00  0.00     0.162 HD
HETATM   21  O   UNL     1       5.374  29.163  51.680  1.00  0.00    -0.271 OA
BRANCH  19  22
HETATM   22  C   UNL     1       5.016  27.837  49.271  1.00  0.00     0.187 C 
BRANCH  22  23
HETATM   23  C   UNL     1       4.168  26.852  48.554  1.00  0.00     0.070 A 
HETATM   24  O   UNL     1       3.963  25.634  49.141  1.00  0.00    -0.325 OA
HETATM   25  C   UNL     1       3.172  24.918  48.300  1.00  0.00     0.142 A 
HETATM   26  C   UNL     1       2.854  25.659  47.186  1.00  0.00     0.027 A 
HETATM   27  C   UNL     1       3.495  26.910  47.349  1.00  0.00     0.036 A 
ENDBRANCH  22  23
ENDBRANCH  19  22
ENDBRANCH   1  18
BRANCH   1  28
HETATM   28  C   UNL     1       6.983  25.926  52.589  1.00  0.00     0.075 C 
BRANCH  28  29
HETATM   29  C   UNL     1       6.979  24.981  53.759  1.00  0.00    -0.028 A 
HETATM   30  C   UNL     1       7.404  23.612  53.773  1.00  0.00    -0.002 A 
HETATM   31  C   UNL     1       7.253  23.142  55.079  1.00  0.00     0.042 A 
HETATM   32  C   UNL     1       7.898  22.721  52.796  1.00  0.00     0.014 A 
HETATM   33  C   UNL     1       7.586  21.837  55.460  1.00  0.00     0.030 A 
HETATM   34  N   UNL     1       6.721  24.168  55.822  1.00  0.00    -0.365 N 
HETATM   35  C   UNL     1       8.079  20.978  54.473  1.00  0.00     0.002 A 
HETATM   36  C   UNL     1       8.228  21.410  53.159  1.00  0.00     0.001 A 
HETATM   37  H   UNL     1       6.476  24.099  56.801  1.00  0.00     0.165 HD
HETATM   38  C   UNL     1       6.555  25.280  55.041  1.00  0.00     0.096 A 
ENDBRANCH  28  29
ENDBRANCH   1  28
TORSDOF 7
ENDMDL
MODEL 10
REMARK VINA RESULT:     -10.1      3.286      7.318
REMARK  7 active torsions:
REMARK  status: ('A' for Active; 'I' for Inactive)
REMARK    1  A    between atoms: C_9  and  C_10 
REMARK       I    between atoms: C_10  and  N_11 
REMARK    2  A    between atoms: N_11  and  C_12 
REMARK    3  A    between atoms: C_12  and  C_13 
REMARK    4  A    between atoms: C_12  and  C_22 
REMARK       I    between atoms: C_13  and  N_14 
REMARK    5  A    between atoms: N_14  and  C_15 
REMARK    6  A    between atoms: C_15  and  C_16 
REMARK    7  A    between atoms: C_22  and  C_23 
ROOT
HETATM    1  C   UNL     1       5.265  28.401  53.334  1.00  0.00     0.180 C 
ENDROOT
BRANCH   1   2
HETATM    2  N   UNL     1       5.464  26.944  53.473  1.00  0.00    -0.346 N 
HETATM    3  C   UNL     1       6.719  26.401  53.612  1.00  0.00     0.249 C 
HETATM    4  O   UNL     1       7.775  27.013  53.453  1.00  0.00    -0.271 OA
HETATM    5  H   UNL     1       4.692  26.477  53.933  1.00  0.00     0.163 HD
BRANCH   3   6
HETATM    6  C   UNL     1       6.780  24.940  54.071  1.00  0.00     0.281 C 
HETATM    7  N   UNL     1       7.451  24.879  55.430  1.00  0.00    -0.058 N 
HETATM    8  C   UNL     1       7.384  23.537  56.045  1.00  0.00     0.272 C 
HETATM    9  H   UNL     1       8.428  25.180  55.317  1.00  0.00     0.278 HD
HETATM   10  H   UNL     1       7.027  25.607  56.024  1.00  0.00     0.278 HD
HETATM   11  C   UNL     1       7.754  22.441  55.083  1.00  0.00    -0.026 A 
HETATM   12  C   UNL     1       7.812  22.670  53.691  1.00  0.00    -0.048 A 
HETATM   13  C   UNL     1       7.998  21.151  55.578  1.00  0.00     0.009 A 
HETATM   14  C   UNL     1       8.145  21.616  52.830  1.00  0.00     0.008 A 
HETATM   15  C   UNL     1       7.564  24.046  53.112  1.00  0.00     0.082 C 
HETATM   16  C   UNL     1       8.390  20.341  53.337  1.00  0.00     0.001 A 
HETATM   17  C   UNL     1       8.314  20.108  54.707  1.00  0.00     0.001 A 
ENDBRANCH   3   6
ENDBRANCH   1   2
BRANCH   1  18
HETATM   18  C   UNL     1       5.036  28.684  51.831  1.00  0.00     0.241 C 
HETATM   19  N   UNL     1       3.821  28.318  51.316  1.00  0.00    -0.353 N 
HETATM   20  H   UNL     1       3.092  27.901  51.886  1.00  0.00     0.162 HD
HETATM   21  O   UNL     1       5.873  29.296  51.161  1.00  0.00    -0.271 OA
BRANCH  19  22
HETATM   22  C   UNL     1       3.451  28.672  49.965  1.00  0.00     0.187 C 
BRANCH  22  23
HETATM   23  C   UNL     1       3.343  27.460  49.114  1.00  0.00     0.070 A 
HETATM   24  O   UNL     1       2.244  27.338  48.308  1.00  0.00    -0.325 OA
HETATM   25  C   UNL     1       2.370  26.159  47.644  1.00  0.00     0.142 A 
HETATM   26  C   UNL     1       3.537  25.526  48.000  1.00  0.00     0.027 A 
HETATM   27  C   UNL     1       4.168  26.365  48.948  1.00  0.00     0.036 A 
ENDBRANCH  22  23
ENDBRANCH  19  22
ENDBRANCH   1  18
BRANCH   1  28
HETATM   28  C   UNL     1       4.215  29.011  54.279  1.00  0.00     0.075 C 
BRANCH  28  29
HETATM   29  C   UNL     1       4.835  29.906  55.316  1.00  0.00    -0.028 A 
HETATM   30  C   UNL     1       5.812  29.548  56.302  1.00  0.00    -0.002 A 
HETATM   31  C   UNL     1       6.119  30.703  57.024  1.00  0.00     0.042 A 
HETATM   32  C   UNL     1       6.462  28.347  56.657  1.00  0.00     0.014 A 
HETATM   33  C   UNL     1       7.053  30.722  58.066  1.00  0.00     0.030 A 
HETATM   34  N   UNL     1       5.334  31.715  56.526  1.00  0.00    -0.365 N 
HETATM   35  C   UNL     1       7.686  29.519  58.392  1.00  0.00     0.002 A 
HETATM   36  C   UNL     1       7.393  28.346  57.703  1.00  0.00     0.001 A 
HETATM   37  H   UNL     1       5.324  32.661  56.884  1.00  0.00     0.165 HD
HETATM   38  C   UNL     1       4.561  31.250  55.496  1.00  0.00     0.096 A 
ENDBRANCH  28  29
ENDBRANCH   1  28
TORSDOF 7
ENDMDL
