MODEL 1
REMARK VINA RESULT:      -8.9      0.000      0.000
REMARK  6 active torsions:
REMARK  status: ('A' for Active; 'I' for Inactive)
REMARK    1  A    between atoms: C_3  and  C_4 
REMARK    2  A    between atoms: C_9  and  C_10 
REMARK    3  A    between atoms: C_10  and  N_11 
REMARK    4  A    between atoms: C_13  and  C_14 
REMARK    5  A    between atoms: C_15  and  O_16 
REMARK    6  A    between atoms: C_20  and  C_21 
ROOT
HETATM    1  N   UNL     1       7.072  25.677  57.024  1.00  0.00    -0.394 N 
HETATM    2  H   UNL     1       6.062  25.526  56.912  1.00  0.00     0.159 HD
HETATM    3  C   UNL     1       7.490  26.858  57.309  1.00  0.00     0.101 C 
ENDROOT
BRANCH   1   4
HETATM    4  C   UNL     1       7.892  24.454  56.895  1.00  0.00     0.157 C 
BRANCH   4   5
HETATM    5  C   UNL     1       7.890  23.981  55.468  1.00  0.00    -0.040 A 
HETATM    6  C   UNL     1       8.037  22.616  55.167  1.00  0.00     0.025 A 
HETATM    7  C   UNL     1       8.000  22.156  53.838  1.00  0.00     0.048 A 
HETATM    8  C   UNL     1       7.815  23.084  52.806  1.00  0.00     0.016 A 
HETATM    9  C   UNL     1       7.668  24.441  53.093  1.00  0.00     0.001 A 
HETATM   10  C   UNL     1       7.705  24.889  54.414  1.00  0.00     0.009 A 
BRANCH   7  11
HETATM   11  C   UNL     1       8.173  20.681  53.546  1.00  0.00     0.417 C 
HETATM   12  F   UNL     1       9.316  20.382  52.876  1.00  0.00    -0.166 F 
HETATM   13  F   UNL     1       8.181  19.935  54.682  1.00  0.00    -0.166 F 
HETATM   14  F   UNL     1       7.147  20.201  52.789  1.00  0.00    -0.166 F 
ENDBRANCH   7  11
ENDBRANCH   4   5
ENDBRANCH   1   4
BRANCH   3  15
HETATM   15  C   UNL     1       6.710  28.068  57.457  1.00  0.00     0.066 A 
HETATM   16  C   UNL     1       5.335  28.239  57.184  1.00  0.00     0.195 A 
HETATM   17  N   UNL     1       4.891  29.456  57.444  1.00  0.00    -0.148 NA
HETATM   18  N   UNL     1       5.967  30.111  57.883  1.00  0.00    -0.270 N 
HETATM   19  H   UNL     1       5.857  31.090  58.145  1.00  0.00     0.189 HD
HETATM   20  C   UNL     1       7.091  29.328  57.916  1.00  0.00     0.150 A 
BRANCH  16  21
HETATM   21  O   UNL     1       4.416  27.394  56.717  1.00  0.00    -0.343 OA
HETATM   22  H   UNL     1       4.784  26.613  56.284  1.00  0.00     0.219 HD
ENDBRANCH  16  21
BRANCH  20  23
HETATM   23  C   UNL     1       8.340  29.924  58.415  1.00  0.00     0.435 C 
HETATM   24  F   UNL     1       8.411  29.769  59.768  1.00  0.00    -0.165 F 
HETATM   25  F   UNL     1       9.437  29.352  57.884  1.00  0.00    -0.165 F 
HETATM   26  F   UNL     1       8.389  31.250  58.174  1.00  0.00    -0.165 F 
ENDBRANCH  20  23
ENDBRANCH   3  15
TORSDOF 6
ENDMDL
MODEL 2
REMARK VINA RESULT:      -8.8      3.998      4.804
REMARK  6 active torsions:
REMARK  status: ('A' for Active; 'I' for Inactive)
REMARK    1  A    between atoms: C_3  and  C_4 
REMARK    2  A    between atoms: C_9  and  C_10 
REMARK    3  A    between atoms: C_10  and  N_11 
REMARK    4  A    between atoms: C_13  and  C_14 
REMARK    5  A    between atoms: C_15  and  O_16 
REMARK    6  A    between atoms: C_20  and  C_21 
ROOT
HETATM    1  N   UNL     1       7.353  25.571  55.423  1.00  0.00    -0.394 N 
HETATM    2  H   UNL     1       7.878  25.792  54.568  1.00  0.00     0.159 HD
HETATM    3  C   UNL     1       6.103  25.868  55.472  1.00  0.00     0.101 C 
ENDROOT
BRANCH   1   4
HETATM    4  C   UNL     1       8.139  24.872  56.461  1.00  0.00     0.157 C 
BRANCH   4   5
HETATM    5  C   UNL     1       8.183  23.399  56.169  1.00  0.00    -0.040 A 
HETATM    6  C   UNL     1       8.127  22.930  54.845  1.00  0.00     0.025 A 
HETATM    7  C   UNL     1       8.205  21.556  54.556  1.00  0.00     0.048 A 
HETATM    8  C   UNL     1       8.339  20.648  55.614  1.00  0.00     0.016 A 
HETATM    9  C   UNL     1       8.395  21.102  56.931  1.00  0.00     0.001 A 
HETATM   10  C   UNL     1       8.319  22.467  57.210  1.00  0.00     0.009 A 
BRANCH   7  11
HETATM   11  C   UNL     1       8.130  21.082  53.121  1.00  0.00     0.417 C 
HETATM   12  F   UNL     1       7.089  20.247  52.869  1.00  0.00    -0.166 F 
HETATM   13  F   UNL     1       8.017  22.118  52.248  1.00  0.00    -0.166 F 
HETATM   14  F   UNL     1       9.258  20.409  52.760  1.00  0.00    -0.166 F 
ENDBRANCH   7  11
ENDBRANCH   4   5
ENDBRANCH   1   4
BRANCH   3  15
HETATM   15  C   UNL     1       5.305  26.536  54.466  1.00  0.00     0.066 A 
HETATM   16  C   UNL     1       4.539  27.713  54.624  1.00  0.00     0.195 A 
HETATM   17  N   UNL     1       3.937  28.105  53.515  1.00  0.00    -0.148 NA
HETATM   18  N   UNL     1       4.290  27.191  52.610  1.00  0.00    -0.270 N 
HETATM   19  H   UNL     1       3.931  27.294  51.661  1.00  0.00     0.189 HD
HETATM   20  C   UNL     1       5.115  26.224  53.122  1.00  0.00     0.150 A 
BRANCH  16  21
HETATM   21  O   UNL     1       4.320  28.487  55.687  1.00  0.00    -0.343 OA
HETATM   22  H   UNL     1       4.370  28.021  56.530  1.00  0.00     0.219 HD
ENDBRANCH  16  21
BRANCH  20  23
HETATM   23  C   UNL     1       5.603  25.174  52.213  1.00  0.00     0.435 C 
HETATM   24  F   UNL     1       4.710  24.997  51.199  1.00  0.00    -0.165 F 
HETATM   25  F   UNL     1       6.791  25.479  51.658  1.00  0.00    -0.165 F 
HETATM   26  F   UNL     1       5.716  23.986  52.841  1.00  0.00    -0.165 F 
ENDBRANCH  20  23
ENDBRANCH   3  15
TORSDOF 6
ENDMDL
MODEL 3
REMARK VINA RESULT:      -8.8      2.496      3.618
REMARK  6 active torsions:
REMARK  status: ('A' for Active; 'I' for Inactive)
REMARK    1  A    between atoms: C_3  and  C_4 
REMARK    2  A    between atoms: C_9  and  C_10 
REMARK    3  A    between atoms: C_10  and  N_11 
REMARK    4  A    between atoms: C_13  and  C_14 
REMARK    5  A    between atoms: C_15  and  O_16 
REMARK    6  A    between atoms: C_20  and  C_21 
ROOT
HETATM    1  N   UNL     1       7.383  28.379  56.862  1.00  0.00    -0.394 N 
HETATM    2  H   UNL     1       7.908  28.714  56.045  1.00  0.00     0.159 HD
HETATM    3  C   UNL     1       7.519  29.002  57.979  1.00  0.00     0.101 C 
ENDROOT
BRANCH   1   4
HETATM    4  C   UNL     1       6.485  27.238  56.588  1.00  0.00     0.157 C 
BRANCH   4   5
HETATM    5  C   UNL     1       7.293  25.995  56.338  1.00  0.00    -0.040 A 
HETATM    6  C   UNL     1       7.298  25.389  55.071  1.00  0.00     0.025 A 
HETATM    7  C   UNL     1       8.078  24.247  54.814  1.00  0.00     0.048 A 
HETATM    8  C   UNL     1       8.858  23.714  55.848  1.00  0.00     0.016 A 
HETATM    9  C   UNL     1       8.860  24.307  57.109  1.00  0.00     0.001 A 
HETATM   10  C   UNL     1       8.084  25.441  57.356  1.00  0.00     0.009 A 
BRANCH   7  11
HETATM   11  C   UNL     1       8.053  23.610  53.441  1.00  0.00     0.417 C 
HETATM   12  F   UNL     1       6.843  23.105  53.089  1.00  0.00    -0.166 F 
HETATM   13  F   UNL     1       8.408  24.488  52.466  1.00  0.00    -0.166 F 
HETATM   14  F   UNL     1       8.939  22.578  53.356  1.00  0.00    -0.166 F 
ENDBRANCH   7  11
ENDBRANCH   4   5
ENDBRANCH   1   4
BRANCH   3  15
HETATM   15  C   UNL     1       8.377  30.130  58.271  1.00  0.00     0.066 A 
HETATM   16  C   UNL     1       8.097  31.221  59.123  1.00  0.00     0.195 A 
HETATM   17  N   UNL     1       9.089  32.088  59.217  1.00  0.00    -0.148 NA
HETATM   18  N   UNL     1      10.037  31.589  58.422  1.00  0.00    -0.270 N 
HETATM   19  H   UNL     1      10.911  32.107  58.336  1.00  0.00     0.189 HD
HETATM   20  C   UNL     1       9.668  30.410  57.828  1.00  0.00     0.150 A 
BRANCH  16  21
HETATM   21  O   UNL     1       7.016  31.524  59.843  1.00  0.00    -0.343 OA
HETATM   22  H   UNL     1       6.423  30.778  59.994  1.00  0.00     0.219 HD
ENDBRANCH  16  21
BRANCH  20  23
HETATM   23  C   UNL     1      10.641  29.739  56.951  1.00  0.00     0.435 C 
HETATM   24  F   UNL     1      10.464  30.161  55.667  1.00  0.00    -0.165 F 
HETATM   25  F   UNL     1      11.917  30.005  57.292  1.00  0.00    -0.165 F 
HETATM   26  F   UNL     1      10.468  28.402  56.947  1.00  0.00    -0.165 F 
ENDBRANCH  20  23
ENDBRANCH   3  15
TORSDOF 6
ENDMDL
MODEL 4
REMARK VINA RESULT:      -8.6      2.746      3.539
REMARK  6 active torsions:
REMARK  status: ('A' for Active; 'I' for Inactive)
REMARK    1  A    between atoms: C_3  and  C_4 
REMARK    2  A    between atoms: C_9  and  C_10 
REMARK    3  A    between atoms: C_10  and  N_11 
REMARK    4  A    between atoms: C_13  and  C_14 
REMARK    5  A    between atoms: C_15  and  O_16 
REMARK    6  A    between atoms: C_20  and  C_21 
ROOT
HETATM    1  N   UNL     1       8.590  25.469  57.323  1.00  0.00    -0.394 N 
HETATM    2  H   UNL     1       9.286  25.734  56.615  1.00  0.00     0.159 HD
HETATM    3  C   UNL     1       7.638  26.290  57.590  1.00  0.00     0.101 C 
ENDROOT
BRANCH   1   4
HETATM    4  C   UNL     1       8.778  24.116  57.887  1.00  0.00     0.157 C 
BRANCH   4   5
HETATM    5  C   UNL     1       8.425  23.076  56.861  1.00  0.00    -0.040 A 
HETATM    6  C   UNL     1       8.222  23.436  55.518  1.00  0.00     0.025 A 
HETATM    7  C   UNL     1       7.927  22.467  54.542  1.00  0.00     0.048 A 
HETATM    8  C   UNL     1       7.835  21.124  54.927  1.00  0.00     0.016 A 
HETATM    9  C   UNL     1       8.034  20.756  56.257  1.00  0.00     0.001 A 
HETATM   10  C   UNL     1       8.327  21.722  57.220  1.00  0.00     0.009 A 
BRANCH   7  11
HETATM   11  C   UNL     1       7.702  22.889  53.106  1.00  0.00     0.417 C 
HETATM   12  F   UNL     1       6.463  23.389  52.865  1.00  0.00    -0.166 F 
HETATM   13  F   UNL     1       8.590  23.839  52.710  1.00  0.00    -0.166 F 
HETATM   14  F   UNL     1       7.867  21.842  52.249  1.00  0.00    -0.166 F 
ENDBRANCH   7  11
ENDBRANCH   4   5
ENDBRANCH   1   4
BRANCH   3  15
HETATM   15  C   UNL     1       7.421  27.611  57.042  1.00  0.00     0.066 A 
HETATM   16  C   UNL     1       7.557  28.849  57.711  1.00  0.00     0.195 A 
HETATM   17  N   UNL     1       7.320  29.895  56.941  1.00  0.00    -0.148 NA
HETATM   18  N   UNL     1       7.016  29.367  55.754  1.00  0.00    -0.270 N 
HETATM   19  H   UNL     1       6.790  30.004  54.991  1.00  0.00     0.189 HD
HETATM   20  C   UNL     1       7.063  27.997  55.752  1.00  0.00     0.150 A 
BRANCH  16  21
HETATM   21  O   UNL     1       7.880  29.139  58.971  1.00  0.00    -0.343 OA
HETATM   22  H   UNL     1       8.111  30.065  59.115  1.00  0.00     0.219 HD
ENDBRANCH  16  21
BRANCH  20  23
HETATM   23  C   UNL     1       6.780  27.294  54.491  1.00  0.00     0.435 C 
HETATM   24  F   UNL     1       5.861  26.312  54.713  1.00  0.00    -0.165 F 
HETATM   25  F   UNL     1       6.280  28.109  53.542  1.00  0.00    -0.165 F 
HETATM   26  F   UNL     1       7.881  26.690  54.000  1.00  0.00    -0.165 F 
ENDBRANCH  20  23
ENDBRANCH   3  15
TORSDOF 6
ENDMDL
MODEL 5
REMARK VINA RESULT:      -8.6      4.185      5.213
REMARK  6 active torsions:
REMARK  status: ('A' for Active; 'I' for Inactive)
REMARK    1  A    between atoms: C_3  and  C_4 
REMARK    2  A    between atoms: C_9  and  C_10 
REMARK    3  A    between atoms: C_10  and  N_11 
REMARK    4  A    between atoms: C_13  and  C_14 
REMARK    5  A    between atoms: C_15  and  O_16 
REMARK    6  A    between atoms: C_20  and  C_21 
ROOT
HETATM    1  N   UNL     1       6.832  26.297  54.425  1.00  0.00    -0.394 N 
HETATM    2  H   UNL     1       7.376  26.569  53.597  1.00  0.00     0.159 HD
HETATM    3  C   UNL     1       5.576  26.568  54.454  1.00  0.00     0.101 C 
ENDROOT
BRANCH   1   4
HETATM    4  C   UNL     1       7.603  25.560  55.448  1.00  0.00     0.157 C 
BRANCH   4   5
HETATM    5  C   UNL     1       7.869  24.156  54.982  1.00  0.00    -0.040 A 
HETATM    6  C   UNL     1       8.067  23.120  55.910  1.00  0.00     0.025 A 
HETATM    7  C   UNL     1       8.280  21.796  55.487  1.00  0.00     0.048 A 
HETATM    8  C   UNL     1       8.294  21.517  54.115  1.00  0.00     0.016 A 
HETATM    9  C   UNL     1       8.099  22.538  53.185  1.00  0.00     0.001 A 
HETATM   10  C   UNL     1       7.887  23.849  53.613  1.00  0.00     0.009 A 
BRANCH   7  11
HETATM   11  C   UNL     1       8.502  20.704  56.511  1.00  0.00     0.417 C 
HETATM   12  F   UNL     1       8.327  21.107  57.796  1.00  0.00    -0.166 F 
HETATM   13  F   UNL     1       7.667  19.648  56.318  1.00  0.00    -0.166 F 
HETATM   14  F   UNL     1       9.766  20.201  56.436  1.00  0.00    -0.166 F 
ENDBRANCH   7  11
ENDBRANCH   4   5
ENDBRANCH   1   4
BRANCH   3  15
HETATM   15  C   UNL     1       4.793  27.273  53.461  1.00  0.00     0.066 A 
HETATM   16  C   UNL     1       4.023  28.442  53.649  1.00  0.00     0.195 A 
HETATM   17  N   UNL     1       3.438  28.874  52.547  1.00  0.00    -0.148 NA
HETATM   18  N   UNL     1       3.805  27.994  51.615  1.00  0.00    -0.270 N 
HETATM   19  H   UNL     1       3.461  28.130  50.665  1.00  0.00     0.189 HD
HETATM   20  C   UNL     1       4.623  27.009  52.104  1.00  0.00     0.150 A 
BRANCH  16  21
HETATM   21  O   UNL     1       3.788  29.178  54.736  1.00  0.00    -0.343 OA
HETATM   22  H   UNL     1       3.585  30.103  54.550  1.00  0.00     0.219 HD
ENDBRANCH  16  21
BRANCH  20  23
HETATM   23  C   UNL     1       5.126  25.992  51.166  1.00  0.00     0.435 C 
HETATM   24  F   UNL     1       4.754  26.320  49.896  1.00  0.00    -0.165 F 
HETATM   25  F   UNL     1       6.469  25.890  51.181  1.00  0.00    -0.165 F 
HETATM   26  F   UNL     1       4.601  24.777  51.421  1.00  0.00    -0.165 F 
ENDBRANCH  20  23
ENDBRANCH   3  15
TORSDOF 6
ENDMDL
MODEL 6
REMARK VINA RESULT:      -8.5      4.693      6.579
REMARK  6 active torsions:
REMARK  status: ('A' for Active; 'I' for Inactive)
REMARK    1  A    between atoms: C_3  and  C_4 
REMARK    2  A    between atoms: C_9  and  C_10 
REMARK    3  A    between atoms: C_10  and  N_11 
REMARK    4  A    between atoms: C_13  and  C_14 
REMARK    5  A    between atoms: C_15  and  O_16 
REMARK    6  A    between atoms: C_20  and  C_21 
ROOT
HETATM    1  N   UNL     1       5.793  26.173  53.121  1.00  0.00    -0.394 N 
HETATM    2  H   UNL     1       6.725  26.596  53.037  1.00  0.00     0.159 HD
HETATM    3  C   UNL     1       4.898  26.473  52.248  1.00  0.00     0.101 C 
ENDROOT
BRANCH   1   4
HETATM    4  C   UNL     1       5.656  25.211  54.235  1.00  0.00     0.157 C 
BRANCH   4   5
HETATM    5  C   UNL     1       6.675  24.115  54.097  1.00  0.00    -0.040 A 
HETATM    6  C   UNL     1       6.999  23.298  55.194  1.00  0.00     0.025 A 
HETATM    7  C   UNL     1       7.923  22.245  55.068  1.00  0.00     0.048 A 
HETATM    8  C   UNL     1       8.526  22.017  53.825  1.00  0.00     0.016 A 
HETATM    9  C   UNL     1       8.212  22.823  52.730  1.00  0.00     0.001 A 
HETATM   10  C   UNL     1       7.293  23.864  52.863  1.00  0.00     0.009 A 
BRANCH   7  11
HETATM   11  C   UNL     1       8.260  21.390  56.271  1.00  0.00     0.417 C 
HETATM   12  F   UNL     1       9.469  20.778  56.192  1.00  0.00    -0.166 F 
HETATM   13  F   UNL     1       8.263  22.111  57.423  1.00  0.00    -0.166 F 
HETATM   14  F   UNL     1       7.340  20.401  56.451  1.00  0.00    -0.166 F 
ENDBRANCH   7  11
ENDBRANCH   4   5
ENDBRANCH   1   4
BRANCH   3  15
HETATM   15  C   UNL     1       5.009  27.397  51.141  1.00  0.00     0.066 A 
HETATM   16  C   UNL     1       5.590  28.686  51.154  1.00  0.00     0.195 A 
HETATM   17  N   UNL     1       5.571  29.287  49.979  1.00  0.00    -0.148 NA
HETATM   18  N   UNL     1       4.972  28.411  49.171  1.00  0.00    -0.270 N 
HETATM   19  H   UNL     1       4.844  28.671  48.194  1.00  0.00     0.189 HD
HETATM   20  C   UNL     1       4.613  27.254  49.812  1.00  0.00     0.150 A 
BRANCH  16  21
HETATM   21  O   UNL     1       6.147  29.391  52.139  1.00  0.00    -0.343 OA
HETATM   22  H   UNL     1       6.115  30.346  52.006  1.00  0.00     0.219 HD
ENDBRANCH  16  21
BRANCH  20  23
HETATM   23  C   UNL     1       3.972  26.191  49.022  1.00  0.00     0.435 C 
HETATM   24  F   UNL     1       4.655  26.015  47.855  1.00  0.00    -0.165 F 
HETATM   25  F   UNL     1       3.954  25.007  49.663  1.00  0.00    -0.165 F 
HETATM   26  F   UNL     1       2.708  26.516  48.685  1.00  0.00    -0.165 F 
ENDBRANCH  20  23
ENDBRANCH   3  15
TORSDOF 6
ENDMDL
MODEL 7
REMARK VINA RESULT:      -8.5      3.044      3.663
REMARK  6 active torsions:
REMARK  status: ('A' for Active; 'I' for Inactive)
REMARK    1  A    between atoms: C_3  and  C_4 
REMARK    2  A    between atoms: C_9  and  C_10 
REMARK    3  A    between atoms: C_10  and  N_11 
REMARK    4  A    between atoms: C_13  and  C_14 
REMARK    5  A    between atoms: C_15  and  O_16 
REMARK    6  A    between atoms: C_20  and  C_21 
ROOT
HETATM    1  N   UNL     1       7.936  25.495  57.401  1.00  0.00    -0.394 N 
HETATM    2  H   UNL     1       6.993  25.241  57.719  1.00  0.00     0.159 HD
HETATM    3  C   UNL     1       8.235  26.741  57.295  1.00  0.00     0.101 C 
ENDROOT
BRANCH   1   4
HETATM    4  C   UNL     1       8.835  24.345  57.171  1.00  0.00     0.157 C 
BRANCH   4   5
HETATM    5  C   UNL     1       8.560  23.737  55.824  1.00  0.00    -0.040 A 
HETATM    6  C   UNL     1       7.924  24.484  54.818  1.00  0.00     0.025 A 
HETATM    7  C   UNL     1       7.694  23.939  53.543  1.00  0.00     0.048 A 
HETATM    8  C   UNL     1       8.110  22.627  53.282  1.00  0.00     0.016 A 
HETATM    9  C   UNL     1       8.741  21.877  54.273  1.00  0.00     0.001 A 
HETATM   10  C   UNL     1       8.966  22.425  55.536  1.00  0.00     0.009 A 
BRANCH   7  11
HETATM   11  C   UNL     1       6.996  24.765  52.484  1.00  0.00     0.417 C 
HETATM   12  F   UNL     1       7.600  24.729  51.268  1.00  0.00    -0.166 F 
HETATM   13  F   UNL     1       5.711  24.366  52.292  1.00  0.00    -0.166 F 
HETATM   14  F   UNL     1       6.931  26.079  52.841  1.00  0.00    -0.166 F 
ENDBRANCH   7  11
ENDBRANCH   4   5
ENDBRANCH   1   4
BRANCH   3  15
HETATM   15  C   UNL     1       7.382  27.886  57.528  1.00  0.00     0.066 A 
HETATM   16  C   UNL     1       7.733  29.104  58.151  1.00  0.00     0.195 A 
HETATM   17  N   UNL     1       6.745  29.980  58.197  1.00  0.00    -0.148 NA
HETATM   18  N   UNL     1       5.724  29.353  57.611  1.00  0.00    -0.270 N 
HETATM   19  H   UNL     1       4.837  29.850  57.536  1.00  0.00     0.189 HD
HETATM   20  C   UNL     1       6.046  28.091  57.185  1.00  0.00     0.150 A 
BRANCH  16  21
HETATM   21  O   UNL     1       8.877  29.518  58.696  1.00  0.00    -0.343 OA
HETATM   22  H   UNL     1       9.663  29.088  58.336  1.00  0.00     0.219 HD
ENDBRANCH  16  21
BRANCH  20  23
HETATM   23  C   UNL     1       5.013  27.305  56.492  1.00  0.00     0.435 C 
HETATM   24  F   UNL     1       5.500  26.864  55.298  1.00  0.00    -0.165 F 
HETATM   25  F   UNL     1       4.623  26.224  57.196  1.00  0.00    -0.165 F 
HETATM   26  F   UNL     1       3.924  28.050  56.215  1.00  0.00    -0.165 F 
ENDBRANCH  20  23
ENDBRANCH   3  15
TORSDOF 6
ENDMDL
MODEL 8
REMARK VINA RESULT:      -8.4      2.413      2.978
REMARK  6 active torsions:
REMARK  status: ('A' for Active; 'I' for Inactive)
REMARK    1  A    between atoms: C_3  and  C_4 
REMARK    2  A    between atoms: C_9  and  C_10 
REMARK    3  A    between atoms: C_10  and  N_11 
REMARK    4  A    between atoms: C_13  and  C_14 
REMARK    5  A    between atoms: C_15  and  O_16 
REMARK    6  A    between atoms: C_20  and  C_21 
ROOT
HETATM    1  N   UNL     1       6.351  26.205  55.412  1.00  0.00    -0.394 N 
HETATM    2  H   UNL     1       7.362  26.088  55.549  1.00  0.00     0.159 HD
HETATM    3  C   UNL     1       5.754  27.169  56.018  1.00  0.00     0.101 C 
ENDROOT
BRANCH   1   4
HETATM    4  C   UNL     1       5.748  25.248  54.461  1.00  0.00     0.157 C 
BRANCH   4   5
HETATM    5  C   UNL     1       6.672  24.082  54.246  1.00  0.00    -0.040 A 
HETATM    6  C   UNL     1       7.043  23.257  55.321  1.00  0.00     0.025 A 
HETATM    7  C   UNL     1       7.878  22.141  55.127  1.00  0.00     0.048 A 
HETATM    8  C   UNL     1       8.342  21.859  53.836  1.00  0.00     0.016 A 
HETATM    9  C   UNL     1       7.980  22.673  52.763  1.00  0.00     0.001 A 
HETATM   10  C   UNL     1       7.151  23.777  52.963  1.00  0.00     0.009 A 
BRANCH   7  11
HETATM   11  C   UNL     1       8.269  21.278  56.307  1.00  0.00     0.417 C 
HETATM   12  F   UNL     1       9.490  20.697  56.185  1.00  0.00    -0.166 F 
HETATM   13  F   UNL     1       8.288  21.983  57.469  1.00  0.00    -0.166 F 
HETATM   14  F   UNL     1       7.380  20.264  56.498  1.00  0.00    -0.166 F 
ENDBRANCH   7  11
ENDBRANCH   4   5
ENDBRANCH   1   4
BRANCH   3  15
HETATM   15  C   UNL     1       6.322  28.128  56.941  1.00  0.00     0.066 A 
HETATM   16  C   UNL     1       7.473  27.967  57.744  1.00  0.00     0.195 A 
HETATM   17  N   UNL     1       7.766  29.032  58.469  1.00  0.00    -0.148 NA
HETATM   18  N   UNL     1       6.810  29.910  58.162  1.00  0.00    -0.270 N 
HETATM   19  H   UNL     1       6.836  30.823  58.616  1.00  0.00     0.189 HD
HETATM   20  C   UNL     1       5.914  29.426  57.245  1.00  0.00     0.150 A 
BRANCH  16  21
HETATM   21  O   UNL     1       8.305  26.937  57.896  1.00  0.00    -0.343 OA
HETATM   22  H   UNL     1       9.231  27.151  57.728  1.00  0.00     0.219 HD
ENDBRANCH  16  21
BRANCH  20  23
HETATM   23  C   UNL     1       4.828  30.312  56.798  1.00  0.00     0.435 C 
HETATM   24  F   UNL     1       4.835  31.453  57.544  1.00  0.00    -0.165 F 
HETATM   25  F   UNL     1       4.951  30.672  55.506  1.00  0.00    -0.165 F 
HETATM   26  F   UNL     1       3.618  29.743  56.971  1.00  0.00    -0.165 F 
ENDBRANCH  20  23
ENDBRANCH   3  15
TORSDOF 6
ENDMDL
MODEL 9
REMARK VINA RESULT:      -8.4      2.477      8.456
REMARK  6 active torsions:
REMARK  status: ('A' for Active; 'I' for Inactive)
REMARK    1  A    between atoms: C_3  and  C_4 
REMARK    2  A    between atoms: C_9  and  C_10 
REMARK    3  A    between atoms: C_10  and  N_11 
REMARK    4  A    between atoms: C_13  and  C_14 
REMARK    5  A    between atoms: C_15  and  O_16 
REMARK    6  A    between atoms: C_20  and  C_21 
ROOT
HETATM    1  N   UNL     1       7.727  26.733  56.454  1.00  0.00    -0.394 N 
HETATM    2  H   UNL     1       8.266  26.496  57.295  1.00  0.00     0.159 HD
HETATM    3  C   UNL     1       7.461  25.800  55.610  1.00  0.00     0.101 C 
ENDROOT
BRANCH   1   4
HETATM    4  C   UNL     1       7.283  28.141  56.387  1.00  0.00     0.157 C 
BRANCH   4   5
HETATM    5  C   UNL     1       8.338  29.042  56.965  1.00  0.00    -0.040 A 
HETATM    6  C   UNL     1       8.170  29.616  58.236  1.00  0.00     0.025 A 
HETATM    7  C   UNL     1       9.166  30.431  58.803  1.00  0.00     0.048 A 
HETATM    8  C   UNL     1      10.341  30.668  58.079  1.00  0.00     0.016 A 
HETATM    9  C   UNL     1      10.518  30.103  56.816  1.00  0.00     0.001 A 
HETATM   10  C   UNL     1       9.525  29.294  56.261  1.00  0.00     0.009 A 
BRANCH   7  11
HETATM   11  C   UNL     1       8.950  31.045  60.170  1.00  0.00     0.417 C 
HETATM   12  F   UNL     1       9.263  32.365  60.238  1.00  0.00    -0.166 F 
HETATM   13  F   UNL     1       7.660  30.929  60.582  1.00  0.00    -0.166 F 
HETATM   14  F   UNL     1       9.704  30.423  61.119  1.00  0.00    -0.166 F 
ENDBRANCH   7  11
ENDBRANCH   4   5
ENDBRANCH   1   4
BRANCH   3  15
HETATM   15  C   UNL     1       7.868  24.413  55.657  1.00  0.00     0.066 A 
HETATM   16  C   UNL     1       8.334  23.694  56.781  1.00  0.00     0.195 A 
HETATM   17  N   UNL     1       8.605  22.427  56.524  1.00  0.00    -0.148 NA
HETATM   18  N   UNL     1       8.331  22.290  55.226  1.00  0.00    -0.270 N 
HETATM   19  H   UNL     1       8.473  21.374  54.802  1.00  0.00     0.189 HD
HETATM   20  C   UNL     1       7.881  23.449  54.650  1.00  0.00     0.150 A 
BRANCH  16  21
HETATM   21  O   UNL     1       8.543  24.070  58.043  1.00  0.00    -0.343 OA
HETATM   22  H   UNL     1       9.236  24.734  58.146  1.00  0.00     0.219 HD
ENDBRANCH  16  21
BRANCH  20  23
HETATM   23  C   UNL     1       7.512  23.421  53.226  1.00  0.00     0.435 C 
HETATM   24  F   UNL     1       6.248  23.905  53.073  1.00  0.00    -0.165 F 
HETATM   25  F   UNL     1       8.329  24.172  52.463  1.00  0.00    -0.165 F 
HETATM   26  F   UNL     1       7.507  22.164  52.738  1.00  0.00    -0.165 F 
ENDBRANCH  20  23
ENDBRANCH   3  15
TORSDOF 6
ENDMDL
MODEL 10
REMARK VINA RESULT:      -8.4      3.879      7.235
REMARK  6 active torsions:
REMARK  status: ('A' for Active; 'I' for Inactive)
REMARK    1  A    between atoms: C_3  and  C_4 
REMARK    2  A    between atoms: C_9  and  C_10 
REMARK    3  A    between atoms: C_10  and  N_11 
REMARK    4  A    between atoms: C_13  and  C_14 
REMARK    5  A    between atoms: C_15  and  O_16 
REMARK    6  A    between atoms: C_20  and  C_21 
ROOT
HETATM    1  N   UNL     1       8.070  24.111  53.089  1.00  0.00    -0.394 N 
HETATM    2  H   UNL     1       8.928  24.318  53.615  1.00  0.00     0.159 HD
HETATM    3  C   UNL     1       7.538  22.947  53.212  1.00  0.00     0.101 C 
ENDROOT
BRANCH   1   4
HETATM    4  C   UNL     1       7.545  25.246  52.302  1.00  0.00     0.157 C 
BRANCH   4   5
HETATM    5  C   UNL     1       7.087  26.342  53.223  1.00  0.00    -0.040 A 
HETATM    6  C   UNL     1       7.509  26.374  54.563  1.00  0.00     0.025 A 
HETATM    7  C   UNL     1       7.117  27.415  55.424  1.00  0.00     0.048 A 
HETATM    8  C   UNL     1       6.291  28.431  54.927  1.00  0.00     0.016 A 
HETATM    9  C   UNL     1       5.867  28.408  53.599  1.00  0.00     0.001 A 
HETATM   10  C   UNL     1       6.261  27.373  52.751  1.00  0.00     0.009 A 
BRANCH   7  11
HETATM   11  C   UNL     1       7.579  27.414  56.866  1.00  0.00     0.417 C 
HETATM   12  F   UNL     1       7.841  26.177  57.361  1.00  0.00    -0.166 F 
HETATM   13  F   UNL     1       8.709  28.150  57.038  1.00  0.00    -0.166 F 
HETATM   14  F   UNL     1       6.643  27.967  57.688  1.00  0.00    -0.166 F 
ENDBRANCH   7  11
ENDBRANCH   4   5
ENDBRANCH   1   4
BRANCH   3  15
HETATM   15  C   UNL     1       8.021  21.823  53.985  1.00  0.00     0.066 A 
HETATM   16  C   UNL     1       8.316  20.523  53.517  1.00  0.00     0.195 A 
HETATM   17  N   UNL     1       8.769  19.712  54.455  1.00  0.00    -0.148 NA
HETATM   18  N   UNL     1       8.775  20.460  55.560  1.00  0.00    -0.270 N 
HETATM   19  H   UNL     1       9.092  20.028  56.428  1.00  0.00     0.189 HD
HETATM   20  C   UNL     1       8.338  21.740  55.340  1.00  0.00     0.150 A 
BRANCH  16  21
HETATM   21  O   UNL     1       8.217  19.980  52.303  1.00  0.00    -0.343 OA
HETATM   22  H   UNL     1       7.454  19.399  52.193  1.00  0.00     0.219 HD
ENDBRANCH  16  21
BRANCH  20  23
HETATM   23  C   UNL     1       8.327  22.676  56.475  1.00  0.00     0.435 C 
HETATM   24  F   UNL     1       8.399  21.977  57.643  1.00  0.00    -0.165 F 
HETATM   25  F   UNL     1       9.367  23.532  56.451  1.00  0.00    -0.165 F 
HETATM   26  F   UNL     1       7.185  23.390  56.521  1.00  0.00    -0.165 F 
ENDBRANCH  20  23
ENDBRANCH   3  15
TORSDOF 6
ENDMDL
