MODEL 1
REMARK VINA RESULT:     -10.1      0.000      0.000
REMARK  6 active torsions:
REMARK  status: ('A' for Active; 'I' for Inactive)
REMARK    1  A    between atoms: C_3  and  N_4 
REMARK       I    between atoms: N_4  and  C_5 
REMARK    2  A    between atoms: C_5  and  C_6 
REMARK       I    between atoms: C_6  and  N_7 
REMARK    3  A    between atoms: N_7  and  C_8 
REMARK    4  A    between atoms: C_9  and  C_10 
REMARK    5  A    between atoms: C_23  and  C_24 
REMARK       I    between atoms: C_24  and  N_25 
REMARK    6  A    between atoms: N_25  and  C_26 
ROOT
HETATM    1  N   UNL     1       7.435  28.562  57.072  1.00  0.00    -0.318 N 
HETATM    2  C   UNL     1       7.271  27.213  57.315  1.00  0.00     0.314 C 
HETATM    3  O   UNL     1       7.835  26.500  58.131  1.00  0.00    -0.262 OA
HETATM    4  H   UNL     1       6.815  28.916  56.347  1.00  0.00     0.169 HD
ENDROOT
BRANCH   2   5
HETATM    5  C   UNL     1       6.203  26.593  56.390  1.00  0.00     0.314 C 
HETATM    6  N   UNL     1       6.603  26.554  55.078  1.00  0.00    -0.316 N 
HETATM    7  H   UNL     1       7.531  26.925  54.850  1.00  0.00     0.169 HD
HETATM    8  O   UNL     1       5.150  26.210  56.887  1.00  0.00    -0.262 OA
BRANCH   6   9
HETATM    9  C   UNL     1       5.878  26.059  54.012  1.00  0.00     0.085 A 
HETATM   10  C   UNL     1       5.999  24.751  53.436  1.00  0.00     0.133 A 
HETATM   11  N   UNL     1       5.134  24.607  52.412  1.00  0.00    -0.171 NA
HETATM   12  N   UNL     1       4.496  25.788  52.346  1.00  0.00    -0.286 N 
HETATM   13  H   UNL     1       3.787  25.910  51.632  1.00  0.00     0.188 HD
HETATM   14  C   UNL     1       4.902  26.688  53.282  1.00  0.00     0.141 A 
BRANCH  10  15
HETATM   15  C   UNL     1       6.916  23.683  53.863  1.00  0.00     0.089 A 
HETATM   16  N   UNL     1       6.993  23.460  55.206  1.00  0.00    -0.259 NA
HETATM   17  C   UNL     1       7.830  22.486  55.625  1.00  0.00     0.117 A 
HETATM   18  C   UNL     1       8.597  21.711  54.772  1.00  0.00     0.019 A 
HETATM   19  C   UNL     1       8.506  21.948  53.406  1.00  0.00     0.004 A 
HETATM   20  C   UNL     1       7.655  22.949  52.941  1.00  0.00     0.034 A 
ENDBRANCH  10  15
ENDBRANCH   6   9
ENDBRANCH   2   5
BRANCH   1  21
HETATM   21  C   UNL     1       8.331  29.462  57.683  1.00  0.00     0.042 A 
HETATM   22  C   UNL     1       9.487  29.854  56.972  1.00  0.00    -0.035 A 
HETATM   23  C   UNL     1       9.784  29.355  55.581  1.00  0.00     0.050 C 
HETATM   24  C   UNL     1      10.407  30.729  57.577  1.00  0.00     0.010 A 
HETATM   25  C   UNL     1      10.188  31.220  58.863  1.00  0.00     0.017 A 
HETATM   26  C   UNL     1       9.036  30.850  59.561  1.00  0.00     0.034 A 
HETATM   27  C   UNL     1       8.120  29.965  58.972  1.00  0.00     0.047 A 
BRANCH  26  28
HETATM   28  C   UNL     1       8.764  31.337  60.944  1.00  0.00     0.252 C 
HETATM   29  N   UNL     1       7.472  31.169  61.409  1.00  0.00    -0.352 N 
HETATM   30  H   UNL     1       6.827  30.592  60.886  1.00  0.00     0.163 HD
HETATM   31  O   UNL     1       9.667  31.833  61.609  1.00  0.00    -0.268 OA
BRANCH  29  32
HETATM   32  C   UNL     1       7.093  31.551  62.733  1.00  0.00     0.084 A 
HETATM   33  C   UNL     1       6.761  32.980  63.058  1.00  0.00     0.027 A 
HETATM   34  C   UNL     1       5.674  31.946  63.034  1.00  0.00     0.027 A 
ENDBRANCH  29  32
ENDBRANCH  26  28
ENDBRANCH   1  21
TORSDOF 6
ENDMDL
MODEL 2
REMARK VINA RESULT:      -9.8      1.492      1.763
REMARK  6 active torsions:
REMARK  status: ('A' for Active; 'I' for Inactive)
REMARK    1  A    between atoms: C_3  and  N_4 
REMARK       I    between atoms: N_4  and  C_5 
REMARK    2  A    between atoms: C_5  and  C_6 
REMARK       I    between atoms: C_6  and  N_7 
REMARK    3  A    between atoms: N_7  and  C_8 
REMARK    4  A    between atoms: C_9  and  C_10 
REMARK    5  A    between atoms: C_23  and  C_24 
REMARK       I    between atoms: C_24  and  N_25 
REMARK    6  A    between atoms: N_25  and  C_26 
ROOT
HETATM    1  N   UNL     1       7.899  29.739  57.096  1.00  0.00    -0.318 N 
HETATM    2  C   UNL     1       7.838  28.363  57.006  1.00  0.00     0.314 C 
HETATM    3  O   UNL     1       8.103  27.520  57.849  1.00  0.00    -0.262 OA
HETATM    4  H   UNL     1       7.596  30.210  56.246  1.00  0.00     0.169 HD
ENDROOT
BRANCH   2   5
HETATM    5  C   UNL     1       7.351  27.904  55.615  1.00  0.00     0.314 C 
HETATM    6  N   UNL     1       6.242  27.101  55.686  1.00  0.00    -0.316 N 
HETATM    7  H   UNL     1       5.860  26.893  56.615  1.00  0.00     0.169 HD
HETATM    8  O   UNL     1       7.968  28.282  54.625  1.00  0.00    -0.262 OA
BRANCH   6   9
HETATM    9  C   UNL     1       5.568  26.534  54.622  1.00  0.00     0.085 A 
HETATM   10  C   UNL     1       5.782  25.223  54.082  1.00  0.00     0.133 A 
HETATM   11  N   UNL     1       4.945  24.998  53.049  1.00  0.00    -0.171 NA
HETATM   12  N   UNL     1       4.234  26.133  52.944  1.00  0.00    -0.286 N 
HETATM   13  H   UNL     1       3.530  26.191  52.216  1.00  0.00     0.188 HD
HETATM   14  C   UNL     1       4.566  27.080  53.862  1.00  0.00     0.141 A 
BRANCH  10  15
HETATM   15  C   UNL     1       6.759  24.227  54.550  1.00  0.00     0.089 A 
HETATM   16  N   UNL     1       7.037  24.241  55.885  1.00  0.00    -0.259 NA
HETATM   17  C   UNL     1       7.933  23.338  56.340  1.00  0.00     0.117 A 
HETATM   18  C   UNL     1       8.568  22.410  55.533  1.00  0.00     0.019 A 
HETATM   19  C   UNL     1       8.272  22.405  54.175  1.00  0.00     0.004 A 
HETATM   20  C   UNL     1       7.356  23.327  53.672  1.00  0.00     0.034 A 
ENDBRANCH  10  15
ENDBRANCH   6   9
ENDBRANCH   2   5
BRANCH   1  21
HETATM   21  C   UNL     1       8.324  30.530  58.182  1.00  0.00     0.042 A 
HETATM   22  C   UNL     1       9.687  30.891  58.265  1.00  0.00    -0.035 A 
HETATM   23  C   UNL     1      10.694  30.473  57.225  1.00  0.00     0.050 C 
HETATM   24  C   UNL     1      10.134  31.655  59.357  1.00  0.00     0.010 A 
HETATM   25  C   UNL     1       9.249  32.068  60.353  1.00  0.00     0.017 A 
HETATM   26  C   UNL     1       7.897  31.729  60.264  1.00  0.00     0.034 A 
HETATM   27  C   UNL     1       7.444  30.954  59.186  1.00  0.00     0.047 A 
BRANCH  26  28
HETATM   28  C   UNL     1       6.914  32.134  61.310  1.00  0.00     0.252 C 
HETATM   29  N   UNL     1       7.435  32.429  62.557  1.00  0.00    -0.352 N 
HETATM   30  H   UNL     1       8.436  32.525  62.667  1.00  0.00     0.163 HD
HETATM   31  O   UNL     1       5.722  32.210  61.035  1.00  0.00    -0.268 OA
BRANCH  29  32
HETATM   32  C   UNL     1       6.605  32.873  63.632  1.00  0.00     0.084 A 
HETATM   33  C   UNL     1       7.207  33.378  64.913  1.00  0.00     0.027 A 
HETATM   34  C   UNL     1       6.528  34.335  63.979  1.00  0.00     0.027 A 
ENDBRANCH  29  32
ENDBRANCH  26  28
ENDBRANCH   1  21
TORSDOF 6
ENDMDL
MODEL 3
REMARK VINA RESULT:      -9.0      2.795      8.862
REMARK  6 active torsions:
REMARK  status: ('A' for Active; 'I' for Inactive)
REMARK    1  A    between atoms: C_3  and  N_4 
REMARK       I    between atoms: N_4  and  C_5 
REMARK    2  A    between atoms: C_5  and  C_6 
REMARK       I    between atoms: C_6  and  N_7 
REMARK    3  A    between atoms: N_7  and  C_8 
REMARK    4  A    between atoms: C_9  and  C_10 
REMARK    5  A    between atoms: C_23  and  C_24 
REMARK       I    between atoms: C_24  and  N_25 
REMARK    6  A    between atoms: N_25  and  C_26 
ROOT
HETATM    1  N   UNL     1       6.277  28.570  54.590  1.00  0.00    -0.318 N 
HETATM    2  C   UNL     1       5.126  28.971  55.238  1.00  0.00     0.314 C 
HETATM    3  O   UNL     1       4.029  28.436  55.269  1.00  0.00    -0.262 OA
HETATM    4  H   UNL     1       7.065  29.193  54.752  1.00  0.00     0.169 HD
ENDROOT
BRANCH   2   5
HETATM    5  C   UNL     1       5.340  30.286  56.017  1.00  0.00     0.314 C 
HETATM    6  N   UNL     1       5.852  30.075  57.272  1.00  0.00    -0.316 N 
HETATM    7  H   UNL     1       6.035  29.108  57.558  1.00  0.00     0.169 HD
HETATM    8  O   UNL     1       5.048  31.344  55.471  1.00  0.00    -0.262 OA
BRANCH   6   9
HETATM    9  C   UNL     1       6.156  31.043  58.209  1.00  0.00     0.085 A 
HETATM   10  C   UNL     1       7.468  31.427  58.641  1.00  0.00     0.133 A 
HETATM   11  N   UNL     1       7.392  32.407  59.564  1.00  0.00    -0.171 NA
HETATM   12  N   UNL     1       6.075  32.624  59.710  1.00  0.00    -0.286 N 
HETATM   13  H   UNL     1       5.777  33.333  60.371  1.00  0.00     0.188 HD
HETATM   14  C   UNL     1       5.294  31.838  58.921  1.00  0.00     0.141 A 
BRANCH  10  15
HETATM   15  C   UNL     1       8.747  30.868  58.173  1.00  0.00     0.089 A 
HETATM   16  N   UNL     1       8.668  29.715  57.450  1.00  0.00    -0.259 NA
HETATM   17  C   UNL     1       9.828  29.179  57.011  1.00  0.00     0.117 A 
HETATM   18  C   UNL     1      11.072  29.737  57.249  1.00  0.00     0.019 A 
HETATM   19  C   UNL     1      11.136  30.915  57.985  1.00  0.00     0.004 A 
HETATM   20  C   UNL     1       9.958  31.491  58.457  1.00  0.00     0.034 A 
ENDBRANCH  10  15
ENDBRANCH   6   9
ENDBRANCH   2   5
BRANCH   1  21
HETATM   21  C   UNL     1       6.471  27.450  53.758  1.00  0.00     0.042 A 
HETATM   22  C   UNL     1       5.997  27.503  52.428  1.00  0.00    -0.035 A 
HETATM   23  C   UNL     1       5.308  28.720  51.868  1.00  0.00     0.050 C 
HETATM   24  C   UNL     1       6.156  26.384  51.593  1.00  0.00     0.010 A 
HETATM   25  C   UNL     1       6.782  25.227  52.056  1.00  0.00     0.017 A 
HETATM   26  C   UNL     1       7.270  25.178  53.364  1.00  0.00     0.034 A 
HETATM   27  C   UNL     1       7.102  26.285  54.210  1.00  0.00     0.047 A 
BRANCH  26  28
HETATM   28  C   UNL     1       7.934  23.960  53.911  1.00  0.00     0.252 C 
HETATM   29  N   UNL     1       8.047  22.885  53.048  1.00  0.00    -0.352 N 
HETATM   30  H   UNL     1       7.841  23.013  52.066  1.00  0.00     0.163 HD
HETATM   31  O   UNL     1       8.363  23.958  55.060  1.00  0.00    -0.268 OA
BRANCH  29  32
HETATM   32  C   UNL     1       8.703  21.676  53.435  1.00  0.00     0.084 A 
HETATM   33  C   UNL     1       7.967  20.608  54.194  1.00  0.00     0.027 A 
HETATM   34  C   UNL     1       8.356  20.375  52.764  1.00  0.00     0.027 A 
ENDBRANCH  29  32
ENDBRANCH  26  28
ENDBRANCH   1  21
TORSDOF 6
ENDMDL
MODEL 4
REMARK VINA RESULT:      -9.0      2.842      9.785
REMARK  6 active torsions:
REMARK  status: ('A' for Active; 'I' for Inactive)
REMARK    1  A    between atoms: C_3  and  N_4 
REMARK       I    between atoms: N_4  and  C_5 
REMARK    2  A    between atoms: C_5  and  C_6 
REMARK       I    between atoms: C_6  and  N_7 
REMARK    3  A    between atoms: N_7  and  C_8 
REMARK    4  A    between atoms: C_9  and  C_10 
REMARK    5  A    between atoms: C_23  and  C_24 
REMARK       I    between atoms: C_24  and  N_25 
REMARK    6  A    between atoms: N_25  and  C_26 
ROOT
HETATM    1  N   UNL     1       7.213  26.963  55.550  1.00  0.00    -0.318 N 
HETATM    2  C   UNL     1       6.525  27.709  56.485  1.00  0.00     0.314 C 
HETATM    3  O   UNL     1       5.321  27.880  56.605  1.00  0.00    -0.262 OA
HETATM    4  H   UNL     1       8.220  26.971  55.695  1.00  0.00     0.169 HD
ENDROOT
BRANCH   2   5
HETATM    5  C   UNL     1       7.480  28.386  57.491  1.00  0.00     0.314 C 
HETATM    6  N   UNL     1       7.658  29.720  57.229  1.00  0.00    -0.316 N 
HETATM    7  H   UNL     1       7.161  30.121  56.427  1.00  0.00     0.169 HD
HETATM    8  O   UNL     1       7.966  27.703  58.385  1.00  0.00    -0.262 OA
BRANCH   6   9
HETATM    9  C   UNL     1       8.447  30.600  57.944  1.00  0.00     0.085 A 
HETATM   10  C   UNL     1       7.988  31.592  58.873  1.00  0.00     0.133 A 
HETATM   11  N   UNL     1       9.032  32.270  59.390  1.00  0.00    -0.171 NA
HETATM   12  N   UNL     1      10.109  31.725  58.799  1.00  0.00    -0.286 N 
HETATM   13  H   UNL     1      11.024  32.090  59.041  1.00  0.00     0.188 HD
HETATM   14  C   UNL     1       9.813  30.722  57.930  1.00  0.00     0.141 A 
BRANCH  10  15
HETATM   15  C   UNL     1       6.592  31.868  59.247  1.00  0.00     0.089 A 
HETATM   16  N   UNL     1       5.646  31.526  58.327  1.00  0.00    -0.259 NA
HETATM   17  C   UNL     1       4.356  31.772  58.645  1.00  0.00     0.117 A 
HETATM   18  C   UNL     1       3.953  32.338  59.842  1.00  0.00     0.019 A 
HETATM   19  C   UNL     1       4.928  32.678  60.771  1.00  0.00     0.004 A 
HETATM   20  C   UNL     1       6.269  32.443  60.473  1.00  0.00     0.034 A 
ENDBRANCH  10  15
ENDBRANCH   6   9
ENDBRANCH   2   5
BRANCH   1  21
HETATM   21  C   UNL     1       6.700  26.232  54.461  1.00  0.00     0.042 A 
HETATM   22  C   UNL     1       6.706  24.821  54.529  1.00  0.00    -0.035 A 
HETATM   23  C   UNL     1       7.227  24.076  55.732  1.00  0.00     0.050 C 
HETATM   24  C   UNL     1       6.225  24.074  53.440  1.00  0.00     0.010 A 
HETATM   25  C   UNL     1       5.735  24.707  52.298  1.00  0.00     0.017 A 
HETATM   26  C   UNL     1       5.709  26.102  52.235  1.00  0.00     0.034 A 
HETATM   27  C   UNL     1       6.202  26.856  53.311  1.00  0.00     0.047 A 
BRANCH  26  28
HETATM   28  C   UNL     1       5.208  26.825  51.031  1.00  0.00     0.252 C 
HETATM   29  N   UNL     1       4.516  26.066  50.105  1.00  0.00    -0.352 N 
HETATM   30  H   UNL     1       4.234  25.125  50.346  1.00  0.00     0.163 HD
HETATM   31  O   UNL     1       5.400  28.031  50.915  1.00  0.00    -0.268 OA
BRANCH  29  32
HETATM   32  C   UNL     1       3.945  26.648  48.931  1.00  0.00     0.084 A 
HETATM   33  C   UNL     1       4.756  26.806  47.676  1.00  0.00     0.027 A 
HETATM   34  C   UNL     1       3.647  25.797  47.728  1.00  0.00     0.027 A 
ENDBRANCH  29  32
ENDBRANCH  26  28
ENDBRANCH   1  21
TORSDOF 6
ENDMDL
MODEL 5
REMARK VINA RESULT:      -8.8      4.315      6.528
REMARK  6 active torsions:
REMARK  status: ('A' for Active; 'I' for Inactive)
REMARK    1  A    between atoms: C_3  and  N_4 
REMARK       I    between atoms: N_4  and  C_5 
REMARK    2  A    between atoms: C_5  and  C_6 
REMARK       I    between atoms: C_6  and  N_7 
REMARK    3  A    between atoms: N_7  and  C_8 
REMARK    4  A    between atoms: C_9  and  C_10 
REMARK    5  A    between atoms: C_23  and  C_24 
REMARK       I    between atoms: C_24  and  N_25 
REMARK    6  A    between atoms: N_25  and  C_26 
ROOT
HETATM    1  N   UNL     1       5.328  31.993  61.113  1.00  0.00    -0.318 N 
HETATM    2  C   UNL     1       4.654  32.763  60.187  1.00  0.00     0.314 C 
HETATM    3  O   UNL     1       4.533  33.977  60.130  1.00  0.00    -0.262 OA
HETATM    4  H   UNL     1       5.291  30.997  60.910  1.00  0.00     0.169 HD
ENDROOT
BRANCH   2   5
HETATM    5  C   UNL     1       3.992  31.893  59.097  1.00  0.00     0.314 C 
HETATM    6  N   UNL     1       4.628  31.995  57.886  1.00  0.00    -0.316 N 
HETATM    7  H   UNL     1       5.445  32.612  57.825  1.00  0.00     0.169 HD
HETATM    8  O   UNL     1       3.011  31.224  59.399  1.00  0.00    -0.262 OA
BRANCH   6   9
HETATM    9  C   UNL     1       4.282  31.343  56.719  1.00  0.00     0.085 A 
HETATM   10  C   UNL     1       5.034  30.310  56.067  1.00  0.00     0.133 A 
HETATM   11  N   UNL     1       4.398  29.898  54.952  1.00  0.00    -0.171 NA
HETATM   12  N   UNL     1       3.288  30.653  54.904  1.00  0.00    -0.286 N 
HETATM   13  H   UNL     1       2.647  30.513  54.131  1.00  0.00     0.188 HD
HETATM   14  C   UNL     1       3.170  31.529  55.938  1.00  0.00     0.141 A 
BRANCH  10  15
HETATM   15  C   UNL     1       6.318  29.743  56.510  1.00  0.00     0.089 A 
HETATM   16  N   UNL     1       6.599  29.861  57.839  1.00  0.00    -0.259 NA
HETATM   17  C   UNL     1       7.772  29.351  58.272  1.00  0.00     0.117 A 
HETATM   18  C   UNL     1       8.687  28.719  57.447  1.00  0.00     0.019 A 
HETATM   19  C   UNL     1       8.386  28.603  56.095  1.00  0.00     0.004 A 
HETATM   20  C   UNL     1       7.185  29.123  55.615  1.00  0.00     0.034 A 
ENDBRANCH  10  15
ENDBRANCH   6   9
ENDBRANCH   2   5
BRANCH   1  21
HETATM   21  C   UNL     1       6.024  32.414  62.264  1.00  0.00     0.042 A 
HETATM   22  C   UNL     1       7.435  32.337  62.268  1.00  0.00    -0.035 A 
HETATM   23  C   UNL     1       8.216  31.835  61.081  1.00  0.00     0.050 C 
HETATM   24  C   UNL     1       8.145  32.726  63.417  1.00  0.00     0.010 A 
HETATM   25  C   UNL     1       7.476  33.194  64.548  1.00  0.00     0.017 A 
HETATM   26  C   UNL     1       6.082  33.291  64.540  1.00  0.00     0.034 A 
HETATM   27  C   UNL     1       5.365  32.890  63.403  1.00  0.00     0.047 A 
BRANCH  26  28
HETATM   28  C   UNL     1       5.321  33.771  65.728  1.00  0.00     0.252 C 
HETATM   29  N   UNL     1       6.020  33.831  66.921  1.00  0.00    -0.352 N 
HETATM   30  H   UNL     1       7.025  33.717  66.912  1.00  0.00     0.163 HD
HETATM   31  O   UNL     1       4.147  34.107  65.611  1.00  0.00    -0.268 OA
BRANCH  29  32
HETATM   32  C   UNL     1       5.419  34.317  68.122  1.00  0.00     0.084 A 
HETATM   33  C   UNL     1       5.929  33.889  69.469  1.00  0.00     0.027 A 
HETATM   34  C   UNL     1       6.153  35.295  68.998  1.00  0.00     0.027 A 
ENDBRANCH  29  32
ENDBRANCH  26  28
ENDBRANCH   1  21
TORSDOF 6
ENDMDL
MODEL 6
REMARK VINA RESULT:      -8.8      2.543      9.153
REMARK  6 active torsions:
REMARK  status: ('A' for Active; 'I' for Inactive)
REMARK    1  A    between atoms: C_3  and  N_4 
REMARK       I    between atoms: N_4  and  C_5 
REMARK    2  A    between atoms: C_5  and  C_6 
REMARK       I    between atoms: C_6  and  N_7 
REMARK    3  A    between atoms: N_7  and  C_8 
REMARK    4  A    between atoms: C_9  and  C_10 
REMARK    5  A    between atoms: C_23  and  C_24 
REMARK       I    between atoms: C_24  and  N_25 
REMARK    6  A    between atoms: N_25  and  C_26 
ROOT
HETATM    1  N   UNL     1       5.416  28.502  55.573  1.00  0.00    -0.318 N 
HETATM    2  C   UNL     1       6.340  29.366  56.125  1.00  0.00     0.314 C 
HETATM    3  O   UNL     1       7.553  29.248  56.215  1.00  0.00    -0.262 OA
HETATM    4  H   UNL     1       4.464  28.859  55.608  1.00  0.00     0.169 HD
ENDROOT
BRANCH   2   5
HETATM    5  C   UNL     1       5.669  30.640  56.680  1.00  0.00     0.314 C 
HETATM    6  N   UNL     1       5.571  30.629  58.048  1.00  0.00    -0.316 N 
HETATM    7  H   UNL     1       5.937  29.811  58.547  1.00  0.00     0.169 HD
HETATM    8  O   UNL     1       5.305  31.502  55.888  1.00  0.00    -0.262 OA
BRANCH   6   9
HETATM    9  C   UNL     1       5.025  31.618  58.841  1.00  0.00     0.085 A 
HETATM   10  C   UNL     1       5.702  32.356  59.868  1.00  0.00     0.133 A 
HETATM   11  N   UNL     1       4.866  33.247  60.437  1.00  0.00    -0.171 NA
HETATM   12  N   UNL     1       3.701  33.068  59.792  1.00  0.00    -0.286 N 
HETATM   13  H   UNL     1       2.910  33.643  60.063  1.00  0.00     0.188 HD
HETATM   14  C   UNL     1       3.744  32.109  58.828  1.00  0.00     0.141 A 
BRANCH  10  15
HETATM   15  C   UNL     1       7.108  32.205  60.278  1.00  0.00     0.089 A 
HETATM   16  N   UNL     1       8.022  32.129  59.269  1.00  0.00    -0.259 NA
HETATM   17  C   UNL     1       9.319  31.988  59.619  1.00  0.00     0.117 A 
HETATM   18  C   UNL     1       9.760  31.923  60.930  1.00  0.00     0.019 A 
HETATM   19  C   UNL     1       8.817  32.005  61.947  1.00  0.00     0.004 A 
HETATM   20  C   UNL     1       7.469  32.146  61.620  1.00  0.00     0.034 A 
ENDBRANCH  10  15
ENDBRANCH   6   9
ENDBRANCH   2   5
BRANCH   1  21
HETATM   21  C   UNL     1       5.633  27.234  55.000  1.00  0.00     0.042 A 
HETATM   22  C   UNL     1       4.917  26.886  53.832  1.00  0.00    -0.035 A 
HETATM   23  C   UNL     1       3.944  27.831  53.175  1.00  0.00     0.050 C 
HETATM   24  C   UNL     1       5.100  25.614  53.263  1.00  0.00     0.010 A 
HETATM   25  C   UNL     1       5.983  24.696  53.829  1.00  0.00     0.017 A 
HETATM   26  C   UNL     1       6.708  25.043  54.971  1.00  0.00     0.034 A 
HETATM   27  C   UNL     1       6.521  26.305  55.556  1.00  0.00     0.047 A 
BRANCH  26  28
HETATM   28  C   UNL     1       7.654  24.092  55.622  1.00  0.00     0.252 C 
HETATM   29  N   UNL     1       7.705  22.818  55.086  1.00  0.00    -0.352 N 
HETATM   30  H   UNL     1       7.249  22.632  54.203  1.00  0.00     0.163 HD
HETATM   31  O   UNL     1       8.347  24.463  56.563  1.00  0.00    -0.268 OA
BRANCH  29  32
HETATM   32  C   UNL     1       8.603  21.826  55.589  1.00  0.00     0.084 A 
HETATM   33  C   UNL     1       8.174  20.874  56.669  1.00  0.00     0.027 A 
HETATM   34  C   UNL     1       8.386  20.373  55.271  1.00  0.00     0.027 A 
ENDBRANCH  29  32
ENDBRANCH  26  28
ENDBRANCH   1  21
TORSDOF 6
ENDMDL
MODEL 7
REMARK VINA RESULT:      -8.6      4.297      8.089
REMARK  6 active torsions:
REMARK  status: ('A' for Active; 'I' for Inactive)
REMARK    1  A    between atoms: C_3  and  N_4 
REMARK       I    between atoms: N_4  and  C_5 
REMARK    2  A    between atoms: C_5  and  C_6 
REMARK       I    between atoms: C_6  and  N_7 
REMARK    3  A    between atoms: N_7  and  C_8 
REMARK    4  A    between atoms: C_9  and  C_10 
REMARK    5  A    between atoms: C_23  and  C_24 
REMARK       I    between atoms: C_24  and  N_25 
REMARK    6  A    between atoms: N_25  and  C_26 
ROOT
HETATM    1  N   UNL     1       6.261  27.487  54.176  1.00  0.00    -0.318 N 
HETATM    2  C   UNL     1       5.289  27.148  53.257  1.00  0.00     0.314 C 
HETATM    3  O   UNL     1       4.654  26.110  53.149  1.00  0.00    -0.262 OA
HETATM    4  H   UNL     1       6.613  28.434  54.055  1.00  0.00     0.169 HD
ENDROOT
BRANCH   2   5
HETATM    5  C   UNL     1       5.017  28.298  52.265  1.00  0.00     0.314 C 
HETATM    6  N   UNL     1       3.685  28.431  51.966  1.00  0.00    -0.316 N 
HETATM    7  H   UNL     1       3.028  27.781  52.411  1.00  0.00     0.169 HD
HETATM    8  O   UNL     1       5.968  28.955  51.856  1.00  0.00    -0.262 OA
BRANCH   6   9
HETATM    9  C   UNL     1       3.121  29.362  51.116  1.00  0.00     0.085 A 
HETATM   10  C   UNL     1       2.764  29.155  49.743  1.00  0.00     0.133 A 
HETATM   11  N   UNL     1       2.234  30.279  49.220  1.00  0.00    -0.171 NA
HETATM   12  N   UNL     1       2.265  31.162  50.231  1.00  0.00    -0.286 N 
HETATM   13  H   UNL     1       1.910  32.097  50.061  1.00  0.00     0.188 HD
HETATM   14  C   UNL     1       2.782  30.663  51.386  1.00  0.00     0.141 A 
BRANCH  10  15
HETATM   15  C   UNL     1       2.928  27.914  48.969  1.00  0.00     0.089 A 
HETATM   16  N   UNL     1       4.169  27.350  48.994  1.00  0.00    -0.259 NA
HETATM   17  C   UNL     1       4.346  26.211  48.290  1.00  0.00     0.117 A 
HETATM   18  C   UNL     1       3.344  25.594  47.560  1.00  0.00     0.019 A 
HETATM   19  C   UNL     1       2.084  26.179  47.546  1.00  0.00     0.004 A 
HETATM   20  C   UNL     1       1.868  27.357  48.259  1.00  0.00     0.034 A 
ENDBRANCH  10  15
ENDBRANCH   6   9
ENDBRANCH   2   5
BRANCH   1  21
HETATM   21  C   UNL     1       6.803  26.699  55.211  1.00  0.00     0.042 A 
HETATM   22  C   UNL     1       6.874  27.247  56.512  1.00  0.00    -0.035 A 
HETATM   23  C   UNL     1       6.378  28.634  56.829  1.00  0.00     0.050 C 
HETATM   24  C   UNL     1       7.437  26.487  57.552  1.00  0.00     0.010 A 
HETATM   25  C   UNL     1       7.918  25.198  57.318  1.00  0.00     0.017 A 
HETATM   26  C   UNL     1       7.830  24.646  56.038  1.00  0.00     0.034 A 
HETATM   27  C   UNL     1       7.284  25.403  54.990  1.00  0.00     0.047 A 
BRANCH  26  28
HETATM   28  C   UNL     1       8.341  23.279  55.734  1.00  0.00     0.252 C 
HETATM   29  N   UNL     1       8.357  22.914  54.400  1.00  0.00    -0.352 N 
HETATM   30  H   UNL     1       8.192  23.616  53.692  1.00  0.00     0.163 HD
HETATM   31  O   UNL     1       8.738  22.556  56.642  1.00  0.00    -0.268 OA
BRANCH  29  32
HETATM   32  C   UNL     1       8.867  21.649  53.973  1.00  0.00     0.084 A 
HETATM   33  C   UNL     1       8.107  20.381  54.243  1.00  0.00     0.027 A 
HETATM   34  C   UNL     1       8.208  20.907  52.842  1.00  0.00     0.027 A 
ENDBRANCH  29  32
ENDBRANCH  26  28
ENDBRANCH   1  21
TORSDOF 6
ENDMDL
MODEL 8
REMARK VINA RESULT:      -8.5      4.667      8.662
REMARK  6 active torsions:
REMARK  status: ('A' for Active; 'I' for Inactive)
REMARK    1  A    between atoms: C_3  and  N_4 
REMARK       I    between atoms: N_4  and  C_5 
REMARK    2  A    between atoms: C_5  and  C_6 
REMARK       I    between atoms: C_6  and  N_7 
REMARK    3  A    between atoms: N_7  and  C_8 
REMARK    4  A    between atoms: C_9  and  C_10 
REMARK    5  A    between atoms: C_23  and  C_24 
REMARK       I    between atoms: C_24  and  N_25 
REMARK    6  A    between atoms: N_25  and  C_26 
ROOT
HETATM    1  N   UNL     1       5.408  28.329  53.407  1.00  0.00    -0.318 N 
HETATM    2  C   UNL     1       5.474  26.989  53.730  1.00  0.00     0.314 C 
HETATM    3  O   UNL     1       4.768  26.066  53.353  1.00  0.00    -0.262 OA
HETATM    4  H   UNL     1       6.140  28.882  53.846  1.00  0.00     0.169 HD
ENDROOT
BRANCH   2   5
HETATM    5  C   UNL     1       6.634  26.693  54.704  1.00  0.00     0.314 C 
HETATM    6  N   UNL     1       6.405  25.580  55.471  1.00  0.00    -0.316 N 
HETATM    7  H   UNL     1       5.524  25.074  55.329  1.00  0.00     0.169 HD
HETATM    8  O   UNL     1       7.604  27.442  54.701  1.00  0.00    -0.262 OA
BRANCH   6   9
HETATM    9  C   UNL     1       7.248  25.054  56.430  1.00  0.00     0.085 A 
HETATM   10  C   UNL     1       7.958  23.810  56.349  1.00  0.00     0.133 A 
HETATM   11  N   UNL     1       8.691  23.615  57.463  1.00  0.00    -0.171 NA
HETATM   12  N   UNL     1       8.444  24.697  58.219  1.00  0.00    -0.286 N 
HETATM   13  H   UNL     1       8.899  24.764  59.123  1.00  0.00     0.188 HD
HETATM   14  C   UNL     1       7.591  25.589  57.646  1.00  0.00     0.141 A 
BRANCH  10  15
HETATM   15  C   UNL     1       7.927  22.851  55.234  1.00  0.00     0.089 A 
HETATM   16  N   UNL     1       7.928  23.388  53.981  1.00  0.00    -0.259 NA
HETATM   17  C   UNL     1       7.899  22.529  52.938  1.00  0.00     0.117 A 
HETATM   18  C   UNL     1       7.873  21.152  53.077  1.00  0.00     0.019 A 
HETATM   19  C   UNL     1       7.875  20.619  54.361  1.00  0.00     0.004 A 
HETATM   20  C   UNL     1       7.901  21.478  55.458  1.00  0.00     0.034 A 
ENDBRANCH  10  15
ENDBRANCH   6   9
ENDBRANCH   2   5
BRANCH   1  21
HETATM   21  C   UNL     1       4.476  28.988  52.582  1.00  0.00     0.042 A 
HETATM   22  C   UNL     1       3.918  30.207  53.028  1.00  0.00    -0.035 A 
HETATM   23  C   UNL     1       4.297  30.829  54.347  1.00  0.00     0.050 C 
HETATM   24  C   UNL     1       2.965  30.864  52.231  1.00  0.00     0.010 A 
HETATM   25  C   UNL     1       2.571  30.334  51.003  1.00  0.00     0.017 A 
HETATM   26  C   UNL     1       3.135  29.140  50.548  1.00  0.00     0.034 A 
HETATM   27  C   UNL     1       4.075  28.469  51.345  1.00  0.00     0.047 A 
BRANCH  26  28
HETATM   28  C   UNL     1       2.737  28.526  49.250  1.00  0.00     0.252 C 
HETATM   29  N   UNL     1       2.785  27.145  49.185  1.00  0.00    -0.352 N 
HETATM   30  H   UNL     1       2.916  26.613  50.035  1.00  0.00     0.163 HD
HETATM   31  O   UNL     1       2.372  29.238  48.320  1.00  0.00    -0.268 OA
BRANCH  29  32
HETATM   32  C   UNL     1       2.384  26.432  48.013  1.00  0.00     0.084 A 
HETATM   33  C   UNL     1       3.363  26.156  46.907  1.00  0.00     0.027 A 
HETATM   34  C   UNL     1       2.874  25.031  47.771  1.00  0.00     0.027 A 
ENDBRANCH  29  32
ENDBRANCH  26  28
ENDBRANCH   1  21
TORSDOF 6
ENDMDL
MODEL 9
REMARK VINA RESULT:      -8.5      4.331      6.631
REMARK  6 active torsions:
REMARK  status: ('A' for Active; 'I' for Inactive)
REMARK    1  A    between atoms: C_3  and  N_4 
REMARK       I    between atoms: N_4  and  C_5 
REMARK    2  A    between atoms: C_5  and  C_6 
REMARK       I    between atoms: C_6  and  N_7 
REMARK    3  A    between atoms: N_7  and  C_8 
REMARK    4  A    between atoms: C_9  and  C_10 
REMARK    5  A    between atoms: C_23  and  C_24 
REMARK       I    between atoms: C_24  and  N_25 
REMARK    6  A    between atoms: N_25  and  C_26 
ROOT
HETATM    1  N   UNL     1       6.544  32.677  60.446  1.00  0.00    -0.318 N 
HETATM    2  C   UNL     1       5.373  32.215  59.882  1.00  0.00     0.314 C 
HETATM    3  O   UNL     1       4.260  32.118  60.378  1.00  0.00    -0.262 OA
HETATM    4  H   UNL     1       7.329  32.675  59.798  1.00  0.00     0.169 HD
ENDROOT
BRANCH   2   5
HETATM    5  C   UNL     1       5.578  31.785  58.414  1.00  0.00     0.314 C 
HETATM    6  N   UNL     1       5.457  30.430  58.242  1.00  0.00    -0.316 N 
HETATM    7  H   UNL     1       5.252  29.859  59.068  1.00  0.00     0.169 HD
HETATM    8  O   UNL     1       5.816  32.651  57.579  1.00  0.00    -0.262 OA
BRANCH   6   9
HETATM    9  C   UNL     1       5.582  29.738  57.053  1.00  0.00     0.085 A 
HETATM   10  C   UNL     1       6.809  29.389  56.397  1.00  0.00     0.133 A 
HETATM   11  N   UNL     1       6.558  28.711  55.260  1.00  0.00    -0.171 NA
HETATM   12  N   UNL     1       5.217  28.643  55.203  1.00  0.00    -0.286 N 
HETATM   13  H   UNL     1       4.795  28.168  54.412  1.00  0.00     0.188 HD
HETATM   14  C   UNL     1       4.588  29.238  56.252  1.00  0.00     0.141 A 
BRANCH  10  15
HETATM   15  C   UNL     1       8.172  29.699  56.858  1.00  0.00     0.089 A 
HETATM   16  N   UNL     1       9.156  29.616  55.918  1.00  0.00    -0.259 NA
HETATM   17  C   UNL     1      10.417  29.894  56.316  1.00  0.00     0.117 A 
HETATM   18  C   UNL     1      10.754  30.257  57.609  1.00  0.00     0.019 A 
HETATM   19  C   UNL     1       9.740  30.340  58.555  1.00  0.00     0.004 A 
HETATM   20  C   UNL     1       8.428  30.056  58.179  1.00  0.00     0.034 A 
ENDBRANCH  10  15
ENDBRANCH   6   9
ENDBRANCH   2   5
BRANCH   1  21
HETATM   21  C   UNL     1       6.768  33.124  61.764  1.00  0.00     0.042 A 
HETATM   22  C   UNL     1       7.642  32.384  62.591  1.00  0.00    -0.035 A 
HETATM   23  C   UNL     1       8.352  31.146  62.107  1.00  0.00     0.050 C 
HETATM   24  C   UNL     1       7.855  32.799  63.917  1.00  0.00     0.010 A 
HETATM   25  C   UNL     1       7.222  33.934  64.423  1.00  0.00     0.017 A 
HETATM   26  C   UNL     1       6.373  34.680  63.602  1.00  0.00     0.034 A 
HETATM   27  C   UNL     1       6.142  34.264  62.282  1.00  0.00     0.047 A 
BRANCH  26  28
HETATM   28  C   UNL     1       5.662  35.892  64.099  1.00  0.00     0.252 C 
HETATM   29  N   UNL     1       6.169  37.112  63.687  1.00  0.00    -0.352 N 
HETATM   30  H   UNL     1       6.867  37.136  62.955  1.00  0.00     0.163 HD
HETATM   31  O   UNL     1       4.674  35.774  64.815  1.00  0.00    -0.268 OA
BRANCH  29  32
HETATM   32  C   UNL     1       5.553  38.346  64.056  1.00  0.00     0.084 A 
HETATM   33  C   UNL     1       6.383  39.552  64.395  1.00  0.00     0.027 A 
HETATM   34  C   UNL     1       5.590  39.524  63.122  1.00  0.00     0.027 A 
ENDBRANCH  29  32
ENDBRANCH  26  28
ENDBRANCH   1  21
TORSDOF 6
ENDMDL
MODEL 10
REMARK VINA RESULT:      -8.3      3.374      9.371
REMARK  6 active torsions:
REMARK  status: ('A' for Active; 'I' for Inactive)
REMARK    1  A    between atoms: C_3  and  N_4 
REMARK       I    between atoms: N_4  and  C_5 
REMARK    2  A    between atoms: C_5  and  C_6 
REMARK       I    between atoms: C_6  and  N_7 
REMARK    3  A    between atoms: N_7  and  C_8 
REMARK    4  A    between atoms: C_9  and  C_10 
REMARK    5  A    between atoms: C_23  and  C_24 
REMARK       I    between atoms: C_24  and  N_25 
REMARK    6  A    between atoms: N_25  and  C_26 
ROOT
HETATM    1  N   UNL     1       5.897  29.057  54.215  1.00  0.00    -0.318 N 
HETATM    2  C   UNL     1       4.933  29.333  55.164  1.00  0.00     0.314 C 
HETATM    3  O   UNL     1       3.885  28.749  55.394  1.00  0.00    -0.262 OA
HETATM    4  H   UNL     1       6.691  29.691  54.255  1.00  0.00     0.169 HD
ENDROOT
BRANCH   2   5
HETATM    5  C   UNL     1       5.310  30.561  56.018  1.00  0.00     0.314 C 
HETATM    6  N   UNL     1       5.808  30.213  57.248  1.00  0.00    -0.316 N 
HETATM    7  H   UNL     1       5.878  29.214  57.470  1.00  0.00     0.169 HD
HETATM    8  O   UNL     1       5.140  31.678  55.543  1.00  0.00    -0.262 OA
BRANCH   6   9
HETATM    9  C   UNL     1       6.234  31.077  58.237  1.00  0.00     0.085 A 
HETATM   10  C   UNL     1       7.593  31.310  58.634  1.00  0.00     0.133 A 
HETATM   11  N   UNL     1       7.642  32.220  59.628  1.00  0.00    -0.171 NA
HETATM   12  N   UNL     1       6.356  32.541  59.849  1.00  0.00    -0.286 N 
HETATM   13  H   UNL     1       6.150  33.222  60.572  1.00  0.00     0.188 HD
HETATM   14  C   UNL     1       5.477  31.888  59.042  1.00  0.00     0.141 A 
BRANCH  10  15
HETATM   15  C   UNL     1       8.795  30.678  58.070  1.00  0.00     0.089 A 
HETATM   16  N   UNL     1       8.604  29.490  57.428  1.00  0.00    -0.259 NA
HETATM   17  C   UNL     1       9.693  28.887  56.903  1.00  0.00     0.117 A 
HETATM   18  C   UNL     1      10.972  29.410  56.977  1.00  0.00     0.019 A 
HETATM   19  C   UNL     1      11.152  30.623  57.632  1.00  0.00     0.004 A 
HETATM   20  C   UNL     1      10.050  31.269  58.189  1.00  0.00     0.034 A 
ENDBRANCH  10  15
ENDBRANCH   6   9
ENDBRANCH   2   5
BRANCH   1  21
HETATM   21  C   UNL     1       5.900  28.044  53.235  1.00  0.00     0.042 A 
HETATM   22  C   UNL     1       6.547  26.822  53.525  1.00  0.00    -0.035 A 
HETATM   23  C   UNL     1       7.219  26.563  54.849  1.00  0.00     0.050 C 
HETATM   24  C   UNL     1       6.585  25.811  52.549  1.00  0.00     0.010 A 
HETATM   25  C   UNL     1       5.985  25.996  51.304  1.00  0.00     0.017 A 
HETATM   26  C   UNL     1       5.326  27.195  51.021  1.00  0.00     0.034 A 
HETATM   27  C   UNL     1       5.297  28.215  51.983  1.00  0.00     0.047 A 
BRANCH  26  28
HETATM   28  C   UNL     1       4.682  27.445  49.700  1.00  0.00     0.252 C 
HETATM   29  N   UNL     1       3.312  27.640  49.714  1.00  0.00    -0.352 N 
HETATM   30  H   UNL     1       2.839  27.772  50.598  1.00  0.00     0.163 HD
HETATM   31  O   UNL     1       5.364  27.491  48.682  1.00  0.00    -0.268 OA
BRANCH  29  32
HETATM   32  C   UNL     1       2.582  27.934  48.521  1.00  0.00     0.084 A 
HETATM   33  C   UNL     1       1.257  27.280  48.247  1.00  0.00     0.027 A 
HETATM   34  C   UNL     1       1.314  28.740  48.586  1.00  0.00     0.027 A 
ENDBRANCH  29  32
ENDBRANCH  26  28
ENDBRANCH   1  21
TORSDOF 6
ENDMDL
