MODEL 1
REMARK VINA RESULT:      -7.9      0.000      0.000
REMARK  2 active torsions:
REMARK  status: ('A' for Active; 'I' for Inactive)
REMARK    1  A    between atoms: C_8  and  S_9 
REMARK    2  A    between atoms: S_9  and  C_10 
ROOT
HETATM    1  C   UNL     1       8.436  20.055  55.602  1.00  0.00     0.002 A 
HETATM    2  C   UNL     1       7.777  21.228  55.972  1.00  0.00     0.034 A 
HETATM    3  C   UNL     1       7.589  22.266  55.067  1.00  0.00     0.087 A 
HETATM    4  C   UNL     1       8.086  22.124  53.743  1.00  0.00     0.087 A 
HETATM    5  N   UNL     1       7.939  23.104  52.830  1.00  0.00    -0.232 NA
HETATM    6  C   UNL     1       7.347  24.240  53.252  1.00  0.00     0.164 A 
HETATM    7 CL   UNL     1       7.185  25.438  52.037  1.00  0.00    -0.059 Cl
HETATM    8  C   UNL     1       6.857  24.377  54.540  1.00  0.00     0.165 A 
HETATM    9  N   UNL     1       6.936  23.381  55.458  1.00  0.00    -0.234 NA
HETATM   10  C   UNL     1       8.732  20.947  53.387  1.00  0.00     0.034 A 
HETATM   11  C   UNL     1       8.911  19.913  54.305  1.00  0.00     0.002 A 
ENDROOT
BRANCH   8  12
HETATM   12  S   UNL     1       6.054  25.852  55.149  1.00  0.00     0.078 S 
HETATM   13  O   UNL     1       5.368  26.487  53.976  1.00  0.00    -0.251 OA
BRANCH  12  14
HETATM   14  C   UNL     1       7.490  26.913  55.503  1.00  0.00     0.112 C 
HETATM   15  C   UNL     1       7.567  27.314  56.977  1.00  0.00     0.250 C 
HETATM   16  N   UNL     1       8.833  28.101  57.211  1.00  0.00    -0.074 N 
HETATM   17  H   UNL     1       9.653  27.489  57.082  1.00  0.00     0.277 HD
HETATM   18  H   UNL     1       8.860  28.379  58.203  1.00  0.00     0.277 HD
HETATM   19  C   UNL     1       8.955  29.321  56.357  1.00  0.00     0.232 C 
HETATM   20  C   UNL     1       8.877  28.919  54.889  1.00  0.00     0.029 C 
HETATM   21  C   UNL     1       7.607  28.121  54.576  1.00  0.00     0.021 C 
ENDBRANCH  12  14
ENDBRANCH   8  12
TORSDOF 2
ENDMDL
MODEL 2
REMARK VINA RESULT:      -7.8      2.691      3.978
REMARK  2 active torsions:
REMARK  status: ('A' for Active; 'I' for Inactive)
REMARK    1  A    between atoms: C_8  and  S_9 
REMARK    2  A    between atoms: S_9  and  C_10 
ROOT
HETATM    1  C   UNL     1       8.375  20.345  54.041  1.00  0.00     0.002 A 
HETATM    2  C   UNL     1       7.914  21.625  53.729  1.00  0.00     0.034 A 
HETATM    3  C   UNL     1       7.862  22.627  54.690  1.00  0.00     0.087 A 
HETATM    4  C   UNL     1       8.282  22.333  56.016  1.00  0.00     0.087 A 
HETATM    5  N   UNL     1       8.243  23.266  56.987  1.00  0.00    -0.232 NA
HETATM    6  C   UNL     1       7.735  24.469  56.649  1.00  0.00     0.164 A 
HETATM    7 CL   UNL     1       7.723  25.608  57.931  1.00  0.00    -0.059 Cl
HETATM    8  C   UNL     1       7.331  24.758  55.357  1.00  0.00     0.165 A 
HETATM    9  N   UNL     1       7.421  23.856  54.348  1.00  0.00    -0.234 NA
HETATM   10  C   UNL     1       8.747  21.058  56.309  1.00  0.00     0.034 A 
HETATM   11  C   UNL     1       8.796  20.063  55.334  1.00  0.00     0.002 A 
ENDROOT
BRANCH   8  12
HETATM   12  S   UNL     1       6.664  26.337  54.851  1.00  0.00     0.078 S 
HETATM   13  O   UNL     1       5.349  26.496  55.556  1.00  0.00    -0.251 OA
BRANCH  12  14
HETATM   14  C   UNL     1       6.243  25.998  53.113  1.00  0.00     0.112 C 
HETATM   15  C   UNL     1       6.239  27.268  52.258  1.00  0.00     0.250 C 
HETATM   16  N   UNL     1       5.985  26.895  50.818  1.00  0.00    -0.074 N 
HETATM   17  H   UNL     1       6.784  26.357  50.452  1.00  0.00     0.277 HD
HETATM   18  H   UNL     1       5.967  27.761  50.260  1.00  0.00     0.277 HD
HETATM   19  C   UNL     1       4.711  26.146  50.601  1.00  0.00     0.232 C 
HETATM   20  C   UNL     1       4.716  24.882  51.454  1.00  0.00     0.029 C 
HETATM   21  C   UNL     1       4.960  25.188  52.935  1.00  0.00     0.021 C 
ENDBRANCH  12  14
ENDBRANCH   8  12
TORSDOF 2
ENDMDL
MODEL 3
REMARK VINA RESULT:      -7.7      1.559      1.887
REMARK  2 active torsions:
REMARK  status: ('A' for Active; 'I' for Inactive)
REMARK    1  A    between atoms: C_8  and  S_9 
REMARK    2  A    between atoms: S_9  and  C_10 
ROOT
HETATM    1  C   UNL     1       8.378  22.016  56.690  1.00  0.00     0.002 A 
HETATM    2  C   UNL     1       8.100  23.383  56.686  1.00  0.00     0.034 A 
HETATM    3  C   UNL     1       7.613  24.017  55.550  1.00  0.00     0.087 A 
HETATM    4  C   UNL     1       7.402  23.252  54.370  1.00  0.00     0.087 A 
HETATM    5  N   UNL     1       6.940  23.820  53.239  1.00  0.00    -0.232 NA
HETATM    6  C   UNL     1       6.742  25.154  53.270  1.00  0.00     0.164 A 
HETATM    7 CL   UNL     1       6.146  25.807  51.800  1.00  0.00    -0.059 Cl
HETATM    8  C   UNL     1       6.941  25.899  54.419  1.00  0.00     0.165 A 
HETATM    9  N   UNL     1       7.344  25.340  55.588  1.00  0.00    -0.234 NA
HETATM   10  C   UNL     1       7.674  21.891  54.392  1.00  0.00     0.034 A 
HETATM   11  C   UNL     1       8.160  21.267  55.540  1.00  0.00     0.002 A 
ENDROOT
BRANCH   8  12
HETATM   12  S   UNL     1       6.683  27.664  54.521  1.00  0.00     0.078 S 
HETATM   13  O   UNL     1       7.514  28.285  53.437  1.00  0.00    -0.251 OA
BRANCH  12  14
HETATM   14  C   UNL     1       7.544  28.056  56.076  1.00  0.00     0.112 C 
HETATM   15  C   UNL     1       6.587  28.560  57.158  1.00  0.00     0.250 C 
HETATM   16  N   UNL     1       7.354  28.764  58.442  1.00  0.00    -0.074 N 
HETATM   17  H   UNL     1       7.675  27.853  58.804  1.00  0.00     0.277 HD
HETATM   18  H   UNL     1       6.700  29.120  59.154  1.00  0.00     0.277 HD
HETATM   19  C   UNL     1       8.505  29.707  58.317  1.00  0.00     0.232 C 
HETATM   20  C   UNL     1       9.456  29.205  57.238  1.00  0.00     0.029 C 
HETATM   21  C   UNL     1       8.744  28.984  55.899  1.00  0.00     0.021 C 
ENDBRANCH  12  14
ENDBRANCH   8  12
TORSDOF 2
ENDMDL
MODEL 4
REMARK VINA RESULT:      -7.6      2.265      2.541
REMARK  2 active torsions:
REMARK  status: ('A' for Active; 'I' for Inactive)
REMARK    1  A    between atoms: C_8  and  S_9 
REMARK    2  A    between atoms: S_9  and  C_10 
ROOT
HETATM    1  C   UNL     1       8.293  20.337  55.975  1.00  0.00     0.002 A 
HETATM    2  C   UNL     1       8.331  21.551  56.662  1.00  0.00     0.034 A 
HETATM    3  C   UNL     1       8.132  22.759  56.005  1.00  0.00     0.087 A 
HETATM    4  C   UNL     1       7.894  22.750  54.604  1.00  0.00     0.087 A 
HETATM    5  N   UNL     1       7.706  23.894  53.917  1.00  0.00    -0.232 NA
HETATM    6  C   UNL     1       7.809  25.042  54.616  1.00  0.00     0.164 A 
HETATM    7 CL   UNL     1       7.549  26.456  53.681  1.00  0.00    -0.059 Cl
HETATM    8  C   UNL     1       8.035  25.052  55.981  1.00  0.00     0.165 A 
HETATM    9  N   UNL     1       8.164  23.913  56.706  1.00  0.00    -0.234 NA
HETATM   10  C   UNL     1       7.851  21.534  53.934  1.00  0.00     0.034 A 
HETATM   11  C   UNL     1       8.049  20.329  54.608  1.00  0.00     0.002 A 
ENDROOT
BRANCH   8  12
HETATM   12  S   UNL     1       8.168  26.542  56.959  1.00  0.00     0.078 S 
HETATM   13  O   UNL     1       7.680  26.201  58.336  1.00  0.00    -0.251 OA
BRANCH  12  14
HETATM   14  C   UNL     1       6.856  27.565  56.220  1.00  0.00     0.112 C 
HETATM   15  C   UNL     1       7.198  29.057  56.247  1.00  0.00     0.250 C 
HETATM   16  N   UNL     1       6.117  29.826  55.528  1.00  0.00    -0.074 N 
HETATM   17  H   UNL     1       6.131  29.591  54.524  1.00  0.00     0.277 HD
HETATM   18  H   UNL     1       6.352  30.828  55.572  1.00  0.00     0.277 HD
HETATM   19  C   UNL     1       4.749  29.619  56.090  1.00  0.00     0.232 C 
HETATM   20  C   UNL     1       4.411  28.133  56.064  1.00  0.00     0.029 C 
HETATM   21  C   UNL     1       5.465  27.288  56.787  1.00  0.00     0.021 C 
ENDBRANCH  12  14
ENDBRANCH   8  12
TORSDOF 2
ENDMDL
MODEL 5
REMARK VINA RESULT:      -7.5      4.577      6.415
REMARK  2 active torsions:
REMARK  status: ('A' for Active; 'I' for Inactive)
REMARK    1  A    between atoms: C_8  and  S_9 
REMARK    2  A    between atoms: S_9  and  C_10 
ROOT
HETATM    1  C   UNL     1       7.532  24.635  56.890  1.00  0.00     0.002 A 
HETATM    2  C   UNL     1       8.189  25.778  57.349  1.00  0.00     0.034 A 
HETATM    3  C   UNL     1       7.542  27.006  57.412  1.00  0.00     0.087 A 
HETATM    4  C   UNL     1       6.187  27.093  56.993  1.00  0.00     0.087 A 
HETATM    5  N   UNL     1       5.517  28.261  57.025  1.00  0.00    -0.232 NA
HETATM    6  C   UNL     1       6.213  29.347  57.421  1.00  0.00     0.164 A 
HETATM    7 CL   UNL     1       5.296  30.795  57.445  1.00  0.00    -0.059 Cl
HETATM    8  C   UNL     1       7.531  29.262  57.834  1.00  0.00     0.165 A 
HETATM    9  N   UNL     1       8.208  28.087  57.872  1.00  0.00    -0.234 NA
HETATM   10  C   UNL     1       5.543  25.946  56.547  1.00  0.00     0.034 A 
HETATM   11  C   UNL     1       6.204  24.719  56.492  1.00  0.00     0.002 A 
ENDROOT
BRANCH   8  12
HETATM   12  S   UNL     1       8.497  30.663  58.380  1.00  0.00     0.078 S 
HETATM   13  O   UNL     1       9.934  30.233  58.357  1.00  0.00    -0.251 OA
BRANCH  12  14
HETATM   14  C   UNL     1       8.043  30.737  60.141  1.00  0.00     0.112 C 
HETATM   15  C   UNL     1       7.040  31.855  60.436  1.00  0.00     0.250 C 
HETATM   16  N   UNL     1       6.636  31.788  61.888  1.00  0.00    -0.074 N 
HETATM   17  H   UNL     1       6.096  30.926  62.059  1.00  0.00     0.277 HD
HETATM   18  H   UNL     1       5.976  32.558  62.074  1.00  0.00     0.277 HD
HETATM   19  C   UNL     1       7.781  31.882  62.842  1.00  0.00     0.232 C 
HETATM   20  C   UNL     1       8.778  30.768  62.547  1.00  0.00     0.029 C 
HETATM   21  C   UNL     1       9.242  30.783  61.086  1.00  0.00     0.021 C 
ENDBRANCH  12  14
ENDBRANCH   8  12
TORSDOF 2
ENDMDL
MODEL 6
REMARK VINA RESULT:      -7.5      1.909      2.621
REMARK  2 active torsions:
REMARK  status: ('A' for Active; 'I' for Inactive)
REMARK    1  A    between atoms: C_8  and  S_9 
REMARK    2  A    between atoms: S_9  and  C_10 
ROOT
HETATM    1  C   UNL     1       8.561  21.619  53.218  1.00  0.00     0.002 A 
HETATM    2  C   UNL     1       7.904  22.805  52.889  1.00  0.00     0.034 A 
HETATM    3  C   UNL     1       7.250  23.559  53.856  1.00  0.00     0.087 A 
HETATM    4  C   UNL     1       7.249  23.102  55.202  1.00  0.00     0.087 A 
HETATM    5  N   UNL     1       6.621  23.790  56.176  1.00  0.00    -0.232 NA
HETATM    6  C   UNL     1       5.953  24.899  55.797  1.00  0.00     0.164 A 
HETATM    7 CL   UNL     1       5.186  25.728  57.088  1.00  0.00    -0.059 Cl
HETATM    8  C   UNL     1       5.958  25.348  54.488  1.00  0.00     0.165 A 
HETATM    9  N   UNL     1       6.635  24.708  53.502  1.00  0.00    -0.234 NA
HETATM   10  C   UNL     1       7.914  21.924  55.516  1.00  0.00     0.034 A 
HETATM   11  C   UNL     1       8.569  21.180  54.535  1.00  0.00     0.002 A 
ENDROOT
BRANCH   8  12
HETATM   12  S   UNL     1       5.101  26.814  53.933  1.00  0.00     0.078 S 
HETATM   13  O   UNL     1       5.184  26.823  52.435  1.00  0.00    -0.251 OA
BRANCH  12  14
HETATM   14  C   UNL     1       6.242  28.119  54.489  1.00  0.00     0.112 C 
HETATM   15  C   UNL     1       7.708  27.744  54.262  1.00  0.00     0.250 C 
HETATM   16  N   UNL     1       8.584  28.910  54.650  1.00  0.00    -0.074 N 
HETATM   17  H   UNL     1       8.429  29.694  53.998  1.00  0.00     0.277 HD
HETATM   18  H   UNL     1       9.567  28.635  54.509  1.00  0.00     0.277 HD
HETATM   19  C   UNL     1       8.400  29.365  56.061  1.00  0.00     0.232 C 
HETATM   20  C   UNL     1       6.939  29.736  56.285  1.00  0.00     0.029 C 
HETATM   21  C   UNL     1       5.989  28.591  55.920  1.00  0.00     0.021 C 
ENDBRANCH  12  14
ENDBRANCH   8  12
TORSDOF 2
ENDMDL
MODEL 7
REMARK VINA RESULT:      -7.4      2.391      3.026
REMARK  2 active torsions:
REMARK  status: ('A' for Active; 'I' for Inactive)
REMARK    1  A    between atoms: C_8  and  S_9 
REMARK    2  A    between atoms: S_9  and  C_10 
ROOT
HETATM    1  C   UNL     1       8.226  21.175  57.040  1.00  0.00     0.002 A 
HETATM    2  C   UNL     1       8.116  22.562  56.932  1.00  0.00     0.034 A 
HETATM    3  C   UNL     1       7.953  23.178  55.697  1.00  0.00     0.087 A 
HETATM    4  C   UNL     1       7.904  22.374  54.526  1.00  0.00     0.087 A 
HETATM    5  N   UNL     1       7.758  22.923  53.305  1.00  0.00    -0.232 NA
HETATM    6  C   UNL     1       7.714  24.269  53.248  1.00  0.00     0.164 A 
HETATM    7 CL   UNL     1       7.517  24.897  51.664  1.00  0.00    -0.059 Cl
HETATM    8  C   UNL     1       7.755  25.053  54.388  1.00  0.00     0.165 A 
HETATM    9  N   UNL     1       7.838  24.522  55.633  1.00  0.00    -0.234 NA
HETATM   10  C   UNL     1       8.006  20.995  54.650  1.00  0.00     0.034 A 
HETATM   11  C   UNL     1       8.167  20.390  55.896  1.00  0.00     0.002 A 
ENDROOT
BRANCH   8  12
HETATM   12  S   UNL     1       7.689  26.839  54.374  1.00  0.00     0.078 S 
HETATM   13  O   UNL     1       8.117  27.299  55.736  1.00  0.00    -0.251 OA
BRANCH  12  14
HETATM   14  C   UNL     1       5.892  27.123  54.309  1.00  0.00     0.112 C 
HETATM   15  C   UNL     1       5.306  26.828  52.927  1.00  0.00     0.250 C 
HETATM   16  N   UNL     1       3.806  26.985  52.980  1.00  0.00    -0.074 N 
HETATM   17  H   UNL     1       3.400  26.250  53.578  1.00  0.00     0.277 HD
HETATM   18  H   UNL     1       3.430  26.802  52.038  1.00  0.00     0.277 HD
HETATM   19  C   UNL     1       3.353  28.334  53.435  1.00  0.00     0.232 C 
HETATM   20  C   UNL     1       3.939  28.626  54.812  1.00  0.00     0.029 C 
HETATM   21  C   UNL     1       5.465  28.494  54.829  1.00  0.00     0.021 C 
ENDBRANCH  12  14
ENDBRANCH   8  12
TORSDOF 2
ENDMDL
MODEL 8
REMARK VINA RESULT:      -7.4      4.193      8.550
REMARK  2 active torsions:
REMARK  status: ('A' for Active; 'I' for Inactive)
REMARK    1  A    between atoms: C_8  and  S_9 
REMARK    2  A    between atoms: S_9  and  C_10 
ROOT
HETATM    1  C   UNL     1       8.730  31.927  62.345  1.00  0.00     0.002 A 
HETATM    2  C   UNL     1       9.200  31.050  61.367  1.00  0.00     0.034 A 
HETATM    3  C   UNL     1       8.511  30.863  60.175  1.00  0.00     0.087 A 
HETATM    4  C   UNL     1       7.302  31.577  59.958  1.00  0.00     0.087 A 
HETATM    5  N   UNL     1       6.590  31.425  58.824  1.00  0.00    -0.232 NA
HETATM    6  C   UNL     1       7.055  30.523  57.936  1.00  0.00     0.164 A 
HETATM    7 CL   UNL     1       6.106  30.387  56.514  1.00  0.00    -0.059 Cl
HETATM    8  C   UNL     1       8.236  29.830  58.143  1.00  0.00     0.165 A 
HETATM    9  N   UNL     1       9.002  30.014  59.247  1.00  0.00    -0.234 NA
HETATM   10  C   UNL     1       6.851  32.454  60.937  1.00  0.00     0.034 A 
HETATM   11  C   UNL     1       7.555  32.634  62.127  1.00  0.00     0.002 A 
ENDROOT
BRANCH   8  12
HETATM   12  S   UNL     1       8.905  28.634  56.997  1.00  0.00     0.078 S 
HETATM   13  O   UNL     1       8.953  29.302  55.654  1.00  0.00    -0.251 OA
BRANCH  12  14
HETATM   14  C   UNL     1       7.535  27.441  56.895  1.00  0.00     0.112 C 
HETATM   15  C   UNL     1       7.831  26.148  57.659  1.00  0.00     0.250 C 
HETATM   16  N   UNL     1       6.615  25.256  57.616  1.00  0.00    -0.074 N 
HETATM   17  H   UNL     1       5.848  25.687  58.154  1.00  0.00     0.277 HD
HETATM   18  H   UNL     1       6.838  24.384  58.118  1.00  0.00     0.277 HD
HETATM   19  C   UNL     1       6.157  24.923  56.234  1.00  0.00     0.232 C 
HETATM   20  C   UNL     1       5.863  26.211  55.474  1.00  0.00     0.029 C 
HETATM   21  C   UNL     1       7.062  27.164  55.469  1.00  0.00     0.021 C 
ENDBRANCH  12  14
ENDBRANCH   8  12
TORSDOF 2
ENDMDL
MODEL 9
REMARK VINA RESULT:      -7.3      4.268      8.614
REMARK  2 active torsions:
REMARK  status: ('A' for Active; 'I' for Inactive)
REMARK    1  A    between atoms: C_8  and  S_9 
REMARK    2  A    between atoms: S_9  and  C_10 
ROOT
HETATM    1  C   UNL     1       7.370  32.457  62.034  1.00  0.00     0.002 A 
HETATM    2  C   UNL     1       6.850  31.865  60.882  1.00  0.00     0.034 A 
HETATM    3  C   UNL     1       7.678  31.262  59.944  1.00  0.00     0.087 A 
HETATM    4  C   UNL     1       9.082  31.259  60.165  1.00  0.00     0.087 A 
HETATM    5  N   UNL     1       9.930  30.697  59.281  1.00  0.00    -0.232 NA
HETATM    6  C   UNL     1       9.383  30.189  58.158  1.00  0.00     0.164 A 
HETATM    7 CL   UNL     1      10.518  29.483  57.084  1.00  0.00    -0.059 Cl
HETATM    8  C   UNL     1       8.015  30.186  57.944  1.00  0.00     0.165 A 
HETATM    9  N   UNL     1       7.137  30.689  58.848  1.00  0.00    -0.234 NA
HETATM   10  C   UNL     1       9.585  31.844  61.319  1.00  0.00     0.034 A 
HETATM   11  C   UNL     1       8.741  32.443  62.254  1.00  0.00     0.002 A 
ENDROOT
BRANCH   8  12
HETATM   12  S   UNL     1       7.236  29.517  56.482  1.00  0.00     0.078 S 
HETATM   13  O   UNL     1       5.966  30.290  56.277  1.00  0.00    -0.251 OA
BRANCH  12  14
HETATM   14  C   UNL     1       6.714  27.879  57.081  1.00  0.00     0.112 C 
HETATM   15  C   UNL     1       7.889  26.907  57.214  1.00  0.00     0.250 C 
HETATM   16  N   UNL     1       7.395  25.612  57.810  1.00  0.00    -0.074 N 
HETATM   17  H   UNL     1       7.098  25.769  58.785  1.00  0.00     0.277 HD
HETATM   18  H   UNL     1       8.194  24.964  57.876  1.00  0.00     0.277 HD
HETATM   19  C   UNL     1       6.299  24.963  57.030  1.00  0.00     0.232 C 
HETATM   20  C   UNL     1       5.131  25.933  56.898  1.00  0.00     0.029 C 
HETATM   21  C   UNL     1       5.559  27.272  56.288  1.00  0.00     0.021 C 
ENDBRANCH  12  14
ENDBRANCH   8  12
TORSDOF 2
ENDMDL
MODEL 10
REMARK VINA RESULT:      -7.2     10.650     12.932
REMARK  2 active torsions:
REMARK  status: ('A' for Active; 'I' for Inactive)
REMARK    1  A    between atoms: C_8  and  S_9 
REMARK    2  A    between atoms: S_9  and  C_10 
ROOT
HETATM    1  C   UNL     1       7.863  31.652  59.867  1.00  0.00     0.002 A 
HETATM    2  C   UNL     1       6.725  32.192  60.467  1.00  0.00     0.034 A 
HETATM    3  C   UNL     1       6.737  32.609  61.792  1.00  0.00     0.087 A 
HETATM    4  C   UNL     1       7.934  32.474  62.547  1.00  0.00     0.087 A 
HETATM    5  N   UNL     1       7.996  32.854  63.838  1.00  0.00    -0.232 NA
HETATM    6  C   UNL     1       6.854  33.316  64.387  1.00  0.00     0.164 A 
HETATM    7 CL   UNL     1       7.009  33.789  66.028  1.00  0.00    -0.059 Cl
HETATM    8  C   UNL     1       5.689  33.454  63.652  1.00  0.00     0.165 A 
HETATM    9  N   UNL     1       5.619  33.138  62.335  1.00  0.00    -0.234 NA
HETATM   10  C   UNL     1       9.061  31.943  61.934  1.00  0.00     0.034 A 
HETATM   11  C   UNL     1       9.035  31.531  60.602  1.00  0.00     0.002 A 
ENDROOT
BRANCH   8  12
HETATM   12  S   UNL     1       4.153  34.071  64.324  1.00  0.00     0.078 S 
HETATM   13  O   UNL     1       3.050  33.477  63.499  1.00  0.00    -0.251 OA
BRANCH  12  14
HETATM   14  C   UNL     1       4.234  35.823  63.835  1.00  0.00     0.112 C 
HETATM   15  C   UNL     1       3.425  36.110  62.568  1.00  0.00     0.250 C 
HETATM   16  N   UNL     1       3.456  37.592  62.286  1.00  0.00    -0.074 N 
HETATM   17  H   UNL     1       2.942  38.098  63.024  1.00  0.00     0.277 HD
HETATM   18  H   UNL     1       2.923  37.766  61.422  1.00  0.00     0.277 HD
HETATM   19  C   UNL     1       4.832  38.152  62.135  1.00  0.00     0.232 C 
HETATM   20  C   UNL     1       5.637  37.864  63.396  1.00  0.00     0.029 C 
HETATM   21  C   UNL     1       5.657  36.371  63.739  1.00  0.00     0.021 C 
ENDBRANCH  12  14
ENDBRANCH   8  12
TORSDOF 2
ENDMDL
