MODEL 1
REMARK VINA RESULT:     -10.8      0.000      0.000
REMARK  7 active torsions:
REMARK  status: ('A' for Active; 'I' for Inactive)
REMARK    1  A    between atoms: N_1  and  C_5 
REMARK    2  A    between atoms: C_11  and  N_12 
REMARK       I    between atoms: N_12  and  C_13 
REMARK    3  A    between atoms: C_13  and  C_15 
REMARK    4  A    between atoms: C_19  and  C_20 
REMARK    5  A    between atoms: C_20  and  N_21 
REMARK       I    between atoms: N_21  and  C_22 
REMARK    6  A    between atoms: C_22  and  C_24 
REMARK    7  A    between atoms: C_27  and  C_30 
ROOT
HETATM    1  C   UNL     1       8.290  30.650  59.647  1.00  0.00     0.033 A 
HETATM    2  C   UNL     1       9.497  30.755  60.349  1.00  0.00     0.017 A 
HETATM    3  C   UNL     1       9.593  31.610  61.447  1.00  0.00     0.002 A 
HETATM    4  C   UNL     1       8.487  32.361  61.850  1.00  0.00     0.009 A 
HETATM    5  C   UNL     1       7.268  32.247  61.174  1.00  0.00    -0.040 A 
HETATM    6  C   UNL     1       7.175  31.379  60.075  1.00  0.00     0.026 A 
ENDROOT
BRANCH   1   7
HETATM    7  C   UNL     1       8.214  29.736  58.483  1.00  0.00     0.257 C 
HETATM    8  N   UNL     1       6.965  29.086  58.241  1.00  0.00    -0.303 N 
HETATM    9  H   UNL     1       6.135  29.378  58.736  1.00  0.00     0.171 HD
HETATM   10  O   UNL     1       9.165  29.535  57.752  1.00  0.00    -0.267 OA
BRANCH   8  11
HETATM   11  C   UNL     1       6.802  28.098  57.369  1.00  0.00     0.152 A 
HETATM   12  N   UNL     1       7.476  26.935  57.500  1.00  0.00    -0.339 N 
HETATM   13  C   UNL     1       7.231  26.037  56.482  1.00  0.00     0.024 A 
HETATM   14  H   UNL     1       8.087  26.778  58.300  1.00  0.00     0.168 HD
HETATM   15  C   UNL     1       7.918  24.723  56.428  1.00  0.00     0.060 C 
HETATM   16  C   UNL     1       6.343  26.489  55.545  1.00  0.00     0.011 A 
HETATM   17  C   UNL     1       7.216  23.779  55.423  1.00  0.00     0.039 C 
HETATM   18  C   UNL     1       6.723  24.454  54.121  1.00  0.00     0.188 C 
HETATM   19  C   UNL     1       5.839  25.703  54.376  1.00  0.00     0.081 C 
HETATM   20  S   UNL     1       5.824  28.066  55.919  1.00  0.00    -0.056 SA
BRANCH  18  21
HETATM   21  N   UNL     1       7.895  24.816  53.259  1.00  0.00    -0.075 N 
HETATM   22  H   UNL     1       8.024  25.840  53.206  1.00  0.00     0.274 HD
HETATM   23  H   UNL     1       8.775  24.457  53.665  1.00  0.00     0.274 HD
HETATM   24  H   UNL     1       7.851  24.459  52.296  1.00  0.00     0.274 HD
ENDBRANCH  18  21
ENDBRANCH   8  11
ENDBRANCH   1   7
BRANCH   5  25
HETATM   25  C   UNL     1       6.081  33.092  61.563  1.00  0.00     0.161 C 
BRANCH  25  26
HETATM   26  N   UNL     1       6.145  33.478  62.953  1.00  0.00    -0.353 N 
HETATM   27  C   UNL     1       5.069  33.374  63.811  1.00  0.00     0.251 C 
HETATM   28  O   UNL     1       3.953  32.993  63.465  1.00  0.00    -0.268 OA
HETATM   29  H   UNL     1       7.066  33.639  63.338  1.00  0.00     0.163 HD
BRANCH  27  30
HETATM   30  C   UNL     1       5.351  33.738  65.230  1.00  0.00     0.032 A 
HETATM   31  C   UNL     1       4.321  34.004  66.140  1.00  0.00     0.018 A 
HETATM   32  C   UNL     1       4.618  34.381  67.458  1.00  0.00     0.015 A 
HETATM   33  C   UNL     1       5.948  34.490  67.889  1.00  0.00    -0.005 A 
HETATM   34  C   UNL     1       6.971  34.189  66.975  1.00  0.00     0.015 A 
HETATM   35  C   UNL     1       6.678  33.813  65.657  1.00  0.00     0.018 A 
BRANCH  33  36
HETATM   36  C   UNL     1       6.295  34.896  69.249  1.00  0.00     0.091 A 
HETATM   37  C   UNL     1       7.373  35.696  69.592  1.00  0.00     0.099 A 
HETATM   38  S   UNL     1       7.368  35.866  71.301  1.00  0.00    -0.008 SA
HETATM   39  N   UNL     1       6.006  34.914  71.484  1.00  0.00    -0.037 NA
HETATM   40  N   UNL     1       5.538  34.460  70.334  1.00  0.00    -0.169 NA
ENDBRANCH  33  36
ENDBRANCH  27  30
ENDBRANCH  25  26
ENDBRANCH   5  25
TORSDOF 7
ENDMDL
MODEL 2
REMARK VINA RESULT:     -10.6      3.685      6.123
REMARK  7 active torsions:
REMARK  status: ('A' for Active; 'I' for Inactive)
REMARK    1  A    between atoms: N_1  and  C_5 
REMARK    2  A    between atoms: C_11  and  N_12 
REMARK       I    between atoms: N_12  and  C_13 
REMARK    3  A    between atoms: C_13  and  C_15 
REMARK    4  A    between atoms: C_19  and  C_20 
REMARK    5  A    between atoms: C_20  and  N_21 
REMARK       I    between atoms: N_21  and  C_22 
REMARK    6  A    between atoms: C_22  and  C_24 
REMARK    7  A    between atoms: C_27  and  C_30 
ROOT
HETATM    1  C   UNL     1       7.497  27.660  55.366  1.00  0.00     0.033 A 
HETATM    2  C   UNL     1       6.912  26.702  56.201  1.00  0.00     0.017 A 
HETATM    3  C   UNL     1       7.138  26.744  57.577  1.00  0.00     0.002 A 
HETATM    4  C   UNL     1       7.947  27.742  58.124  1.00  0.00     0.009 A 
HETATM    5  C   UNL     1       8.517  28.721  57.305  1.00  0.00    -0.040 A 
HETATM    6  C   UNL     1       8.279  28.678  55.923  1.00  0.00     0.026 A 
ENDROOT
BRANCH   1   7
HETATM    7  C   UNL     1       7.242  27.592  53.907  1.00  0.00     0.257 C 
HETATM    8  N   UNL     1       6.256  28.478  53.373  1.00  0.00    -0.303 N 
HETATM    9  H   UNL     1       5.888  29.228  53.937  1.00  0.00     0.171 HD
HETATM   10  O   UNL     1       7.839  26.822  53.179  1.00  0.00    -0.267 OA
BRANCH   8  11
HETATM   11  C   UNL     1       5.780  28.394  52.136  1.00  0.00     0.152 A 
HETATM   12  N   UNL     1       5.429  27.204  51.604  1.00  0.00    -0.339 N 
HETATM   13  C   UNL     1       5.004  27.289  50.294  1.00  0.00     0.024 A 
HETATM   14  H   UNL     1       5.479  26.353  52.161  1.00  0.00     0.168 HD
HETATM   15  C   UNL     1       4.623  26.078  49.525  1.00  0.00     0.060 C 
HETATM   16  C   UNL     1       5.006  28.560  49.791  1.00  0.00     0.011 A 
HETATM   17  C   UNL     1       3.854  26.466  48.240  1.00  0.00     0.039 C 
HETATM   18  C   UNL     1       4.389  27.719  47.505  1.00  0.00     0.188 C 
HETATM   19  C   UNL     1       4.529  28.956  48.429  1.00  0.00     0.081 C 
HETATM   20  S   UNL     1       5.570  29.667  50.955  1.00  0.00    -0.056 SA
BRANCH  18  21
HETATM   21  N   UNL     1       5.704  27.406  46.856  1.00  0.00    -0.075 N 
HETATM   22  H   UNL     1       6.491  27.542  47.511  1.00  0.00     0.274 HD
HETATM   23  H   UNL     1       5.753  26.410  46.584  1.00  0.00     0.274 HD
HETATM   24  H   UNL     1       5.908  27.951  46.009  1.00  0.00     0.274 HD
ENDBRANCH  18  21
ENDBRANCH   8  11
ENDBRANCH   1   7
BRANCH   5  25
HETATM   25  C   UNL     1       9.436  29.773  57.874  1.00  0.00     0.161 C 
BRANCH  25  26
HETATM   26  N   UNL     1       8.898  30.338  59.089  1.00  0.00    -0.353 N 
HETATM   27  C   UNL     1       9.184  31.620  59.511  1.00  0.00     0.251 C 
HETATM   28  O   UNL     1       9.953  32.377  58.924  1.00  0.00    -0.268 OA
HETATM   29  H   UNL     1       8.137  29.836  59.525  1.00  0.00     0.163 HD
BRANCH  27  30
HETATM   30  C   UNL     1       8.466  32.058  60.743  1.00  0.00     0.032 A 
HETATM   31  C   UNL     1       9.060  31.978  62.009  1.00  0.00     0.018 A 
HETATM   32  C   UNL     1       8.345  32.362  63.152  1.00  0.00     0.015 A 
HETATM   33  C   UNL     1       7.031  32.838  63.050  1.00  0.00    -0.005 A 
HETATM   34  C   UNL     1       6.458  32.943  61.771  1.00  0.00     0.015 A 
HETATM   35  C   UNL     1       7.169  32.560  60.626  1.00  0.00     0.018 A 
BRANCH  33  36
HETATM   36  C   UNL     1       6.251  33.231  64.221  1.00  0.00     0.091 A 
HETATM   37  C   UNL     1       6.750  33.907  65.322  1.00  0.00     0.099 A 
HETATM   38  S   UNL     1       5.456  34.116  66.432  1.00  0.00    -0.008 SA
HETATM   39  N   UNL     1       4.359  33.336  65.442  1.00  0.00    -0.037 NA
HETATM   40  N   UNL     1       4.897  32.914  64.311  1.00  0.00    -0.169 NA
ENDBRANCH  33  36
ENDBRANCH  27  30
ENDBRANCH  25  26
ENDBRANCH   5  25
TORSDOF 7
ENDMDL
MODEL 3
REMARK VINA RESULT:     -10.6      2.661      4.446
REMARK  7 active torsions:
REMARK  status: ('A' for Active; 'I' for Inactive)
REMARK    1  A    between atoms: N_1  and  C_5 
REMARK    2  A    between atoms: C_11  and  N_12 
REMARK       I    between atoms: N_12  and  C_13 
REMARK    3  A    between atoms: C_13  and  C_15 
REMARK    4  A    between atoms: C_19  and  C_20 
REMARK    5  A    between atoms: C_20  and  N_21 
REMARK       I    between atoms: N_21  and  C_22 
REMARK    6  A    between atoms: C_22  and  C_24 
REMARK    7  A    between atoms: C_27  and  C_30 
ROOT
HETATM    1  C   UNL     1       6.039  27.909  57.004  1.00  0.00     0.033 A 
HETATM    2  C   UNL     1       4.915  28.663  56.646  1.00  0.00     0.017 A 
HETATM    3  C   UNL     1       4.855  30.019  56.966  1.00  0.00     0.002 A 
HETATM    4  C   UNL     1       5.913  30.628  57.643  1.00  0.00     0.009 A 
HETATM    5  C   UNL     1       7.053  29.892  57.984  1.00  0.00    -0.040 A 
HETATM    6  C   UNL     1       7.112  28.530  57.651  1.00  0.00     0.026 A 
ENDROOT
BRANCH   1   7
HETATM    7  C   UNL     1       6.078  26.469  56.653  1.00  0.00     0.257 C 
HETATM    8  N   UNL     1       7.253  25.986  55.999  1.00  0.00    -0.303 N 
HETATM    9  H   UNL     1       8.078  26.564  55.944  1.00  0.00     0.171 HD
HETATM   10  O   UNL     1       5.159  25.714  56.905  1.00  0.00    -0.267 OA
BRANCH   8  11
HETATM   11  C   UNL     1       7.351  24.782  55.448  1.00  0.00     0.152 A 
HETATM   12  N   UNL     1       7.688  23.703  56.188  1.00  0.00    -0.339 N 
HETATM   13  C   UNL     1       7.796  22.541  55.453  1.00  0.00     0.024 A 
HETATM   14  H   UNL     1       7.826  23.788  57.194  1.00  0.00     0.168 HD
HETATM   15  C   UNL     1       8.205  21.262  56.084  1.00  0.00     0.060 C 
HETATM   16  C   UNL     1       7.528  22.700  54.122  1.00  0.00     0.011 A 
HETATM   17  C   UNL     1       7.902  20.068  55.149  1.00  0.00     0.039 C 
HETATM   18  C   UNL     1       8.182  20.320  53.647  1.00  0.00     0.188 C 
HETATM   19  C   UNL     1       7.498  21.602  53.105  1.00  0.00     0.081 C 
HETATM   20  S   UNL     1       7.161  24.324  53.771  1.00  0.00    -0.056 SA
BRANCH  18  21
HETATM   21  N   UNL     1       9.660  20.381  53.409  1.00  0.00    -0.075 N 
HETATM   22  H   UNL     1       9.882  20.384  52.400  1.00  0.00     0.274 HD
HETATM   23  H   UNL     1      10.055  21.266  53.770  1.00  0.00     0.274 HD
HETATM   24  H   UNL     1      10.201  19.622  53.843  1.00  0.00     0.274 HD
ENDBRANCH  18  21
ENDBRANCH   8  11
ENDBRANCH   1   7
BRANCH   5  25
HETATM   25  C   UNL     1       8.181  30.522  58.762  1.00  0.00     0.161 C 
BRANCH  25  26
HETATM   26  N   UNL     1       7.724  31.022  60.037  1.00  0.00    -0.353 N 
HETATM   27  C   UNL     1       8.142  32.227  60.564  1.00  0.00     0.251 C 
HETATM   28  O   UNL     1       8.970  32.958  60.027  1.00  0.00    -0.268 OA
HETATM   29  H   UNL     1       6.925  30.558  60.448  1.00  0.00     0.163 HD
BRANCH  27  30
HETATM   30  C   UNL     1       7.493  32.617  61.850  1.00  0.00     0.032 A 
HETATM   31  C   UNL     1       6.198  33.150  61.889  1.00  0.00     0.018 A 
HETATM   32  C   UNL     1       5.630  33.543  63.109  1.00  0.00     0.015 A 
HETATM   33  C   UNL     1       6.342  33.404  64.308  1.00  0.00    -0.005 A 
HETATM   34  C   UNL     1       7.627  32.839  64.259  1.00  0.00     0.015 A 
HETATM   35  C   UNL     1       8.199  32.446  63.042  1.00  0.00     0.018 A 
BRANCH  33  36
HETATM   36  C   UNL     1       5.788  33.819  65.596  1.00  0.00     0.091 A 
HETATM   37  C   UNL     1       6.532  34.247  66.683  1.00  0.00     0.099 A 
HETATM   38  S   UNL     1       5.432  34.597  67.956  1.00  0.00    -0.008 SA
HETATM   39  N   UNL     1       4.097  34.179  67.042  1.00  0.00    -0.037 NA
HETATM   40  N   UNL     1       4.414  33.782  65.821  1.00  0.00    -0.169 NA
ENDBRANCH  33  36
ENDBRANCH  27  30
ENDBRANCH  25  26
ENDBRANCH   5  25
TORSDOF 7
ENDMDL
MODEL 4
REMARK VINA RESULT:     -10.2      3.595     13.572
REMARK  7 active torsions:
REMARK  status: ('A' for Active; 'I' for Inactive)
REMARK    1  A    between atoms: N_1  and  C_5 
REMARK    2  A    between atoms: C_11  and  N_12 
REMARK       I    between atoms: N_12  and  C_13 
REMARK    3  A    between atoms: C_13  and  C_15 
REMARK    4  A    between atoms: C_19  and  C_20 
REMARK    5  A    between atoms: C_20  and  N_21 
REMARK       I    between atoms: N_21  and  C_22 
REMARK    6  A    between atoms: C_22  and  C_24 
REMARK    7  A    between atoms: C_27  and  C_30 
ROOT
HETATM    1  C   UNL     1       9.077  30.411  58.357  1.00  0.00     0.033 A 
HETATM    2  C   UNL     1      10.271  30.579  57.646  1.00  0.00     0.017 A 
HETATM    3  C   UNL     1      10.621  29.670  56.647  1.00  0.00     0.002 A 
HETATM    4  C   UNL     1       9.783  28.594  56.353  1.00  0.00     0.009 A 
HETATM    5  C   UNL     1       8.575  28.428  57.038  1.00  0.00    -0.040 A 
HETATM    6  C   UNL     1       8.223  29.350  58.035  1.00  0.00     0.026 A 
ENDROOT
BRANCH   1   7
HETATM    7  C   UNL     1       8.728  31.389  59.414  1.00  0.00     0.257 C 
HETATM    8  N   UNL     1       7.703  31.018  60.337  1.00  0.00    -0.303 N 
HETATM    9  H   UNL     1       7.366  30.068  60.368  1.00  0.00     0.171 HD
HETATM   10  O   UNL     1       9.282  32.468  59.509  1.00  0.00    -0.267 OA
BRANCH   8  11
HETATM   11  C   UNL     1       7.148  31.859  61.203  1.00  0.00     0.152 A 
HETATM   12  N   UNL     1       7.712  32.091  62.408  1.00  0.00    -0.339 N 
HETATM   13  C   UNL     1       6.981  32.947  63.204  1.00  0.00     0.024 A 
HETATM   14  H   UNL     1       8.602  31.659  62.654  1.00  0.00     0.168 HD
HETATM   15  C   UNL     1       7.417  33.283  64.582  1.00  0.00     0.060 C 
HETATM   16  C   UNL     1       5.835  33.408  62.617  1.00  0.00     0.011 A 
HETATM   17  C   UNL     1       6.647  34.514  65.116  1.00  0.00     0.039 C 
HETATM   18  C   UNL     1       5.146  34.565  64.740  1.00  0.00     0.188 C 
HETATM   19  C   UNL     1       4.891  34.402  63.218  1.00  0.00     0.081 C 
HETATM   20  S   UNL     1       5.648  32.746  61.061  1.00  0.00    -0.056 SA
BRANCH  18  21
HETATM   21  N   UNL     1       4.393  33.519  65.505  1.00  0.00    -0.075 N 
HETATM   22  H   UNL     1       4.992  33.061  66.211  1.00  0.00     0.274 HD
HETATM   23  H   UNL     1       3.622  33.944  66.047  1.00  0.00     0.274 HD
HETATM   24  H   UNL     1       3.972  32.780  64.929  1.00  0.00     0.274 HD
ENDBRANCH  18  21
ENDBRANCH   8  11
ENDBRANCH   1   7
BRANCH   5  25
HETATM   25  C   UNL     1       7.684  27.240  56.769  1.00  0.00     0.161 C 
BRANCH  25  26
HETATM   26  N   UNL     1       7.124  27.295  55.439  1.00  0.00    -0.353 N 
HETATM   27  C   UNL     1       7.021  26.188  54.622  1.00  0.00     0.251 C 
HETATM   28  O   UNL     1       7.436  25.073  54.927  1.00  0.00    -0.268 OA
HETATM   29  H   UNL     1       6.617  28.135  55.194  1.00  0.00     0.163 HD
BRANCH  27  30
HETATM   30  C   UNL     1       6.334  26.422  53.319  1.00  0.00     0.032 A 
HETATM   31  C   UNL     1       5.914  25.361  52.507  1.00  0.00     0.018 A 
HETATM   32  C   UNL     1       5.306  25.613  51.270  1.00  0.00     0.015 A 
HETATM   33  C   UNL     1       5.100  26.927  50.826  1.00  0.00    -0.005 A 
HETATM   34  C   UNL     1       5.498  27.983  51.664  1.00  0.00     0.015 A 
HETATM   35  C   UNL     1       6.106  27.735  52.901  1.00  0.00     0.018 A 
BRANCH  33  36
HETATM   36  C   UNL     1       4.485  27.227  49.536  1.00  0.00     0.091 A 
HETATM   37  C   UNL     1       3.473  28.151  49.330  1.00  0.00     0.099 A 
HETATM   38  S   UNL     1       3.078  28.122  47.658  1.00  0.00    -0.008 SA
HETATM   39  N   UNL     1       4.212  26.943  47.316  1.00  0.00    -0.037 NA
HETATM   40  N   UNL     1       4.884  26.551  48.385  1.00  0.00    -0.169 NA
ENDBRANCH  33  36
ENDBRANCH  27  30
ENDBRANCH  25  26
ENDBRANCH   5  25
TORSDOF 7
ENDMDL
MODEL 5
REMARK VINA RESULT:     -10.0      3.546     13.253
REMARK  7 active torsions:
REMARK  status: ('A' for Active; 'I' for Inactive)
REMARK    1  A    between atoms: N_1  and  C_5 
REMARK    2  A    between atoms: C_11  and  N_12 
REMARK       I    between atoms: N_12  and  C_13 
REMARK    3  A    between atoms: C_13  and  C_15 
REMARK    4  A    between atoms: C_19  and  C_20 
REMARK    5  A    between atoms: C_20  and  N_21 
REMARK       I    between atoms: N_21  and  C_22 
REMARK    6  A    between atoms: C_22  and  C_24 
REMARK    7  A    between atoms: C_27  and  C_30 
ROOT
HETATM    1  C   UNL     1       8.123  31.213  59.082  1.00  0.00     0.033 A 
HETATM    2  C   UNL     1       9.484  30.930  58.919  1.00  0.00     0.017 A 
HETATM    3  C   UNL     1       9.916  30.191  57.818  1.00  0.00     0.002 A 
HETATM    4  C   UNL     1       8.993  29.733  56.876  1.00  0.00     0.009 A 
HETATM    5  C   UNL     1       7.633  30.030  57.012  1.00  0.00    -0.040 A 
HETATM    6  C   UNL     1       7.206  30.782  58.117  1.00  0.00     0.026 A 
ENDROOT
BRANCH   1   7
HETATM    7  C   UNL     1       7.690  32.000  60.261  1.00  0.00     0.257 C 
HETATM    8  N   UNL     1       6.339  31.839  60.696  1.00  0.00    -0.303 N 
HETATM    9  H   UNL     1       5.770  31.094  60.322  1.00  0.00     0.171 HD
HETATM   10  O   UNL     1       8.441  32.756  60.849  1.00  0.00    -0.267 OA
BRANCH   8  11
HETATM   11  C   UNL     1       5.755  32.616  61.601  1.00  0.00     0.152 A 
HETATM   12  N   UNL     1       5.724  33.958  61.450  1.00  0.00    -0.339 N 
HETATM   13  C   UNL     1       5.127  34.618  62.504  1.00  0.00     0.024 A 
HETATM   14  H   UNL     1       6.107  34.394  60.613  1.00  0.00     0.168 HD
HETATM   15  C   UNL     1       5.043  36.099  62.541  1.00  0.00     0.060 C 
HETATM   16  C   UNL     1       4.669  33.789  63.490  1.00  0.00     0.011 A 
HETATM   17  C   UNL     1       4.032  36.563  63.615  1.00  0.00     0.039 C 
HETATM   18  C   UNL     1       4.051  35.752  64.933  1.00  0.00     0.188 C 
HETATM   19  C   UNL     1       3.920  34.222  64.711  1.00  0.00     0.081 C 
HETATM   20  S   UNL     1       5.009  32.164  63.116  1.00  0.00    -0.056 SA
BRANCH  18  21
HETATM   21  N   UNL     1       5.302  36.057  65.701  1.00  0.00    -0.075 N 
HETATM   22  H   UNL     1       5.336  35.538  66.593  1.00  0.00     0.274 HD
HETATM   23  H   UNL     1       6.140  35.746  65.180  1.00  0.00     0.274 HD
HETATM   24  H   UNL     1       5.446  37.052  65.916  1.00  0.00     0.274 HD
ENDBRANCH  18  21
ENDBRANCH   8  11
ENDBRANCH   1   7
BRANCH   5  25
HETATM   25  C   UNL     1       6.618  29.497  56.032  1.00  0.00     0.161 C 
BRANCH  25  26
HETATM   26  N   UNL     1       6.882  28.116  55.703  1.00  0.00    -0.353 N 
HETATM   27  C   UNL     1       7.009  27.666  54.405  1.00  0.00     0.251 C 
HETATM   28  O   UNL     1       6.863  28.380  53.416  1.00  0.00    -0.268 OA
HETATM   29  H   UNL     1       7.176  27.516  56.461  1.00  0.00     0.163 HD
BRANCH  27  30
HETATM   30  C   UNL     1       7.369  26.224  54.265  1.00  0.00     0.032 A 
HETATM   31  C   UNL     1       7.684  25.662  53.022  1.00  0.00     0.018 A 
HETATM   32  C   UNL     1       7.981  24.295  52.918  1.00  0.00     0.015 A 
HETATM   33  C   UNL     1       7.975  23.472  54.052  1.00  0.00    -0.005 A 
HETATM   34  C   UNL     1       7.688  24.055  55.297  1.00  0.00     0.015 A 
HETATM   35  C   UNL     1       7.390  25.420  55.406  1.00  0.00     0.018 A 
BRANCH  33  36
HETATM   36  C   UNL     1       8.263  22.041  53.978  1.00  0.00     0.091 A 
HETATM   37  C   UNL     1       8.815  21.285  54.999  1.00  0.00     0.099 A 
HETATM   38  S   UNL     1       8.977  19.675  54.421  1.00  0.00    -0.008 SA
HETATM   39  N   UNL     1       8.341  20.051  52.922  1.00  0.00    -0.037 NA
HETATM   40  N   UNL     1       8.007  21.326  52.810  1.00  0.00    -0.169 NA
ENDBRANCH  33  36
ENDBRANCH  27  30
ENDBRANCH  25  26
ENDBRANCH   5  25
TORSDOF 7
ENDMDL
MODEL 6
REMARK VINA RESULT:     -10.0      6.734     10.028
REMARK  7 active torsions:
REMARK  status: ('A' for Active; 'I' for Inactive)
REMARK    1  A    between atoms: N_1  and  C_5 
REMARK    2  A    between atoms: C_11  and  N_12 
REMARK       I    between atoms: N_12  and  C_13 
REMARK    3  A    between atoms: C_13  and  C_15 
REMARK    4  A    between atoms: C_19  and  C_20 
REMARK    5  A    between atoms: C_20  and  N_21 
REMARK       I    between atoms: N_21  and  C_22 
REMARK    6  A    between atoms: C_22  and  C_24 
REMARK    7  A    between atoms: C_27  and  C_30 
ROOT
HETATM    1  C   UNL     1       6.632  24.331  53.192  1.00  0.00     0.033 A 
HETATM    2  C   UNL     1       7.602  23.449  52.702  1.00  0.00     0.017 A 
HETATM    3  C   UNL     1       8.460  22.794  53.585  1.00  0.00     0.002 A 
HETATM    4  C   UNL     1       8.353  23.014  54.960  1.00  0.00     0.009 A 
HETATM    5  C   UNL     1       7.371  23.873  55.466  1.00  0.00    -0.040 A 
HETATM    6  C   UNL     1       6.506  24.522  54.573  1.00  0.00     0.026 A 
ENDROOT
BRANCH   1   7
HETATM    7  C   UNL     1       5.734  25.016  52.232  1.00  0.00     0.257 C 
HETATM    8  N   UNL     1       6.292  26.080  51.459  1.00  0.00    -0.303 N 
HETATM    9  H   UNL     1       7.289  26.230  51.446  1.00  0.00     0.171 HD
HETATM   10  O   UNL     1       4.568  24.698  52.093  1.00  0.00    -0.267 OA
BRANCH   8  11
HETATM   11  C   UNL     1       5.570  26.909  50.713  1.00  0.00     0.152 A 
HETATM   12  N   UNL     1       5.024  26.502  49.547  1.00  0.00    -0.339 N 
HETATM   13  C   UNL     1       4.352  27.500  48.874  1.00  0.00     0.024 A 
HETATM   14  H   UNL     1       5.118  25.534  49.242  1.00  0.00     0.168 HD
HETATM   15  C   UNL     1       3.728  27.255  47.550  1.00  0.00     0.060 C 
HETATM   16  C   UNL     1       4.354  28.704  49.521  1.00  0.00     0.011 A 
HETATM   17  C   UNL     1       2.748  28.396  47.187  1.00  0.00     0.039 C 
HETATM   18  C   UNL     1       3.222  29.818  47.573  1.00  0.00     0.188 C 
HETATM   19  C   UNL     1       3.644  29.939  49.061  1.00  0.00     0.081 C 
HETATM   20  S   UNL     1       5.228  28.603  50.978  1.00  0.00    -0.056 SA
BRANCH  18  21
HETATM   21  N   UNL     1       4.349  30.240  46.680  1.00  0.00    -0.075 N 
HETATM   22  H   UNL     1       4.397  29.657  45.829  1.00  0.00     0.274 HD
HETATM   23  H   UNL     1       4.205  31.204  46.334  1.00  0.00     0.274 HD
HETATM   24  H   UNL     1       5.279  30.223  47.119  1.00  0.00     0.274 HD
ENDBRANCH  18  21
ENDBRANCH   8  11
ENDBRANCH   1   7
BRANCH   5  25
HETATM   25  C   UNL     1       7.277  24.163  56.943  1.00  0.00     0.161 C 
BRANCH  25  26
HETATM   26  N   UNL     1       6.860  25.524  57.185  1.00  0.00    -0.353 N 
HETATM   27  C   UNL     1       7.751  26.557  57.391  1.00  0.00     0.251 C 
HETATM   28  O   UNL     1       8.970  26.409  57.436  1.00  0.00    -0.268 OA
HETATM   29  H   UNL     1       5.890  25.743  56.996  1.00  0.00     0.163 HD
BRANCH  27  30
HETATM   30  C   UNL     1       7.135  27.908  57.536  1.00  0.00     0.032 A 
HETATM   31  C   UNL     1       7.836  28.979  58.103  1.00  0.00     0.018 A 
HETATM   32  C   UNL     1       7.217  30.227  58.260  1.00  0.00     0.015 A 
HETATM   33  C   UNL     1       5.892  30.427  57.848  1.00  0.00    -0.005 A 
HETATM   34  C   UNL     1       5.211  29.353  57.252  1.00  0.00     0.015 A 
HETATM   35  C   UNL     1       5.825  28.104  57.093  1.00  0.00     0.018 A 
BRANCH  33  36
HETATM   36  C   UNL     1       5.210  31.709  58.012  1.00  0.00     0.091 A 
HETATM   37  C   UNL     1       4.036  31.903  58.723  1.00  0.00     0.099 A 
HETATM   38  S   UNL     1       3.628  33.567  58.602  1.00  0.00    -0.008 SA
HETATM   39  N   UNL     1       4.960  33.921  57.658  1.00  0.00    -0.037 NA
HETATM   40  N   UNL     1       5.712  32.862  57.413  1.00  0.00    -0.169 NA
ENDBRANCH  33  36
ENDBRANCH  27  30
ENDBRANCH  25  26
ENDBRANCH   5  25
TORSDOF 7
ENDMDL
MODEL 7
REMARK VINA RESULT:     -10.0      4.029      7.054
REMARK  7 active torsions:
REMARK  status: ('A' for Active; 'I' for Inactive)
REMARK    1  A    between atoms: N_1  and  C_5 
REMARK    2  A    between atoms: C_11  and  N_12 
REMARK       I    between atoms: N_12  and  C_13 
REMARK    3  A    between atoms: C_13  and  C_15 
REMARK    4  A    between atoms: C_19  and  C_20 
REMARK    5  A    between atoms: C_20  and  N_21 
REMARK       I    between atoms: N_21  and  C_22 
REMARK    6  A    between atoms: C_22  and  C_24 
REMARK    7  A    between atoms: C_27  and  C_30 
ROOT
HETATM    1  C   UNL     1       6.422  26.332  55.066  1.00  0.00     0.033 A 
HETATM    2  C   UNL     1       6.397  25.214  55.909  1.00  0.00     0.017 A 
HETATM    3  C   UNL     1       7.127  25.221  57.097  1.00  0.00     0.002 A 
HETATM    4  C   UNL     1       7.883  26.340  57.450  1.00  0.00     0.009 A 
HETATM    5  C   UNL     1       7.897  27.473  56.630  1.00  0.00    -0.040 A 
HETATM    6  C   UNL     1       7.154  27.464  55.440  1.00  0.00     0.026 A 
ENDROOT
BRANCH   1   7
HETATM    7  C   UNL     1       5.639  26.299  53.808  1.00  0.00     0.257 C 
HETATM    8  N   UNL     1       5.869  27.348  52.866  1.00  0.00    -0.303 N 
HETATM    9  H   UNL     1       6.653  27.972  52.982  1.00  0.00     0.171 HD
HETATM   10  O   UNL     1       4.829  25.423  53.570  1.00  0.00    -0.267 OA
BRANCH   8  11
HETATM   11  C   UNL     1       5.109  27.563  51.799  1.00  0.00     0.152 A 
HETATM   12  N   UNL     1       3.947  28.246  51.897  1.00  0.00    -0.339 N 
HETATM   13  C   UNL     1       3.257  28.334  50.706  1.00  0.00     0.024 A 
HETATM   14  H   UNL     1       3.658  28.650  52.786  1.00  0.00     0.168 HD
HETATM   15  C   UNL     1       1.936  29.005  50.627  1.00  0.00     0.060 C 
HETATM   16  C   UNL     1       3.885  27.728  49.654  1.00  0.00     0.011 A 
HETATM   17  C   UNL     1       1.552  29.286  49.155  1.00  0.00     0.039 C 
HETATM   18  C   UNL     1       1.917  28.163  48.153  1.00  0.00     0.188 C 
HETATM   19  C   UNL     1       3.403  27.729  48.237  1.00  0.00     0.081 C 
HETATM   20  S   UNL     1       5.346  27.013  50.156  1.00  0.00    -0.056 SA
BRANCH  18  21
HETATM   21  N   UNL     1       1.020  26.981  48.364  1.00  0.00    -0.075 N 
HETATM   22  H   UNL     1       0.025  27.236  48.258  1.00  0.00     0.274 HD
HETATM   23  H   UNL     1       1.187  26.259  47.643  1.00  0.00     0.274 HD
HETATM   24  H   UNL     1       1.125  26.515  49.274  1.00  0.00     0.274 HD
ENDBRANCH  18  21
ENDBRANCH   8  11
ENDBRANCH   1   7
BRANCH   5  25
HETATM   25  C   UNL     1       8.751  28.669  56.970  1.00  0.00     0.161 C 
BRANCH  25  26
HETATM   26  N   UNL     1       8.298  29.310  58.182  1.00  0.00    -0.353 N 
HETATM   27  C   UNL     1       8.902  30.433  58.708  1.00  0.00     0.251 C 
HETATM   28  O   UNL     1       9.902  30.960  58.227  1.00  0.00    -0.268 OA
HETATM   29  H   UNL     1       7.390  29.032  58.531  1.00  0.00     0.163 HD
BRANCH  27  30
HETATM   30  C   UNL     1       8.239  31.004  59.917  1.00  0.00     0.032 A 
HETATM   31  C   UNL     1       7.094  31.804  59.819  1.00  0.00     0.018 A 
HETATM   32  C   UNL     1       6.516  32.358  60.970  1.00  0.00     0.015 A 
HETATM   33  C   UNL     1       7.067  32.116  62.236  1.00  0.00    -0.005 A 
HETATM   34  C   UNL     1       8.197  31.286  62.323  1.00  0.00     0.015 A 
HETATM   35  C   UNL     1       8.778  30.730  61.176  1.00  0.00     0.018 A 
BRANCH  33  36
HETATM   36  C   UNL     1       6.502  32.690  63.455  1.00  0.00     0.091 A 
HETATM   37  C   UNL     1       7.205  33.436  64.386  1.00  0.00     0.099 A 
HETATM   38  S   UNL     1       6.112  33.862  65.641  1.00  0.00    -0.008 SA
HETATM   39  N   UNL     1       4.830  33.070  64.918  1.00  0.00    -0.037 NA
HETATM   40  N   UNL     1       5.161  32.491  63.777  1.00  0.00    -0.169 NA
ENDBRANCH  33  36
ENDBRANCH  27  30
ENDBRANCH  25  26
ENDBRANCH   5  25
TORSDOF 7
ENDMDL
MODEL 8
REMARK VINA RESULT:      -9.8      5.067     12.819
REMARK  7 active torsions:
REMARK  status: ('A' for Active; 'I' for Inactive)
REMARK    1  A    between atoms: N_1  and  C_5 
REMARK    2  A    between atoms: C_11  and  N_12 
REMARK       I    between atoms: N_12  and  C_13 
REMARK    3  A    between atoms: C_13  and  C_15 
REMARK    4  A    between atoms: C_19  and  C_20 
REMARK    5  A    between atoms: C_20  and  N_21 
REMARK       I    between atoms: N_21  and  C_22 
REMARK    6  A    between atoms: C_22  and  C_24 
REMARK    7  A    between atoms: C_27  and  C_30 
ROOT
HETATM    1  C   UNL     1       4.478  30.712  55.020  1.00  0.00     0.033 A 
HETATM    2  C   UNL     1       3.968  31.971  54.679  1.00  0.00     0.017 A 
HETATM    3  C   UNL     1       3.312  32.150  53.462  1.00  0.00     0.002 A 
HETATM    4  C   UNL     1       3.159  31.077  52.582  1.00  0.00     0.009 A 
HETATM    5  C   UNL     1       3.640  29.808  52.922  1.00  0.00    -0.040 A 
HETATM    6  C   UNL     1       4.292  29.632  54.151  1.00  0.00     0.026 A 
ENDROOT
BRANCH   1   7
HETATM    7  C   UNL     1       5.173  30.548  56.319  1.00  0.00     0.257 C 
HETATM    8  N   UNL     1       5.146  31.656  57.221  1.00  0.00    -0.303 N 
HETATM    9  H   UNL     1       4.533  32.438  57.047  1.00  0.00     0.171 HD
HETATM   10  O   UNL     1       5.746  29.519  56.624  1.00  0.00    -0.267 OA
BRANCH   8  11
HETATM   11  C   UNL     1       5.884  31.732  58.322  1.00  0.00     0.152 A 
HETATM   12  N   UNL     1       7.195  31.407  58.306  1.00  0.00    -0.339 N 
HETATM   13  C   UNL     1       7.799  31.490  59.542  1.00  0.00     0.024 A 
HETATM   14  H   UNL     1       7.652  31.143  57.434  1.00  0.00     0.168 HD
HETATM   15  C   UNL     1       9.225  31.125  59.732  1.00  0.00     0.060 C 
HETATM   16  C   UNL     1       6.962  31.899  60.543  1.00  0.00     0.011 A 
HETATM   17  C   UNL     1       9.747  31.642  61.094  1.00  0.00     0.039 C 
HETATM   18  C   UNL     1       8.749  31.520  62.270  1.00  0.00     0.188 C 
HETATM   19  C   UNL     1       7.363  32.146  61.964  1.00  0.00     0.081 C 
HETATM   20  S   UNL     1       5.391  32.158  59.945  1.00  0.00    -0.056 SA
BRANCH  18  21
HETATM   21  N   UNL     1       8.592  30.080  62.658  1.00  0.00    -0.075 N 
HETATM   22  H   UNL     1       7.864  29.959  63.381  1.00  0.00     0.274 HD
HETATM   23  H   UNL     1       8.264  29.516  61.855  1.00  0.00     0.274 HD
HETATM   24  H   UNL     1       9.449  29.628  63.002  1.00  0.00     0.274 HD
ENDBRANCH  18  21
ENDBRANCH   8  11
ENDBRANCH   1   7
BRANCH   5  25
HETATM   25  C   UNL     1       3.531  28.652  51.959  1.00  0.00     0.161 C 
BRANCH  25  26
HETATM   26  N   UNL     1       4.245  27.495  52.447  1.00  0.00    -0.353 N 
HETATM   27  C   UNL     1       5.299  26.921  51.765  1.00  0.00     0.251 C 
HETATM   28  O   UNL     1       5.694  27.307  50.667  1.00  0.00    -0.268 OA
HETATM   29  H   UNL     1       4.084  27.233  53.410  1.00  0.00     0.163 HD
BRANCH  27  30
HETATM   30  C   UNL     1       5.968  25.788  52.468  1.00  0.00     0.032 A 
HETATM   31  C   UNL     1       7.069  25.125  51.911  1.00  0.00     0.018 A 
HETATM   32  C   UNL     1       7.653  24.039  52.579  1.00  0.00     0.015 A 
HETATM   33  C   UNL     1       7.152  23.602  53.813  1.00  0.00    -0.005 A 
HETATM   34  C   UNL     1       6.068  24.296  54.375  1.00  0.00     0.015 A 
HETATM   35  C   UNL     1       5.481  25.382  53.712  1.00  0.00     0.018 A 
BRANCH  33  36
HETATM   36  C   UNL     1       7.725  22.464  54.528  1.00  0.00     0.091 A 
HETATM   37  C   UNL     1       8.119  22.472  55.856  1.00  0.00     0.099 A 
HETATM   38  S   UNL     1       8.744  20.914  56.220  1.00  0.00    -0.008 SA
HETATM   39  N   UNL     1       8.473  20.343  54.673  1.00  0.00    -0.037 NA
HETATM   40  N   UNL     1       7.938  21.251  53.876  1.00  0.00    -0.169 NA
ENDBRANCH  33  36
ENDBRANCH  27  30
ENDBRANCH  25  26
ENDBRANCH   5  25
TORSDOF 7
ENDMDL
MODEL 9
REMARK VINA RESULT:      -9.7      2.819     12.898
REMARK  7 active torsions:
REMARK  status: ('A' for Active; 'I' for Inactive)
REMARK    1  A    between atoms: N_1  and  C_5 
REMARK    2  A    between atoms: C_11  and  N_12 
REMARK       I    between atoms: N_12  and  C_13 
REMARK    3  A    between atoms: C_13  and  C_15 
REMARK    4  A    between atoms: C_19  and  C_20 
REMARK    5  A    between atoms: C_20  and  N_21 
REMARK       I    between atoms: N_21  and  C_22 
REMARK    6  A    between atoms: C_22  and  C_24 
REMARK    7  A    between atoms: C_27  and  C_30 
ROOT
HETATM    1  C   UNL     1       7.931  31.288  60.322  1.00  0.00     0.033 A 
HETATM    2  C   UNL     1       9.327  31.223  60.240  1.00  0.00     0.017 A 
HETATM    3  C   UNL     1       9.937  30.811  59.056  1.00  0.00     0.002 A 
HETATM    4  C   UNL     1       9.159  30.464  57.950  1.00  0.00     0.009 A 
HETATM    5  C   UNL     1       7.764  30.550  58.009  1.00  0.00    -0.040 A 
HETATM    6  C   UNL     1       7.156  30.973  59.201  1.00  0.00     0.026 A 
ENDROOT
BRANCH   1   7
HETATM    7  C   UNL     1       7.307  31.728  61.593  1.00  0.00     0.257 C 
HETATM    8  N   UNL     1       6.729  33.034  61.621  1.00  0.00    -0.303 N 
HETATM    9  H   UNL     1       6.601  33.552  60.765  1.00  0.00     0.171 HD
HETATM   10  O   UNL     1       7.277  31.019  62.581  1.00  0.00    -0.267 OA
BRANCH   8  11
HETATM   11  C   UNL     1       6.319  33.637  62.731  1.00  0.00     0.152 A 
HETATM   12  N   UNL     1       6.896  33.372  63.923  1.00  0.00    -0.339 N 
HETATM   13  C   UNL     1       6.316  34.043  64.979  1.00  0.00     0.024 A 
HETATM   14  H   UNL     1       7.690  32.737  63.983  1.00  0.00     0.168 HD
HETATM   15  C   UNL     1       6.783  33.841  66.373  1.00  0.00     0.060 C 
HETATM   16  C   UNL     1       5.280  34.859  64.616  1.00  0.00     0.011 A 
HETATM   17  C   UNL     1       6.235  34.952  67.300  1.00  0.00     0.039 C 
HETATM   18  C   UNL     1       4.774  35.380  67.022  1.00  0.00     0.188 C 
HETATM   19  C   UNL     1       4.519  35.757  65.539  1.00  0.00     0.081 C 
HETATM   20  S   UNL     1       5.003  34.771  62.939  1.00  0.00    -0.056 SA
BRANCH  18  21
HETATM   21  N   UNL     1       3.834  34.292  67.448  1.00  0.00    -0.075 N 
HETATM   22  H   UNL     1       4.321  33.386  67.542  1.00  0.00     0.274 HD
HETATM   23  H   UNL     1       3.449  34.486  68.388  1.00  0.00     0.274 HD
HETATM   24  H   UNL     1       3.028  34.148  66.826  1.00  0.00     0.274 HD
ENDBRANCH  18  21
ENDBRANCH   8  11
ENDBRANCH   1   7
BRANCH   5  25
HETATM   25  C   UNL     1       6.908  30.127  56.841  1.00  0.00     0.161 C 
BRANCH  25  26
HETATM   26  N   UNL     1       7.131  28.741  56.502  1.00  0.00    -0.353 N 
HETATM   27  C   UNL     1       6.208  27.749  56.758  1.00  0.00     0.251 C 
HETATM   28  O   UNL     1       5.141  27.939  57.337  1.00  0.00    -0.268 OA
HETATM   29  H   UNL     1       7.904  28.544  55.881  1.00  0.00     0.163 HD
BRANCH  27  30
HETATM   30  C   UNL     1       6.577  26.393  56.256  1.00  0.00     0.032 A 
HETATM   31  C   UNL     1       7.549  25.611  56.893  1.00  0.00     0.018 A 
HETATM   32  C   UNL     1       7.901  24.357  56.375  1.00  0.00     0.015 A 
HETATM   33  C   UNL     1       7.285  23.861  55.218  1.00  0.00    -0.005 A 
HETATM   34  C   UNL     1       6.289  24.641  54.607  1.00  0.00     0.015 A 
HETATM   35  C   UNL     1       5.934  25.895  55.121  1.00  0.00     0.018 A 
BRANCH  33  36
HETATM   36  C   UNL     1       7.638  22.566  54.640  1.00  0.00     0.091 A 
HETATM   37  C   UNL     1       7.908  22.337  53.301  1.00  0.00     0.099 A 
HETATM   38  S   UNL     1       8.247  20.663  53.120  1.00  0.00    -0.008 SA
HETATM   39  N   UNL     1       8.026  20.348  54.747  1.00  0.00    -0.037 NA
HETATM   40  N   UNL     1       7.705  21.427  55.440  1.00  0.00    -0.169 NA
ENDBRANCH  33  36
ENDBRANCH  27  30
ENDBRANCH  25  26
ENDBRANCH   5  25
TORSDOF 7
ENDMDL
MODEL 10
REMARK VINA RESULT:      -9.4      3.305     13.223
REMARK  7 active torsions:
REMARK  status: ('A' for Active; 'I' for Inactive)
REMARK    1  A    between atoms: N_1  and  C_5 
REMARK    2  A    between atoms: C_11  and  N_12 
REMARK       I    between atoms: N_12  and  C_13 
REMARK    3  A    between atoms: C_13  and  C_15 
REMARK    4  A    between atoms: C_19  and  C_20 
REMARK    5  A    between atoms: C_20  and  N_21 
REMARK       I    between atoms: N_21  and  C_22 
REMARK    6  A    between atoms: C_22  and  C_24 
REMARK    7  A    between atoms: C_27  and  C_30 
ROOT
HETATM    1  C   UNL     1       5.029  31.626  59.012  1.00  0.00     0.033 A 
HETATM    2  C   UNL     1       3.762  31.176  58.622  1.00  0.00     0.017 A 
HETATM    3  C   UNL     1       3.630  30.338  57.515  1.00  0.00     0.002 A 
HETATM    4  C   UNL     1       4.759  29.943  56.795  1.00  0.00     0.009 A 
HETATM    5  C   UNL     1       6.034  30.364  57.189  1.00  0.00    -0.040 A 
HETATM    6  C   UNL     1       6.161  31.200  58.309  1.00  0.00     0.026 A 
ENDROOT
BRANCH   1   7
HETATM    7  C   UNL     1       5.142  32.517  60.191  1.00  0.00     0.257 C 
HETATM    8  N   UNL     1       5.430  31.906  61.449  1.00  0.00    -0.303 N 
HETATM    9  H   UNL     1       5.716  30.939  61.491  1.00  0.00     0.171 HD
HETATM   10  O   UNL     1       5.000  33.723  60.109  1.00  0.00    -0.267 OA
BRANCH   8  11
HETATM   11  C   UNL     1       5.362  32.541  62.613  1.00  0.00     0.152 A 
HETATM   12  N   UNL     1       4.215  33.124  63.023  1.00  0.00    -0.339 N 
HETATM   13  C   UNL     1       4.332  33.785  64.228  1.00  0.00     0.024 A 
HETATM   14  H   UNL     1       3.366  33.044  62.466  1.00  0.00     0.168 HD
HETATM   15  C   UNL     1       3.189  34.527  64.816  1.00  0.00     0.060 C 
HETATM   16  C   UNL     1       5.579  33.712  64.783  1.00  0.00     0.011 A 
HETATM   17  C   UNL     1       3.460  34.860  66.303  1.00  0.00     0.039 C 
HETATM   18  C   UNL     1       4.913  35.281  66.629  1.00  0.00     0.188 C 
HETATM   19  C   UNL     1       5.972  34.273  66.114  1.00  0.00     0.081 C 
HETATM   20  S   UNL     1       6.634  32.831  63.779  1.00  0.00    -0.056 SA
BRANCH  18  21
HETATM   21  N   UNL     1       5.184  36.647  66.073  1.00  0.00    -0.075 N 
HETATM   22  H   UNL     1       4.555  36.866  65.284  1.00  0.00     0.274 HD
HETATM   23  H   UNL     1       4.991  37.377  66.779  1.00  0.00     0.274 HD
HETATM   24  H   UNL     1       6.149  36.799  65.752  1.00  0.00     0.274 HD
ENDBRANCH  18  21
ENDBRANCH   8  11
ENDBRANCH   1   7
BRANCH   5  25
HETATM   25  C   UNL     1       7.258  29.991  56.391  1.00  0.00     0.161 C 
BRANCH  25  26
HETATM   26  N   UNL     1       7.336  28.563  56.187  1.00  0.00    -0.353 N 
HETATM   27  C   UNL     1       7.047  27.961  54.980  1.00  0.00     0.251 C 
HETATM   28  O   UNL     1       6.654  28.571  53.988  1.00  0.00    -0.268 OA
HETATM   29  H   UNL     1       7.808  28.027  56.902  1.00  0.00     0.163 HD
BRANCH  27  30
HETATM   30  C   UNL     1       7.269  26.487  54.936  1.00  0.00     0.032 A 
HETATM   31  C   UNL     1       7.215  25.699  56.093  1.00  0.00     0.018 A 
HETATM   32  C   UNL     1       7.466  24.321  56.025  1.00  0.00     0.015 A 
HETATM   33  C   UNL     1       7.768  23.707  54.801  1.00  0.00    -0.005 A 
HETATM   34  C   UNL     1       7.788  24.503  53.644  1.00  0.00     0.015 A 
HETATM   35  C   UNL     1       7.538  25.880  53.707  1.00  0.00     0.018 A 
BRANCH  33  36
HETATM   36  C   UNL     1       8.052  22.278  54.696  1.00  0.00     0.091 A 
HETATM   37  C   UNL     1       8.579  21.492  55.708  1.00  0.00     0.099 A 
HETATM   38  S   UNL     1       8.747  19.898  55.091  1.00  0.00    -0.008 SA
HETATM   39  N   UNL     1       8.143  20.316  53.590  1.00  0.00    -0.037 NA
HETATM   40  N   UNL     1       7.817  21.594  53.505  1.00  0.00    -0.169 NA
ENDBRANCH  33  36
ENDBRANCH  27  30
ENDBRANCH  25  26
ENDBRANCH   5  25
TORSDOF 7
ENDMDL
