MODEL 1
REMARK VINA RESULT:      -8.8      0.000      0.000
REMARK  8 active torsions:
REMARK  status: ('A' for Active; 'I' for Inactive)
REMARK    1  A    between atoms: C_3  and  N_4 
REMARK       I    between atoms: N_4  and  C_5 
REMARK       I    between atoms: C_5  and  N_6 
REMARK       I    between atoms: N_6  and  C_7 
REMARK    2  A    between atoms: C_7  and  C_8 
REMARK    3  A    between atoms: C_8  and  N_9 
REMARK    4  A    between atoms: N_9  and  C_11 
REMARK    5  A    between atoms: N_9  and  C_17 
REMARK    6  A    between atoms: C_11  and  C_12 
REMARK    7  A    between atoms: C_17  and  C_18 
REMARK    8  A    between atoms: C_19  and  O_20 
ROOT
HETATM    1  N   UNL     1       6.847  25.167  54.026  1.00  0.00    -0.053 N 
HETATM    2  H   UNL     1       7.126  24.667  53.168  1.00  0.00     0.281 HD
ENDROOT
BRANCH   1   3
HETATM    3  C   UNL     1       5.329  25.238  53.978  1.00  0.00     0.338 C 
BRANCH   3   4
HETATM    4  C   UNL     1       4.823  26.015  52.765  1.00  0.00     0.251 C 
HETATM    5  N   UNL     1       4.060  27.122  53.067  1.00  0.00    -0.278 N 
HETATM    6  C   UNL     1       3.747  28.136  52.204  1.00  0.00     0.323 C 
HETATM    7  H   UNL     1       4.133  27.505  54.004  1.00  0.00     0.173 HD
HETATM    8  N   UNL     1       3.578  27.788  50.901  1.00  0.00    -0.338 N 
HETATM    9  O   UNL     1       3.653  29.276  52.646  1.00  0.00    -0.247 OA
HETATM   10  H   UNL     1       3.840  26.845  50.632  1.00  0.00     0.164 HD
HETATM   11  O   UNL     1       5.116  25.634  51.632  1.00  0.00    -0.271 OA
BRANCH   8  12
HETATM   12  C   UNL     1       3.285  28.761  49.851  1.00  0.00     0.089 C 
HETATM   13  C   UNL     1       4.383  28.794  48.761  1.00  0.00     0.004 C 
HETATM   14  C   UNL     1       5.777  29.064  49.332  1.00  0.00     0.012 C 
HETATM   15  C   UNL     1       4.380  27.513  47.911  1.00  0.00     0.006 C 
HETATM   16  C   UNL     1       3.005  27.248  47.301  1.00  0.00     0.001 C 
HETATM   17  C   UNL     1       1.908  27.221  48.358  1.00  0.00     0.002 C 
HETATM   18  C   UNL     1       1.913  28.492  49.208  1.00  0.00     0.026 C 
ENDBRANCH   8  12
ENDBRANCH   3   4
ENDBRANCH   1   3
BRANCH   1  19
HETATM   19  C   UNL     1       7.552  26.496  53.899  1.00  0.00     0.300 C 
BRANCH  19  20
HETATM   20  C   UNL     1       7.261  27.459  54.990  1.00  0.00     0.078 A 
HETATM   21  O   UNL     1       6.373  28.454  54.692  1.00  0.00    -0.325 OA
HETATM   22  C   UNL     1       6.292  29.257  55.784  1.00  0.00     0.142 A 
HETATM   23  C   UNL     1       7.089  28.772  56.793  1.00  0.00     0.027 A 
HETATM   24  C   UNL     1       7.717  27.607  56.282  1.00  0.00     0.036 A 
ENDBRANCH  19  20
ENDBRANCH   1  19
BRANCH   1  25
HETATM   25  C   UNL     1       7.355  24.322  55.164  1.00  0.00     0.277 C 
BRANCH  25  26
HETATM   26  C   UNL     1       7.695  22.930  54.706  1.00  0.00     0.001 A 
HETATM   27  C   UNL     1       8.113  21.969  55.635  1.00  0.00     0.073 A 
HETATM   28  C   UNL     1       8.462  20.681  55.240  1.00  0.00     0.037 A 
HETATM   29  C   UNL     1       8.408  20.344  53.888  1.00  0.00     0.003 A 
HETATM   30  C   UNL     1       8.004  21.290  52.946  1.00  0.00     0.001 A 
HETATM   31  C   UNL     1       7.645  22.577  53.351  1.00  0.00     0.011 A 
BRANCH  27  32
HETATM   32  O   UNL     1       8.201  22.337  56.950  1.00  0.00    -0.360 OA
HETATM   33  H   UNL     1       8.229  21.522  57.490  1.00  0.00     0.217 HD
ENDBRANCH  27  32
ENDBRANCH  25  26
ENDBRANCH   1  25
TORSDOF 8
ENDMDL
MODEL 2
REMARK VINA RESULT:      -8.7      1.511      1.823
REMARK  8 active torsions:
REMARK  status: ('A' for Active; 'I' for Inactive)
REMARK    1  A    between atoms: C_3  and  N_4 
REMARK       I    between atoms: N_4  and  C_5 
REMARK       I    between atoms: C_5  and  N_6 
REMARK       I    between atoms: N_6  and  C_7 
REMARK    2  A    between atoms: C_7  and  C_8 
REMARK    3  A    between atoms: C_8  and  N_9 
REMARK    4  A    between atoms: N_9  and  C_11 
REMARK    5  A    between atoms: N_9  and  C_17 
REMARK    6  A    between atoms: C_11  and  C_12 
REMARK    7  A    between atoms: C_17  and  C_18 
REMARK    8  A    between atoms: C_19  and  O_20 
ROOT
HETATM    1  N   UNL     1       6.307  26.450  54.335  1.00  0.00    -0.053 N 
HETATM    2  H   UNL     1       6.472  26.067  53.391  1.00  0.00     0.281 HD
ENDROOT
BRANCH   1   3
HETATM    3  C   UNL     1       4.958  27.146  54.258  1.00  0.00     0.338 C 
BRANCH   3   4
HETATM    4  C   UNL     1       4.501  27.367  52.818  1.00  0.00     0.251 C 
HETATM    5  N   UNL     1       3.472  28.271  52.671  1.00  0.00    -0.278 N 
HETATM    6  C   UNL     1       3.089  28.863  51.499  1.00  0.00     0.323 C 
HETATM    7  H   UNL     1       3.301  28.919  53.433  1.00  0.00     0.173 HD
HETATM    8  N   UNL     1       3.222  28.113  50.373  1.00  0.00    -0.338 N 
HETATM    9  O   UNL     1       2.672  30.016  51.532  1.00  0.00    -0.247 OA
HETATM   10  H   UNL     1       3.728  27.237  50.453  1.00  0.00     0.164 HD
HETATM   11  O   UNL     1       5.056  26.759  51.903  1.00  0.00    -0.271 OA
BRANCH   8  12
HETATM   12  C   UNL     1       2.899  28.619  49.041  1.00  0.00     0.089 C 
HETATM   13  C   UNL     1       4.118  28.579  48.089  1.00  0.00     0.004 C 
HETATM   14  C   UNL     1       5.328  29.337  48.643  1.00  0.00     0.012 C 
HETATM   15  C   UNL     1       4.502  27.139  47.715  1.00  0.00     0.006 C 
HETATM   16  C   UNL     1       3.318  26.378  47.124  1.00  0.00     0.001 C 
HETATM   17  C   UNL     1       2.102  26.413  48.043  1.00  0.00     0.002 C 
HETATM   18  C   UNL     1       1.722  27.844  48.420  1.00  0.00     0.026 C 
ENDBRANCH   8  12
ENDBRANCH   3   4
ENDBRANCH   1   3
BRANCH   1  19
HETATM   19  C   UNL     1       7.487  27.367  54.549  1.00  0.00     0.300 C 
BRANCH  19  20
HETATM   20  C   UNL     1       7.523  28.030  55.876  1.00  0.00     0.078 A 
HETATM   21  O   UNL     1       6.994  29.289  55.933  1.00  0.00    -0.325 OA
HETATM   22  C   UNL     1       7.179  29.742  57.199  1.00  0.00     0.142 A 
HETATM   23  C   UNL     1       7.788  28.778  57.968  1.00  0.00     0.027 A 
HETATM   24  C   UNL     1       8.011  27.668  57.114  1.00  0.00     0.036 A 
ENDBRANCH  19  20
ENDBRANCH   1  19
BRANCH   1  25
HETATM   25  C   UNL     1       6.296  25.257  55.253  1.00  0.00     0.277 C 
BRANCH  25  26
HETATM   26  C   UNL     1       7.209  24.171  54.756  1.00  0.00     0.001 A 
HETATM   27  C   UNL     1       7.049  23.657  53.462  1.00  0.00     0.073 A 
HETATM   28  C   UNL     1       7.859  22.632  52.983  1.00  0.00     0.037 A 
HETATM   29  C   UNL     1       8.842  22.094  53.812  1.00  0.00     0.003 A 
HETATM   30  C   UNL     1       9.011  22.585  55.107  1.00  0.00     0.001 A 
HETATM   31  C   UNL     1       8.202  23.621  55.578  1.00  0.00     0.011 A 
BRANCH  27  32
HETATM   32  O   UNL     1       6.048  24.171  52.684  1.00  0.00    -0.360 OA
HETATM   33  H   UNL     1       5.959  23.601  51.893  1.00  0.00     0.217 HD
ENDBRANCH  27  32
ENDBRANCH  25  26
ENDBRANCH   1  25
TORSDOF 8
ENDMDL
MODEL 3
REMARK VINA RESULT:      -8.6      2.876      7.265
REMARK  8 active torsions:
REMARK  status: ('A' for Active; 'I' for Inactive)
REMARK    1  A    between atoms: C_3  and  N_4 
REMARK       I    between atoms: N_4  and  C_5 
REMARK       I    between atoms: C_5  and  N_6 
REMARK       I    between atoms: N_6  and  C_7 
REMARK    2  A    between atoms: C_7  and  C_8 
REMARK    3  A    between atoms: C_8  and  N_9 
REMARK    4  A    between atoms: N_9  and  C_11 
REMARK    5  A    between atoms: N_9  and  C_17 
REMARK    6  A    between atoms: C_11  and  C_12 
REMARK    7  A    between atoms: C_17  and  C_18 
REMARK    8  A    between atoms: C_19  and  O_20 
ROOT
HETATM    1  N   UNL     1       6.482  25.497  55.467  1.00  0.00    -0.053 N 
HETATM    2  H   UNL     1       5.846  24.740  55.170  1.00  0.00     0.281 HD
ENDROOT
BRANCH   1   3
HETATM    3  C   UNL     1       6.155  25.750  56.930  1.00  0.00     0.338 C 
BRANCH   3   4
HETATM    4  C   UNL     1       6.518  27.166  57.369  1.00  0.00     0.251 C 
HETATM    5  N   UNL     1       7.867  27.389  57.538  1.00  0.00    -0.278 N 
HETATM    6  C   UNL     1       8.470  28.614  57.629  1.00  0.00     0.323 C 
HETATM    7  H   UNL     1       8.512  26.743  57.095  1.00  0.00     0.173 HD
HETATM    8  N   UNL     1       7.750  29.597  58.233  1.00  0.00    -0.338 N 
HETATM    9  O   UNL     1       9.593  28.753  57.157  1.00  0.00    -0.247 OA
HETATM   10  H   UNL     1       6.774  29.403  58.436  1.00  0.00     0.164 HD
HETATM   11  O   UNL     1       5.628  27.999  57.535  1.00  0.00    -0.271 OA
BRANCH   8  12
HETATM   12  C   UNL     1       8.236  30.968  58.366  1.00  0.00     0.089 C 
HETATM   13  C   UNL     1       7.151  31.922  58.920  1.00  0.00     0.004 C 
HETATM   14  C   UNL     1       5.871  31.915  58.081  1.00  0.00     0.012 C 
HETATM   15  C   UNL     1       6.837  31.632  60.396  1.00  0.00     0.006 C 
HETATM   16  C   UNL     1       8.097  31.673  61.257  1.00  0.00     0.001 C 
HETATM   17  C   UNL     1       9.183  30.746  60.722  1.00  0.00     0.002 C 
HETATM   18  C   UNL     1       9.493  31.030  59.253  1.00  0.00     0.026 C 
ENDBRANCH   8  12
ENDBRANCH   3   4
ENDBRANCH   1   3
BRANCH   1  19
HETATM   19  C   UNL     1       6.134  26.629  54.531  1.00  0.00     0.300 C 
BRANCH  19  20
HETATM   20  C   UNL     1       5.703  26.204  53.176  1.00  0.00     0.078 A 
HETATM   21  O   UNL     1       6.061  27.027  52.146  1.00  0.00    -0.325 OA
HETATM   22  C   UNL     1       5.526  26.505  51.013  1.00  0.00     0.142 A 
HETATM   23  C   UNL     1       4.858  25.337  51.295  1.00  0.00     0.027 A 
HETATM   24  C   UNL     1       4.973  25.139  52.695  1.00  0.00     0.036 A 
ENDBRANCH  19  20
ENDBRANCH   1  19
BRANCH   1  25
HETATM   25  C   UNL     1       7.871  24.954  55.266  1.00  0.00     0.277 C 
BRANCH  25  26
HETATM   26  C   UNL     1       7.844  23.502  54.878  1.00  0.00     0.001 A 
HETATM   27  C   UNL     1       7.906  22.510  55.865  1.00  0.00     0.073 A 
HETATM   28  C   UNL     1       7.911  21.158  55.537  1.00  0.00     0.037 A 
HETATM   29  C   UNL     1       7.869  20.781  54.196  1.00  0.00     0.003 A 
HETATM   30  C   UNL     1       7.817  21.753  53.197  1.00  0.00     0.001 A 
HETATM   31  C   UNL     1       7.801  23.108  53.533  1.00  0.00     0.011 A 
BRANCH  27  32
HETATM   32  O   UNL     1       7.992  22.906  57.172  1.00  0.00    -0.360 OA
HETATM   33  H   UNL     1       7.957  22.105  57.733  1.00  0.00     0.217 HD
ENDBRANCH  27  32
ENDBRANCH  25  26
ENDBRANCH   1  25
TORSDOF 8
ENDMDL
MODEL 4
REMARK VINA RESULT:      -8.5      3.744      7.834
REMARK  8 active torsions:
REMARK  status: ('A' for Active; 'I' for Inactive)
REMARK    1  A    between atoms: C_3  and  N_4 
REMARK       I    between atoms: N_4  and  C_5 
REMARK       I    between atoms: C_5  and  N_6 
REMARK       I    between atoms: N_6  and  C_7 
REMARK    2  A    between atoms: C_7  and  C_8 
REMARK    3  A    between atoms: C_8  and  N_9 
REMARK    4  A    between atoms: N_9  and  C_11 
REMARK    5  A    between atoms: N_9  and  C_17 
REMARK    6  A    between atoms: C_11  and  C_12 
REMARK    7  A    between atoms: C_17  and  C_18 
REMARK    8  A    between atoms: C_19  and  O_20 
ROOT
HETATM    1  N   UNL     1       6.679  29.824  58.317  1.00  0.00    -0.053 N 
HETATM    2  H   UNL     1       6.284  29.625  59.249  1.00  0.00     0.281 HD
ENDROOT
BRANCH   1   3
HETATM    3  C   UNL     1       5.512  29.710  57.350  1.00  0.00     0.338 C 
BRANCH   3   4
HETATM    4  C   UNL     1       5.637  28.497  56.431  1.00  0.00     0.251 C 
HETATM    5  N   UNL     1       5.599  27.280  57.075  1.00  0.00    -0.278 N 
HETATM    6  C   UNL     1       5.391  26.067  56.478  1.00  0.00     0.323 C 
HETATM    7  H   UNL     1       5.208  27.252  58.010  1.00  0.00     0.173 HD
HETATM    8  N   UNL     1       5.886  25.920  55.220  1.00  0.00    -0.338 N 
HETATM    9  O   UNL     1       4.770  25.207  57.095  1.00  0.00    -0.247 OA
HETATM   10  H   UNL     1       6.236  26.753  54.757  1.00  0.00     0.164 HD
HETATM   11  O   UNL     1       5.752  28.663  55.217  1.00  0.00    -0.271 OA
BRANCH   8  12
HETATM   12  C   UNL     1       5.706  24.702  54.434  1.00  0.00     0.089 C 
HETATM   13  C   UNL     1       5.675  24.987  52.913  1.00  0.00     0.004 C 
HETATM   14  C   UNL     1       4.603  26.007  52.523  1.00  0.00     0.012 C 
HETATM   15  C   UNL     1       7.054  25.414  52.385  1.00  0.00     0.006 C 
HETATM   16  C   UNL     1       8.131  24.388  52.732  1.00  0.00     0.001 C 
HETATM   17  C   UNL     1       8.171  24.087  54.225  1.00  0.00     0.002 C 
HETATM   18  C   UNL     1       6.800  23.667  54.753  1.00  0.00     0.026 C 
ENDBRANCH   8  12
ENDBRANCH   3   4
ENDBRANCH   1   3
BRANCH   1  19
HETATM   19  C   UNL     1       7.746  28.768  58.157  1.00  0.00     0.300 C 
BRANCH  19  20
HETATM   20  C   UNL     1       8.879  29.157  57.282  1.00  0.00     0.078 A 
HETATM   21  O   UNL     1      10.055  29.445  57.915  1.00  0.00    -0.325 OA
HETATM   22  C   UNL     1      10.937  29.836  56.960  1.00  0.00     0.142 A 
HETATM   23  C   UNL     1      10.355  29.770  55.717  1.00  0.00     0.027 A 
HETATM   24  C   UNL     1       9.023  29.330  55.922  1.00  0.00     0.036 A 
ENDBRANCH  19  20
ENDBRANCH   1  19
BRANCH   1  25
HETATM   25  C   UNL     1       7.227  31.224  58.407  1.00  0.00     0.277 C 
BRANCH  25  26
HETATM   26  C   UNL     1       7.697  31.542  59.799  1.00  0.00     0.001 A 
HETATM   27  C   UNL     1       6.765  31.796  60.814  1.00  0.00     0.073 A 
HETATM   28  C   UNL     1       7.168  32.122  62.105  1.00  0.00     0.037 A 
HETATM   29  C   UNL     1       8.529  32.213  62.393  1.00  0.00     0.003 A 
HETATM   30  C   UNL     1       9.473  31.974  61.394  1.00  0.00     0.001 A 
HETATM   31  C   UNL     1       9.062  31.637  60.103  1.00  0.00     0.011 A 
BRANCH  27  32
HETATM   32  O   UNL     1       5.435  31.744  60.496  1.00  0.00    -0.360 OA
HETATM   33  H   UNL     1       4.923  31.909  61.313  1.00  0.00     0.217 HD
ENDBRANCH  27  32
ENDBRANCH  25  26
ENDBRANCH   1  25
TORSDOF 8
ENDMDL
MODEL 5
REMARK VINA RESULT:      -8.4      1.757      7.187
REMARK  8 active torsions:
REMARK  status: ('A' for Active; 'I' for Inactive)
REMARK    1  A    between atoms: C_3  and  N_4 
REMARK       I    between atoms: N_4  and  C_5 
REMARK       I    between atoms: C_5  and  N_6 
REMARK       I    between atoms: N_6  and  C_7 
REMARK    2  A    between atoms: C_7  and  C_8 
REMARK    3  A    between atoms: C_8  and  N_9 
REMARK    4  A    between atoms: N_9  and  C_11 
REMARK    5  A    between atoms: N_9  and  C_17 
REMARK    6  A    between atoms: C_11  and  C_12 
REMARK    7  A    between atoms: C_17  and  C_18 
REMARK    8  A    between atoms: C_19  and  O_20 
ROOT
HETATM    1  N   UNL     1       4.647  28.123  52.830  1.00  0.00    -0.053 N 
HETATM    2  H   UNL     1       5.652  27.990  52.636  1.00  0.00     0.281 HD
ENDROOT
BRANCH   1   3
HETATM    3  C   UNL     1       4.085  26.726  53.034  1.00  0.00     0.338 C 
BRANCH   3   4
HETATM    4  C   UNL     1       5.167  25.715  53.406  1.00  0.00     0.251 C 
HETATM    5  N   UNL     1       6.181  25.589  52.482  1.00  0.00    -0.278 N 
HETATM    6  C   UNL     1       7.395  24.997  52.702  1.00  0.00     0.323 C 
HETATM    7  H   UNL     1       6.305  26.340  51.811  1.00  0.00     0.173 HD
HETATM    8  N   UNL     1       7.403  23.941  53.559  1.00  0.00    -0.338 N 
HETATM    9  O   UNL     1       8.383  25.453  52.137  1.00  0.00    -0.247 OA
HETATM   10  H   UNL     1       6.555  23.761  54.086  1.00  0.00     0.164 HD
HETATM   11  O   UNL     1       5.085  25.098  54.468  1.00  0.00    -0.271 OA
BRANCH   8  12
HETATM   12  C   UNL     1       8.625  23.232  53.931  1.00  0.00     0.089 C 
HETATM   13  C   UNL     1       8.662  22.881  55.438  1.00  0.00     0.004 C 
HETATM   14  C   UNL     1       8.491  24.109  56.337  1.00  0.00     0.012 C 
HETATM   15  C   UNL     1       7.634  21.796  55.796  1.00  0.00     0.006 C 
HETATM   16  C   UNL     1       7.813  20.548  54.935  1.00  0.00     0.001 C 
HETATM   17  C   UNL     1       7.789  20.873  53.446  1.00  0.00     0.002 C 
HETATM   18  C   UNL     1       8.808  21.956  53.090  1.00  0.00     0.026 C 
ENDBRANCH   8  12
ENDBRANCH   3   4
ENDBRANCH   1   3
BRANCH   1  19
HETATM   19  C   UNL     1       4.147  28.839  51.599  1.00  0.00     0.300 C 
BRANCH  19  20
HETATM   20  C   UNL     1       4.179  28.030  50.355  1.00  0.00     0.078 A 
HETATM   21  O   UNL     1       3.018  27.987  49.636  1.00  0.00    -0.325 OA
HETATM   22  C   UNL     1       3.230  27.156  48.584  1.00  0.00     0.142 A 
HETATM   23  C   UNL     1       4.524  26.691  48.596  1.00  0.00     0.027 A 
HETATM   24  C   UNL     1       5.141  27.257  49.741  1.00  0.00     0.036 A 
ENDBRANCH  19  20
ENDBRANCH   1  19
BRANCH   1  25
HETATM   25  C   UNL     1       4.590  28.962  54.079  1.00  0.00     0.277 C 
BRANCH  25  26
HETATM   26  C   UNL     1       5.613  28.517  55.088  1.00  0.00     0.001 A 
HETATM   27  C   UNL     1       6.952  28.360  54.707  1.00  0.00     0.073 A 
HETATM   28  C   UNL     1       7.917  27.923  55.609  1.00  0.00     0.037 A 
HETATM   29  C   UNL     1       7.541  27.619  56.917  1.00  0.00     0.003 A 
HETATM   30  C   UNL     1       6.211  27.759  57.313  1.00  0.00     0.001 A 
HETATM   31  C   UNL     1       5.249  28.209  56.406  1.00  0.00     0.011 A 
BRANCH  27  32
HETATM   32  O   UNL     1       7.287  28.621  53.407  1.00  0.00    -0.360 OA
HETATM   33  H   UNL     1       6.548  28.326  52.839  1.00  0.00     0.217 HD
ENDBRANCH  27  32
ENDBRANCH  25  26
ENDBRANCH   1  25
TORSDOF 8
ENDMDL
MODEL 6
REMARK VINA RESULT:      -8.2      2.033      7.815
REMARK  8 active torsions:
REMARK  status: ('A' for Active; 'I' for Inactive)
REMARK    1  A    between atoms: C_3  and  N_4 
REMARK       I    between atoms: N_4  and  C_5 
REMARK       I    between atoms: C_5  and  N_6 
REMARK       I    between atoms: N_6  and  C_7 
REMARK    2  A    between atoms: C_7  and  C_8 
REMARK    3  A    between atoms: C_8  and  N_9 
REMARK    4  A    between atoms: N_9  and  C_11 
REMARK    5  A    between atoms: N_9  and  C_17 
REMARK    6  A    between atoms: C_11  and  C_12 
REMARK    7  A    between atoms: C_17  and  C_18 
REMARK    8  A    between atoms: C_19  and  O_20 
ROOT
HETATM    1  N   UNL     1       4.750  27.938  53.234  1.00  0.00    -0.053 N 
HETATM    2  H   UNL     1       5.560  27.920  53.873  1.00  0.00     0.281 HD
ENDROOT
BRANCH   1   3
HETATM    3  C   UNL     1       4.306  26.490  53.103  1.00  0.00     0.338 C 
BRANCH   3   4
HETATM    4  C   UNL     1       5.382  25.510  53.563  1.00  0.00     0.251 C 
HETATM    5  N   UNL     1       6.203  25.043  52.560  1.00  0.00    -0.278 N 
HETATM    6  C   UNL     1       7.403  24.410  52.739  1.00  0.00     0.323 C 
HETATM    7  H   UNL     1       6.243  25.573  51.696  1.00  0.00     0.173 HD
HETATM    8  N   UNL     1       7.511  23.623  53.842  1.00  0.00    -0.338 N 
HETATM    9  O   UNL     1       8.296  24.599  51.919  1.00  0.00    -0.247 OA
HETATM   10  H   UNL     1       6.764  23.675  54.527  1.00  0.00     0.164 HD
HETATM   11  O   UNL     1       5.462  25.207  54.753  1.00  0.00    -0.271 OA
BRANCH   8  12
HETATM   12  C   UNL     1       8.741  22.918  54.196  1.00  0.00     0.089 C 
HETATM   13  C   UNL     1       8.865  22.688  55.721  1.00  0.00     0.004 C 
HETATM   14  C   UNL     1       8.773  23.987  56.526  1.00  0.00     0.012 C 
HETATM   15  C   UNL     1       7.842  21.659  56.228  1.00  0.00     0.006 C 
HETATM   16  C   UNL     1       7.945  20.342  55.462  1.00  0.00     0.001 C 
HETATM   17  C   UNL     1       7.834  20.548  53.956  1.00  0.00     0.002 C 
HETATM   18  C   UNL     1       8.847  21.575  53.452  1.00  0.00     0.026 C 
ENDBRANCH   8  12
ENDBRANCH   3   4
ENDBRANCH   1   3
BRANCH   1  19
HETATM   19  C   UNL     1       5.316  28.548  51.974  1.00  0.00     0.300 C 
BRANCH  19  20
HETATM   20  C   UNL     1       4.680  28.078  50.718  1.00  0.00     0.078 A 
HETATM   21  O   UNL     1       3.501  28.680  50.379  1.00  0.00    -0.325 OA
HETATM   22  C   UNL     1       3.054  28.075  49.250  1.00  0.00     0.142 A 
HETATM   23  C   UNL     1       3.947  27.115  48.837  1.00  0.00     0.027 A 
HETATM   24  C   UNL     1       5.002  27.116  49.784  1.00  0.00     0.036 A 
ENDBRANCH  19  20
ENDBRANCH   1  19
BRANCH   1  25
HETATM   25  C   UNL     1       3.724  28.803  53.914  1.00  0.00     0.277 C 
BRANCH  25  26
HETATM   26  C   UNL     1       4.304  29.509  55.109  1.00  0.00     0.001 A 
HETATM   27  C   UNL     1       4.531  28.805  56.299  1.00  0.00     0.073 A 
HETATM   28  C   UNL     1       5.039  29.435  57.430  1.00  0.00     0.037 A 
HETATM   29  C   UNL     1       5.315  30.801  57.384  1.00  0.00     0.003 A 
HETATM   30  C   UNL     1       5.086  31.523  56.213  1.00  0.00     0.001 A 
HETATM   31  C   UNL     1       4.586  30.882  55.077  1.00  0.00     0.011 A 
BRANCH  27  32
HETATM   32  O   UNL     1       4.210  27.475  56.332  1.00  0.00    -0.360 OA
HETATM   33  H   UNL     1       4.211  27.188  57.267  1.00  0.00     0.217 HD
ENDBRANCH  27  32
ENDBRANCH  25  26
ENDBRANCH   1  25
TORSDOF 8
ENDMDL
MODEL 7
REMARK VINA RESULT:      -8.1      1.621      2.145
REMARK  8 active torsions:
REMARK  status: ('A' for Active; 'I' for Inactive)
REMARK    1  A    between atoms: C_3  and  N_4 
REMARK       I    between atoms: N_4  and  C_5 
REMARK       I    between atoms: C_5  and  N_6 
REMARK       I    between atoms: N_6  and  C_7 
REMARK    2  A    between atoms: C_7  and  C_8 
REMARK    3  A    between atoms: C_8  and  N_9 
REMARK    4  A    between atoms: N_9  and  C_11 
REMARK    5  A    between atoms: N_9  and  C_17 
REMARK    6  A    between atoms: C_11  and  C_12 
REMARK    7  A    between atoms: C_17  and  C_18 
REMARK    8  A    between atoms: C_19  and  O_20 
ROOT
HETATM    1  N   UNL     1       6.155  26.661  54.637  1.00  0.00    -0.053 N 
HETATM    2  H   UNL     1       6.855  26.516  55.383  1.00  0.00     0.281 HD
ENDROOT
BRANCH   1   3
HETATM    3  C   UNL     1       6.935  27.207  53.452  1.00  0.00     0.338 C 
BRANCH   3   4
HETATM    4  C   UNL     1       6.024  27.607  52.294  1.00  0.00     0.251 C 
HETATM    5  N   UNL     1       5.967  28.960  52.045  1.00  0.00    -0.278 N 
HETATM    6  C   UNL     1       5.481  29.545  50.908  1.00  0.00     0.323 C 
HETATM    7  H   UNL     1       6.715  29.540  52.412  1.00  0.00     0.173 HD
HETATM    8  N   UNL     1       4.444  28.910  50.300  1.00  0.00    -0.338 N 
HETATM    9  O   UNL     1       6.009  30.576  50.505  1.00  0.00    -0.247 OA
HETATM   10  H   UNL     1       4.202  27.983  50.636  1.00  0.00     0.164 HD
HETATM   11  O   UNL     1       5.419  26.737  51.666  1.00  0.00    -0.271 OA
BRANCH   8  12
HETATM   12  C   UNL     1       3.845  29.383  49.054  1.00  0.00     0.089 C 
HETATM   13  C   UNL     1       3.842  28.293  47.956  1.00  0.00     0.004 C 
HETATM   14  C   UNL     1       5.239  27.736  47.670  1.00  0.00     0.012 C 
HETATM   15  C   UNL     1       2.858  27.158  48.282  1.00  0.00     0.006 C 
HETATM   16  C   UNL     1       1.449  27.691  48.532  1.00  0.00     0.001 C 
HETATM   17  C   UNL     1       1.432  28.773  49.605  1.00  0.00     0.002 C 
HETATM   18  C   UNL     1       2.413  29.900  49.285  1.00  0.00     0.026 C 
ENDBRANCH   8  12
ENDBRANCH   3   4
ENDBRANCH   1   3
BRANCH   1  19
HETATM   19  C   UNL     1       5.179  27.628  55.260  1.00  0.00     0.300 C 
BRANCH  19  20
HETATM   20  C   UNL     1       5.790  28.626  56.172  1.00  0.00     0.078 A 
HETATM   21  O   UNL     1       6.717  28.145  57.054  1.00  0.00    -0.325 OA
HETATM   22  C   UNL     1       7.106  29.187  57.833  1.00  0.00     0.142 A 
HETATM   23  C   UNL     1       6.468  30.340  57.441  1.00  0.00     0.027 A 
HETATM   24  C   UNL     1       5.617  29.980  56.365  1.00  0.00     0.036 A 
ENDBRANCH  19  20
ENDBRANCH   1  19
BRANCH   1  25
HETATM   25  C   UNL     1       5.568  25.300  54.371  1.00  0.00     0.277 C 
BRANCH  25  26
HETATM   26  C   UNL     1       6.637  24.244  54.299  1.00  0.00     0.001 A 
HETATM   27  C   UNL     1       7.335  23.872  55.456  1.00  0.00     0.073 A 
HETATM   28  C   UNL     1       8.349  22.919  55.417  1.00  0.00     0.037 A 
HETATM   29  C   UNL     1       8.688  22.333  54.199  1.00  0.00     0.003 A 
HETATM   30  C   UNL     1       8.012  22.697  53.034  1.00  0.00     0.001 A 
HETATM   31  C   UNL     1       6.988  23.646  53.081  1.00  0.00     0.011 A 
BRANCH  27  32
HETATM   32  O   UNL     1       7.014  24.494  56.631  1.00  0.00    -0.360 OA
HETATM   33  H   UNL     1       6.081  24.781  56.575  1.00  0.00     0.217 HD
ENDBRANCH  27  32
ENDBRANCH  25  26
ENDBRANCH   1  25
TORSDOF 8
ENDMDL
MODEL 8
REMARK VINA RESULT:      -8.1      3.190      7.682
REMARK  8 active torsions:
REMARK  status: ('A' for Active; 'I' for Inactive)
REMARK    1  A    between atoms: C_3  and  N_4 
REMARK       I    between atoms: N_4  and  C_5 
REMARK       I    between atoms: C_5  and  N_6 
REMARK       I    between atoms: N_6  and  C_7 
REMARK    2  A    between atoms: C_7  and  C_8 
REMARK    3  A    between atoms: C_8  and  N_9 
REMARK    4  A    between atoms: N_9  and  C_11 
REMARK    5  A    between atoms: N_9  and  C_17 
REMARK    6  A    between atoms: C_11  and  C_12 
REMARK    7  A    between atoms: C_17  and  C_18 
REMARK    8  A    between atoms: C_19  and  O_20 
ROOT
HETATM    1  N   UNL     1       4.845  28.158  54.234  1.00  0.00    -0.053 N 
HETATM    2  H   UNL     1       4.734  27.975  55.244  1.00  0.00     0.281 HD
ENDROOT
BRANCH   1   3
HETATM    3  C   UNL     1       4.507  26.846  53.545  1.00  0.00     0.338 C 
BRANCH   3   4
HETATM    4  C   UNL     1       5.533  25.755  53.840  1.00  0.00     0.251 C 
HETATM    5  N   UNL     1       6.350  25.430  52.780  1.00  0.00    -0.278 N 
HETATM    6  C   UNL     1       7.519  24.724  52.859  1.00  0.00     0.323 C 
HETATM    7  H   UNL     1       6.427  26.097  52.020  1.00  0.00     0.173 HD
HETATM    8  N   UNL     1       7.575  23.756  53.813  1.00  0.00    -0.338 N 
HETATM    9  O   UNL     1       8.432  25.009  52.092  1.00  0.00    -0.247 OA
HETATM   10  H   UNL     1       6.820  23.723  54.490  1.00  0.00     0.164 HD
HETATM   11  O   UNL     1       5.580  25.251  54.962  1.00  0.00    -0.271 OA
BRANCH   8  12
HETATM   12  C   UNL     1       8.768  22.947  54.053  1.00  0.00     0.089 C 
HETATM   13  C   UNL     1       8.932  22.576  55.546  1.00  0.00     0.004 C 
HETATM   14  C   UNL     1       8.956  23.801  56.463  1.00  0.00     0.012 C 
HETATM   15  C   UNL     1       7.863  21.571  56.004  1.00  0.00     0.006 C 
HETATM   16  C   UNL     1       7.851  20.323  55.125  1.00  0.00     0.001 C 
HETATM   17  C   UNL     1       7.699  20.669  53.648  1.00  0.00     0.002 C 
HETATM   18  C   UNL     1       8.759  21.671  53.192  1.00  0.00     0.026 C 
ENDBRANCH   8  12
ENDBRANCH   3   4
ENDBRANCH   1   3
BRANCH   1  19
HETATM   19  C   UNL     1       6.286  28.589  54.115  1.00  0.00     0.300 C 
BRANCH  19  20
HETATM   20  C   UNL     1       7.061  28.519  55.379  1.00  0.00     0.078 A 
HETATM   21  O   UNL     1       6.390  28.039  56.469  1.00  0.00    -0.325 OA
HETATM   22  C   UNL     1       7.239  28.113  57.525  1.00  0.00     0.142 A 
HETATM   23  C   UNL     1       8.460  28.601  57.123  1.00  0.00     0.027 A 
HETATM   24  C   UNL     1       8.347  28.863  55.734  1.00  0.00     0.036 A 
ENDBRANCH  19  20
ENDBRANCH   1  19
BRANCH   1  25
HETATM   25  C   UNL     1       3.861  29.253  53.917  1.00  0.00     0.277 C 
BRANCH  25  26
HETATM   26  C   UNL     1       3.859  30.316  54.982  1.00  0.00     0.001 A 
HETATM   27  C   UNL     1       3.664  29.964  56.324  1.00  0.00     0.073 A 
HETATM   28  C   UNL     1       3.628  30.927  57.328  1.00  0.00     0.037 A 
HETATM   29  C   UNL     1       3.774  32.271  56.991  1.00  0.00     0.003 A 
HETATM   30  C   UNL     1       3.959  32.643  55.659  1.00  0.00     0.001 A 
HETATM   31  C   UNL     1       4.005  31.671  54.657  1.00  0.00     0.011 A 
BRANCH  27  32
HETATM   32  O   UNL     1       3.478  28.643  56.624  1.00  0.00    -0.360 OA
HETATM   33  H   UNL     1       2.583  28.543  57.006  1.00  0.00     0.217 HD
ENDBRANCH  27  32
ENDBRANCH  25  26
ENDBRANCH   1  25
TORSDOF 8
ENDMDL
MODEL 9
REMARK VINA RESULT:      -8.1      3.944      8.409
REMARK  8 active torsions:
REMARK  status: ('A' for Active; 'I' for Inactive)
REMARK    1  A    between atoms: C_3  and  N_4 
REMARK       I    between atoms: N_4  and  C_5 
REMARK       I    between atoms: C_5  and  N_6 
REMARK       I    between atoms: N_6  and  C_7 
REMARK    2  A    between atoms: C_7  and  C_8 
REMARK    3  A    between atoms: C_8  and  N_9 
REMARK    4  A    between atoms: N_9  and  C_11 
REMARK    5  A    between atoms: N_9  and  C_17 
REMARK    6  A    between atoms: C_11  and  C_12 
REMARK    7  A    between atoms: C_17  and  C_18 
REMARK    8  A    between atoms: C_19  and  O_20 
ROOT
HETATM    1  N   UNL     1       5.042  28.160  55.891  1.00  0.00    -0.053 N 
HETATM    2  H   UNL     1       6.025  28.443  56.033  1.00  0.00     0.281 HD
ENDROOT
BRANCH   1   3
HETATM    3  C   UNL     1       4.209  29.269  56.514  1.00  0.00     0.338 C 
BRANCH   3   4
HETATM    4  C   UNL     1       5.001  30.087  57.531  1.00  0.00     0.251 C 
HETATM    5  N   UNL     1       6.349  29.807  57.573  1.00  0.00    -0.278 N 
HETATM    6  C   UNL     1       7.309  30.584  58.160  1.00  0.00     0.323 C 
HETATM    7  H   UNL     1       6.758  29.335  56.774  1.00  0.00     0.173 HD
HETATM    8  N   UNL     1       6.934  31.267  59.275  1.00  0.00    -0.338 N 
HETATM    9  O   UNL     1       8.423  30.630  57.648  1.00  0.00    -0.247 OA
HETATM   10  H   UNL     1       5.946  31.275  59.506  1.00  0.00     0.164 HD
HETATM   11  O   UNL     1       4.421  30.923  58.224  1.00  0.00    -0.271 OA
BRANCH   8  12
HETATM   12  C   UNL     1       7.830  32.173  59.988  1.00  0.00     0.089 C 
HETATM   13  C   UNL     1       7.201  32.707  61.297  1.00  0.00     0.004 C 
HETATM   14  C   UNL     1       5.855  33.398  61.069  1.00  0.00     0.012 C 
HETATM   15  C   UNL     1       7.075  31.605  62.360  1.00  0.00     0.006 C 
HETATM   16  C   UNL     1       8.418  30.929  62.631  1.00  0.00     0.001 C 
HETATM   17  C   UNL     1       9.059  30.404  61.351  1.00  0.00     0.002 C 
HETATM   18  C   UNL     1       9.180  31.498  60.291  1.00  0.00     0.026 C 
ENDBRANCH   8  12
ENDBRANCH   3   4
ENDBRANCH   1   3
BRANCH   1  19
HETATM   19  C   UNL     1       4.960  26.827  56.594  1.00  0.00     0.300 C 
BRANCH  19  20
HETATM   20  C   UNL     1       6.271  26.188  56.868  1.00  0.00     0.078 A 
HETATM   21  O   UNL     1       7.309  27.037  57.131  1.00  0.00    -0.325 OA
HETATM   22  C   UNL     1       8.420  26.272  57.289  1.00  0.00     0.142 A 
HETATM   23  C   UNL     1       8.103  24.940  57.167  1.00  0.00     0.027 A 
HETATM   24  C   UNL     1       6.712  24.883  56.896  1.00  0.00     0.036 A 
ENDBRANCH  19  20
ENDBRANCH   1  19
BRANCH   1  25
HETATM   25  C   UNL     1       4.865  28.066  54.399  1.00  0.00     0.277 C 
BRANCH  25  26
HETATM   26  C   UNL     1       5.636  26.910  53.825  1.00  0.00     0.001 A 
HETATM   27  C   UNL     1       7.032  26.978  53.724  1.00  0.00     0.073 A 
HETATM   28  C   UNL     1       7.772  25.936  53.172  1.00  0.00     0.037 A 
HETATM   29  C   UNL     1       7.109  24.807  52.694  1.00  0.00     0.003 A 
HETATM   30  C   UNL     1       5.719  24.724  52.776  1.00  0.00     0.001 A 
HETATM   31  C   UNL     1       4.983  25.768  53.342  1.00  0.00     0.011 A 
BRANCH  27  32
HETATM   32  O   UNL     1       7.655  28.115  54.159  1.00  0.00    -0.360 OA
HETATM   33  H   UNL     1       7.260  28.875  53.686  1.00  0.00     0.217 HD
ENDBRANCH  27  32
ENDBRANCH  25  26
ENDBRANCH   1  25
TORSDOF 8
ENDMDL
MODEL 10
REMARK VINA RESULT:      -8.0      3.568      7.538
REMARK  8 active torsions:
REMARK  status: ('A' for Active; 'I' for Inactive)
REMARK    1  A    between atoms: C_3  and  N_4 
REMARK       I    between atoms: N_4  and  C_5 
REMARK       I    between atoms: C_5  and  N_6 
REMARK       I    between atoms: N_6  and  C_7 
REMARK    2  A    between atoms: C_7  and  C_8 
REMARK    3  A    between atoms: C_8  and  N_9 
REMARK    4  A    between atoms: N_9  and  C_11 
REMARK    5  A    between atoms: N_9  and  C_17 
REMARK    6  A    between atoms: C_11  and  C_12 
REMARK    7  A    between atoms: C_17  and  C_18 
REMARK    8  A    between atoms: C_19  and  O_20 
ROOT
HETATM    1  N   UNL     1       7.468  29.772  57.704  1.00  0.00    -0.053 N 
HETATM    2  H   UNL     1       6.865  28.953  57.879  1.00  0.00     0.281 HD
ENDROOT
BRANCH   1   3
HETATM    3  C   UNL     1       7.913  29.644  56.256  1.00  0.00     0.338 C 
BRANCH   3   4
HETATM    4  C   UNL     1       7.614  28.263  55.678  1.00  0.00     0.251 C 
HETATM    5  N   UNL     1       7.175  27.336  56.597  1.00  0.00    -0.278 N 
HETATM    6  C   UNL     1       6.565  26.147  56.304  1.00  0.00     0.323 C 
HETATM    7  H   UNL     1       6.806  27.680  57.477  1.00  0.00     0.173 HD
HETATM    8  N   UNL     1       6.969  25.526  55.164  1.00  0.00    -0.338 N 
HETATM    9  O   UNL     1       5.697  25.728  57.064  1.00  0.00    -0.247 OA
HETATM   10  H   UNL     1       7.575  26.048  54.539  1.00  0.00     0.164 HD
HETATM   11  O   UNL     1       7.766  28.061  54.473  1.00  0.00    -0.271 OA
BRANCH   8  12
HETATM   12  C   UNL     1       6.382  24.274  54.692  1.00  0.00     0.089 C 
HETATM   13  C   UNL     1       6.342  24.194  53.147  1.00  0.00     0.004 C 
HETATM   14  C   UNL     1       5.603  25.375  52.511  1.00  0.00     0.012 C 
HETATM   15  C   UNL     1       7.749  24.043  52.547  1.00  0.00     0.006 C 
HETATM   16  C   UNL     1       8.487  22.847  53.141  1.00  0.00     0.001 C 
HETATM   17  C   UNL     1       8.531  22.902  54.664  1.00  0.00     0.002 C 
HETATM   18  C   UNL     1       7.133  23.057  55.262  1.00  0.00     0.026 C 
ENDBRANCH   8  12
ENDBRANCH   3   4
ENDBRANCH   1   3
BRANCH   1  19
HETATM   19  C   UNL     1       8.568  29.620  58.726  1.00  0.00     0.300 C 
BRANCH  19  20
HETATM   20  C   UNL     1       8.691  30.751  59.678  1.00  0.00     0.078 A 
HETATM   21  O   UNL     1       7.994  30.632  60.847  1.00  0.00    -0.325 OA
HETATM   22  C   UNL     1       8.182  31.781  61.544  1.00  0.00     0.142 A 
HETATM   23  C   UNL     1       9.020  32.625  60.855  1.00  0.00     0.027 A 
HETATM   24  C   UNL     1       9.352  31.960  59.647  1.00  0.00     0.036 A 
ENDBRANCH  19  20
ENDBRANCH   1  19
BRANCH   1  25
HETATM   25  C   UNL     1       6.589  30.971  57.939  1.00  0.00     0.277 C 
BRANCH  25  26
HETATM   26  C   UNL     1       5.384  30.956  57.039  1.00  0.00     0.001 A 
HETATM   27  C   UNL     1       4.525  29.849  57.034  1.00  0.00     0.073 A 
HETATM   28  C   UNL     1       3.419  29.792  56.192  1.00  0.00     0.037 A 
HETATM   29  C   UNL     1       3.168  30.853  55.323  1.00  0.00     0.003 A 
HETATM   30  C   UNL     1       4.016  31.959  55.305  1.00  0.00     0.001 A 
HETATM   31  C   UNL     1       5.119  32.015  56.160  1.00  0.00     0.011 A 
BRANCH  27  32
HETATM   32  O   UNL     1       4.819  28.802  57.864  1.00  0.00    -0.360 OA
HETATM   33  H   UNL     1       5.596  29.053  58.403  1.00  0.00     0.217 HD
ENDBRANCH  27  32
ENDBRANCH  25  26
ENDBRANCH   1  25
TORSDOF 8
ENDMDL
