MODEL 1
REMARK VINA RESULT:      -9.9      0.000      0.000
REMARK  3 active torsions:
REMARK  status: ('A' for Active; 'I' for Inactive)
REMARK    1  A    between atoms: C_12  and  C_13 
REMARK    2  A    between atoms: C_13  and  N_14 
REMARK       I    between atoms: N_14  and  C_15 
REMARK    3  A    between atoms: C_15  and  C_16 
ROOT
HETATM    1  N   UNL     1       7.966  26.642  55.437  1.00  0.00    -0.352 N 
HETATM    2  C   UNL     1       7.178  25.585  55.061  1.00  0.00     0.254 C 
HETATM    3  O   UNL     1       6.173  25.734  54.369  1.00  0.00    -0.268 OA
HETATM    4  H   UNL     1       8.756  26.467  56.041  1.00  0.00     0.163 HD
ENDROOT
BRANCH   1   5
HETATM    5  C   UNL     1       7.643  28.014  55.131  1.00  0.00     0.165 C 
BRANCH   5   6
HETATM    6  C   UNL     1       7.642  28.865  56.368  1.00  0.00     0.008 C 
HETATM    7  C   UNL     1       6.308  29.204  57.043  1.00  0.00     0.043 C 
HETATM    8  C   UNL     1       5.058  28.480  56.586  1.00  0.00     0.071 C 
HETATM    9  N   UNL     1       6.134  30.056  58.016  1.00  0.00    -0.234 NA
HETATM   10  C   UNL     1       7.286  30.655  58.435  1.00  0.00     0.154 C 
HETATM   11  C   UNL     1       7.321  31.672  59.305  1.00  0.00     0.128 C 
HETATM   12  N   UNL     1       8.553  30.324  57.996  1.00  0.00    -0.239 N 
HETATM   13  C   UNL     1       8.755  32.000  59.434  1.00  0.00     0.263 C 
HETATM   14  N   UNL     1       9.447  31.239  58.506  1.00  0.00    -0.258 N 
HETATM   15  O   UNL     1       9.226  32.773  60.249  1.00  0.00    -0.267 OA
HETATM   16  H   UNL     1      10.407  30.982  58.687  1.00  0.00     0.191 HD
HETATM   17  C   UNL     1       8.727  29.480  56.910  1.00  0.00     0.042 C 
HETATM   18  C   UNL     1      10.138  29.317  56.404  1.00  0.00     0.071 C 
ENDBRANCH   5   6
ENDBRANCH   1   5
BRANCH   2  19
HETATM   19  C   UNL     1       7.597  24.263  55.540  1.00  0.00     0.062 A 
HETATM   20  C   UNL     1       7.790  23.003  54.863  1.00  0.00     0.046 A 
HETATM   21  C   UNL     1       8.218  22.073  55.819  1.00  0.00     0.046 A 
HETATM   22  C   UNL     1       7.662  22.532  53.536  1.00  0.00     0.130 A 
HETATM   23  C   UNL     1       8.511  20.736  55.513  1.00  0.00     0.030 A 
HETATM   24  N   UNL     1       8.280  22.726  57.026  1.00  0.00    -0.364 N 
HETATM   25  C   UNL     1       8.368  20.317  54.188  1.00  0.00     0.005 A 
HETATM   26  C   UNL     1       7.946  21.206  53.206  1.00  0.00     0.043 A 
HETATM   27  H   UNL     1       8.561  22.300  57.900  1.00  0.00     0.165 HD
HETATM   28  C   UNL     1       7.917  24.032  56.869  1.00  0.00     0.106 A 
HETATM   29  F   UNL     1       7.260  23.353  52.555  1.00  0.00    -0.205 F 
ENDBRANCH   2  19
TORSDOF 3
ENDMDL
MODEL 2
REMARK VINA RESULT:      -9.6      1.245      2.271
REMARK  3 active torsions:
REMARK  status: ('A' for Active; 'I' for Inactive)
REMARK    1  A    between atoms: C_12  and  C_13 
REMARK    2  A    between atoms: C_13  and  N_14 
REMARK       I    between atoms: N_14  and  C_15 
REMARK    3  A    between atoms: C_15  and  C_16 
ROOT
HETATM    1  N   UNL     1       7.977  27.552  55.997  1.00  0.00    -0.352 N 
HETATM    2  C   UNL     1       7.321  26.593  55.269  1.00  0.00     0.254 C 
HETATM    3  O   UNL     1       6.595  26.879  54.319  1.00  0.00    -0.268 OA
HETATM    4  H   UNL     1       8.527  27.263  56.793  1.00  0.00     0.163 HD
ENDROOT
BRANCH   1   5
HETATM    5  C   UNL     1       7.809  28.966  55.771  1.00  0.00     0.165 C 
BRANCH   5   6
HETATM    6  C   UNL     1       8.078  29.755  57.020  1.00  0.00     0.008 C 
HETATM    7  C   UNL     1       9.525  29.934  57.495  1.00  0.00     0.043 C 
HETATM    8  C   UNL     1      10.650  29.518  56.569  1.00  0.00     0.071 C 
HETATM    9  N   UNL     1       9.901  30.446  58.634  1.00  0.00    -0.234 NA
HETATM   10  C   UNL     1       8.866  30.853  59.423  1.00  0.00     0.154 C 
HETATM   11  C   UNL     1       9.011  31.257  60.692  1.00  0.00     0.128 C 
HETATM   12  N   UNL     1       7.539  30.868  59.040  1.00  0.00    -0.239 N 
HETATM   13  C   UNL     1       7.639  31.569  61.141  1.00  0.00     0.263 C 
HETATM   14  N   UNL     1       6.768  31.180  60.137  1.00  0.00    -0.258 N 
HETATM   15  O   UNL     1       7.354  32.114  62.192  1.00  0.00    -0.267 OA
HETATM   16  H   UNL     1       5.882  31.654  60.033  1.00  0.00     0.191 HD
HETATM   17  C   UNL     1       7.136  30.251  57.865  1.00  0.00     0.042 C 
HETATM   18  C   UNL     1       5.650  30.174  57.621  1.00  0.00     0.071 C 
ENDBRANCH   5   6
ENDBRANCH   1   5
BRANCH   2  19
HETATM   19  C   UNL     1       7.527  25.203  55.693  1.00  0.00     0.062 A 
HETATM   20  C   UNL     1       7.701  23.978  54.950  1.00  0.00     0.046 A 
HETATM   21  C   UNL     1       7.878  22.945  55.879  1.00  0.00     0.046 A 
HETATM   22  C   UNL     1       7.741  23.615  53.585  1.00  0.00     0.130 A 
HETATM   23  C   UNL     1       8.084  21.607  55.510  1.00  0.00     0.030 A 
HETATM   24  N   UNL     1       7.810  23.505  57.132  1.00  0.00    -0.364 N 
HETATM   25  C   UNL     1       8.114  21.297  54.148  1.00  0.00     0.005 A 
HETATM   26  C   UNL     1       7.943  22.291  53.191  1.00  0.00     0.043 A 
HETATM   27  H   UNL     1       7.904  22.993  57.999  1.00  0.00     0.165 HD
HETATM   28  C   UNL     1       7.607  24.850  57.031  1.00  0.00     0.106 A 
HETATM   29  F   UNL     1       7.583  24.539  52.626  1.00  0.00    -0.205 F 
ENDBRANCH   2  19
TORSDOF 3
ENDMDL
MODEL 3
REMARK VINA RESULT:      -9.5      2.244      2.840
REMARK  3 active torsions:
REMARK  status: ('A' for Active; 'I' for Inactive)
REMARK    1  A    between atoms: C_12  and  C_13 
REMARK    2  A    between atoms: C_13  and  N_14 
REMARK       I    between atoms: N_14  and  C_15 
REMARK    3  A    between atoms: C_15  and  C_16 
ROOT
HETATM    1  N   UNL     1       7.640  26.454  55.115  1.00  0.00    -0.352 N 
HETATM    2  C   UNL     1       7.148  25.238  54.716  1.00  0.00     0.254 C 
HETATM    3  O   UNL     1       6.375  25.126  53.766  1.00  0.00    -0.268 OA
HETATM    4  H   UNL     1       8.238  26.492  55.928  1.00  0.00     0.163 HD
ENDROOT
BRANCH   1   5
HETATM    5  C   UNL     1       7.233  27.703  54.519  1.00  0.00     0.165 C 
BRANCH   5   6
HETATM    6  C   UNL     1       6.085  28.317  55.268  1.00  0.00     0.008 C 
HETATM    7  C   UNL     1       4.763  28.571  54.535  1.00  0.00     0.043 C 
HETATM    8  C   UNL     1       4.574  27.979  53.153  1.00  0.00     0.071 C 
HETATM    9  N   UNL     1       3.743  29.239  55.000  1.00  0.00    -0.234 NA
HETATM   10  C   UNL     1       3.929  29.716  56.264  1.00  0.00     0.154 C 
HETATM   11  C   UNL     1       3.084  30.560  56.872  1.00  0.00     0.128 C 
HETATM   12  N   UNL     1       5.018  29.431  57.064  1.00  0.00    -0.239 N 
HETATM   13  C   UNL     1       3.699  30.814  58.190  1.00  0.00     0.263 C 
HETATM   14  N   UNL     1       4.946  30.211  58.197  1.00  0.00    -0.258 N 
HETATM   15  O   UNL     1       3.166  31.413  59.107  1.00  0.00    -0.267 OA
HETATM   16  H   UNL     1       5.344  29.896  59.071  1.00  0.00     0.191 HD
HETATM   17  C   UNL     1       6.130  28.791  56.542  1.00  0.00     0.042 C 
HETATM   18  C   UNL     1       7.329  28.678  57.449  1.00  0.00     0.071 C 
ENDBRANCH   5   6
ENDBRANCH   1   5
BRANCH   2  19
HETATM   19  C   UNL     1       7.590  24.074  55.493  1.00  0.00     0.062 A 
HETATM   20  C   UNL     1       7.867  22.707  55.120  1.00  0.00     0.046 A 
HETATM   21  C   UNL     1       8.276  22.031  56.277  1.00  0.00     0.046 A 
HETATM   22  C   UNL     1       7.829  21.952  53.926  1.00  0.00     0.130 A 
HETATM   23  C   UNL     1       8.636  20.675  56.286  1.00  0.00     0.030 A 
HETATM   24  N   UNL     1       8.248  22.935  57.311  1.00  0.00    -0.364 N 
HETATM   25  C   UNL     1       8.581  19.971  55.082  1.00  0.00     0.005 A 
HETATM   26  C   UNL     1       8.180  20.601  53.910  1.00  0.00     0.043 A 
HETATM   27  H   UNL     1       8.496  22.724  58.268  1.00  0.00     0.165 HD
HETATM   28  C   UNL     1       7.846  24.155  56.853  1.00  0.00     0.106 A 
HETATM   29  F   UNL     1       7.451  22.518  52.770  1.00  0.00    -0.205 F 
ENDBRANCH   2  19
TORSDOF 3
ENDMDL
MODEL 4
REMARK VINA RESULT:      -9.3      2.792      8.520
REMARK  3 active torsions:
REMARK  status: ('A' for Active; 'I' for Inactive)
REMARK    1  A    between atoms: C_12  and  C_13 
REMARK    2  A    between atoms: C_13  and  N_14 
REMARK       I    between atoms: N_14  and  C_15 
REMARK    3  A    between atoms: C_15  and  C_16 
ROOT
HETATM    1  N   UNL     1       7.502  27.068  55.378  1.00  0.00    -0.352 N 
HETATM    2  C   UNL     1       7.253  28.397  55.609  1.00  0.00     0.254 C 
HETATM    3  O   UNL     1       6.160  28.907  55.372  1.00  0.00    -0.268 OA
HETATM    4  H   UNL     1       8.431  26.712  55.552  1.00  0.00     0.163 HD
ENDROOT
BRANCH   1   5
HETATM    5  C   UNL     1       6.544  26.182  54.764  1.00  0.00     0.165 C 
BRANCH   5   6
HETATM    6  C   UNL     1       7.178  24.879  54.371  1.00  0.00     0.008 C 
HETATM    7  C   UNL     1       7.289  24.518  52.886  1.00  0.00     0.043 C 
HETATM    8  C   UNL     1       6.977  25.584  51.854  1.00  0.00     0.071 C 
HETATM    9  N   UNL     1       7.661  23.366  52.401  1.00  0.00    -0.234 NA
HETATM   10  C   UNL     1       7.980  22.445  53.355  1.00  0.00     0.154 C 
HETATM   11  C   UNL     1       8.231  21.156  53.091  1.00  0.00     0.128 C 
HETATM   12  N   UNL     1       8.050  22.703  54.710  1.00  0.00    -0.239 N 
HETATM   13  C   UNL     1       8.499  20.552  54.412  1.00  0.00     0.263 C 
HETATM   14  N   UNL     1       8.237  21.512  55.375  1.00  0.00    -0.258 N 
HETATM   15  O   UNL     1       8.918  19.423  54.594  1.00  0.00    -0.267 OA
HETATM   16  H   UNL     1       8.726  21.481  56.258  1.00  0.00     0.191 HD
HETATM   17  C   UNL     1       7.579  23.900  55.226  1.00  0.00     0.042 C 
HETATM   18  C   UNL     1       7.542  24.017  56.729  1.00  0.00     0.071 C 
ENDBRANCH   5   6
ENDBRANCH   1   5
BRANCH   2  19
HETATM   19  C   UNL     1       8.370  29.180  56.149  1.00  0.00     0.062 A 
HETATM   20  C   UNL     1       8.489  30.026  57.313  1.00  0.00     0.046 A 
HETATM   21  C   UNL     1       9.803  30.510  57.348  1.00  0.00     0.046 A 
HETATM   22  C   UNL     1       7.635  30.438  58.360  1.00  0.00     0.130 A 
HETATM   23  C   UNL     1      10.280  31.363  58.355  1.00  0.00     0.030 A 
HETATM   24  N   UNL     1      10.459  29.993  56.257  1.00  0.00    -0.364 N 
HETATM   25  C   UNL     1       9.397  31.744  59.368  1.00  0.00     0.005 A 
HETATM   26  C   UNL     1       8.085  31.287  59.373  1.00  0.00     0.043 A 
HETATM   27  H   UNL     1      11.427  30.174  56.027  1.00  0.00     0.165 HD
HETATM   28  C   UNL     1       9.616  29.196  55.540  1.00  0.00     0.106 A 
HETATM   29  F   UNL     1       6.360  30.022  58.408  1.00  0.00    -0.205 F 
ENDBRANCH   2  19
TORSDOF 3
ENDMDL
MODEL 5
REMARK VINA RESULT:      -9.3      2.493      7.965
REMARK  3 active torsions:
REMARK  status: ('A' for Active; 'I' for Inactive)
REMARK    1  A    between atoms: C_12  and  C_13 
REMARK    2  A    between atoms: C_13  and  N_14 
REMARK       I    between atoms: N_14  and  C_15 
REMARK    3  A    between atoms: C_15  and  C_16 
ROOT
HETATM    1  N   UNL     1       6.195  27.096  55.368  1.00  0.00    -0.352 N 
HETATM    2  C   UNL     1       7.166  28.060  55.272  1.00  0.00     0.254 C 
HETATM    3  O   UNL     1       7.844  28.205  54.257  1.00  0.00    -0.268 OA
HETATM    4  H   UNL     1       5.697  26.994  56.240  1.00  0.00     0.163 HD
ENDROOT
BRANCH   1   5
HETATM    5  C   UNL     1       5.946  26.123  54.332  1.00  0.00     0.165 C 
BRANCH   5   6
HETATM    6  C   UNL     1       6.908  24.973  54.419  1.00  0.00     0.008 C 
HETATM    7  C   UNL     1       7.521  24.410  53.132  1.00  0.00     0.043 C 
HETATM    8  C   UNL     1       7.327  25.177  51.840  1.00  0.00     0.071 C 
HETATM    9  N   UNL     1       8.235  23.323  53.033  1.00  0.00    -0.234 NA
HETATM   10  C   UNL     1       8.431  22.684  54.221  1.00  0.00     0.154 C 
HETATM   11  C   UNL     1       8.993  21.473  54.331  1.00  0.00     0.128 C 
HETATM   12  N   UNL     1       8.045  23.172  55.455  1.00  0.00    -0.239 N 
HETATM   13  C   UNL     1       8.970  21.183  55.779  1.00  0.00     0.263 C 
HETATM   14  N   UNL     1       8.254  22.193  56.400  1.00  0.00    -0.258 N 
HETATM   15  O   UNL     1       9.528  20.241  56.313  1.00  0.00    -0.267 OA
HETATM   16  H   UNL     1       8.458  22.432  57.360  1.00  0.00     0.191 HD
HETATM   17  C   UNL     1       7.220  24.282  55.548  1.00  0.00     0.042 C 
HETATM   18  C   UNL     1       6.719  24.634  56.926  1.00  0.00     0.071 C 
ENDBRANCH   5   6
ENDBRANCH   1   5
BRANCH   2  19
HETATM   19  C   UNL     1       7.356  28.906  56.456  1.00  0.00     0.062 A 
HETATM   20  C   UNL     1       8.494  29.643  56.949  1.00  0.00     0.046 A 
HETATM   21  C   UNL     1       8.097  30.294  58.124  1.00  0.00     0.046 A 
HETATM   22  C   UNL     1       9.830  29.847  56.533  1.00  0.00     0.130 A 
HETATM   23  C   UNL     1       8.954  31.114  58.874  1.00  0.00     0.030 A 
HETATM   24  N   UNL     1       6.780  29.971  58.346  1.00  0.00    -0.364 N 
HETATM   25  C   UNL     1      10.265  31.284  58.423  1.00  0.00     0.005 A 
HETATM   26  C   UNL     1      10.702  30.656  57.263  1.00  0.00     0.043 A 
HETATM   27  H   UNL     1       6.229  30.302  59.126  1.00  0.00     0.165 HD
HETATM   28  C   UNL     1       6.328  29.149  57.355  1.00  0.00     0.106 A 
HETATM   29  F   UNL     1      10.296  29.264  55.419  1.00  0.00    -0.205 F 
ENDBRANCH   2  19
TORSDOF 3
ENDMDL
MODEL 6
REMARK VINA RESULT:      -9.1      1.569      2.069
REMARK  3 active torsions:
REMARK  status: ('A' for Active; 'I' for Inactive)
REMARK    1  A    between atoms: C_12  and  C_13 
REMARK    2  A    between atoms: C_13  and  N_14 
REMARK       I    between atoms: N_14  and  C_15 
REMARK    3  A    between atoms: C_15  and  C_16 
ROOT
HETATM    1  N   UNL     1       7.637  26.738  54.127  1.00  0.00    -0.352 N 
HETATM    2  C   UNL     1       6.766  25.755  53.735  1.00  0.00     0.254 C 
HETATM    3  O   UNL     1       5.619  26.006  53.371  1.00  0.00    -0.268 OA
HETATM    4  H   UNL     1       8.553  26.471  54.457  1.00  0.00     0.163 HD
ENDROOT
BRANCH   1   5
HETATM    5  C   UNL     1       7.263  28.128  54.230  1.00  0.00     0.165 C 
BRANCH   5   6
HETATM    6  C   UNL     1       7.501  28.657  55.614  1.00  0.00     0.008 C 
HETATM    7  C   UNL     1       6.341  28.681  56.616  1.00  0.00     0.043 C 
HETATM    8  C   UNL     1       5.060  27.954  56.262  1.00  0.00     0.071 C 
HETATM    9  N   UNL     1       6.350  29.255  57.787  1.00  0.00    -0.234 NA
HETATM   10  C   UNL     1       7.533  29.859  58.095  1.00  0.00     0.154 C 
HETATM   11  C   UNL     1       7.713  30.641  59.168  1.00  0.00     0.128 C 
HETATM   12  N   UNL     1       8.682  29.781  57.332  1.00  0.00    -0.239 N 
HETATM   13  C   UNL     1       9.120  31.083  59.073  1.00  0.00     0.263 C 
HETATM   14  N   UNL     1       9.620  30.641  57.860  1.00  0.00    -0.258 N 
HETATM   15  O   UNL     1       9.723  31.687  59.941  1.00  0.00    -0.267 OA
HETATM   16  H   UNL     1      10.608  30.455  57.764  1.00  0.00     0.191 HD
HETATM   17  C   UNL     1       8.647  29.241  56.056  1.00  0.00     0.042 C 
HETATM   18  C   UNL     1       9.911  29.356  55.241  1.00  0.00     0.071 C 
ENDBRANCH   5   6
ENDBRANCH   1   5
BRANCH   2  19
HETATM   19  C   UNL     1       7.278  24.380  53.781  1.00  0.00     0.062 A 
HETATM   20  C   UNL     1       7.685  23.533  54.876  1.00  0.00     0.046 A 
HETATM   21  C   UNL     1       8.074  22.302  54.333  1.00  0.00     0.046 A 
HETATM   22  C   UNL     1       7.766  23.658  56.282  1.00  0.00     0.130 A 
HETATM   23  C   UNL     1       8.525  21.227  55.113  1.00  0.00     0.030 A 
HETATM   24  N   UNL     1       7.918  22.388  52.971  1.00  0.00    -0.364 N 
HETATM   25  C   UNL     1       8.587  21.399  56.498  1.00  0.00     0.005 A 
HETATM   26  C   UNL     1       8.212  22.604  57.080  1.00  0.00     0.043 A 
HETATM   27  H   UNL     1       8.123  21.643  52.318  1.00  0.00     0.165 HD
HETATM   28  C   UNL     1       7.440  23.620  52.633  1.00  0.00     0.106 A 
HETATM   29  F   UNL     1       7.412  24.801  56.888  1.00  0.00    -0.205 F 
ENDBRANCH   2  19
TORSDOF 3
ENDMDL
MODEL 7
REMARK VINA RESULT:      -9.1      4.270      7.933
REMARK  3 active torsions:
REMARK  status: ('A' for Active; 'I' for Inactive)
REMARK    1  A    between atoms: C_12  and  C_13 
REMARK    2  A    between atoms: C_13  and  N_14 
REMARK       I    between atoms: N_14  and  C_15 
REMARK    3  A    between atoms: C_15  and  C_16 
ROOT
HETATM    1  N   UNL     1       6.993  27.439  53.363  1.00  0.00    -0.352 N 
HETATM    2  C   UNL     1       5.687  27.692  53.032  1.00  0.00     0.254 C 
HETATM    3  O   UNL     1       4.766  27.514  53.827  1.00  0.00    -0.268 OA
HETATM    4  H   UNL     1       7.704  27.563  52.657  1.00  0.00     0.163 HD
ENDROOT
BRANCH   1   5
HETATM    5  C   UNL     1       7.390  26.867  54.626  1.00  0.00     0.165 C 
BRANCH   5   6
HETATM    6  C   UNL     1       7.342  25.367  54.586  1.00  0.00     0.008 C 
HETATM    7  C   UNL     1       7.032  24.593  55.873  1.00  0.00     0.043 C 
HETATM    8  C   UNL     1       6.550  25.364  57.086  1.00  0.00     0.071 C 
HETATM    9  N   UNL     1       7.116  23.301  56.031  1.00  0.00    -0.234 NA
HETATM   10  C   UNL     1       7.506  22.634  54.907  1.00  0.00     0.154 C 
HETATM   11  C   UNL     1       7.811  21.330  54.885  1.00  0.00     0.128 C 
HETATM   12  N   UNL     1       7.675  23.212  53.664  1.00  0.00    -0.239 N 
HETATM   13  C   UNL     1       8.195  21.063  53.483  1.00  0.00     0.263 C 
HETATM   14  N   UNL     1       8.227  22.277  52.817  1.00  0.00    -0.258 N 
HETATM   15  O   UNL     1       8.397  19.959  53.011  1.00  0.00    -0.267 OA
HETATM   16  H   UNL     1       8.050  22.306  51.823  1.00  0.00     0.191 HD
HETATM   17  C   UNL     1       7.664  24.590  53.518  1.00  0.00     0.042 C 
HETATM   18  C   UNL     1       8.026  25.125  52.156  1.00  0.00     0.071 C 
ENDBRANCH   5   6
ENDBRANCH   1   5
BRANCH   2  19
HETATM   19  C   UNL     1       5.447  28.181  51.670  1.00  0.00     0.062 A 
HETATM   20  C   UNL     1       5.033  27.515  50.459  1.00  0.00     0.046 A 
HETATM   21  C   UNL     1       4.947  28.485  49.452  1.00  0.00     0.046 A 
HETATM   22  C   UNL     1       4.706  26.190  50.089  1.00  0.00     0.130 A 
HETATM   23  C   UNL     1       4.562  28.194  48.135  1.00  0.00     0.030 A 
HETATM   24  N   UNL     1       5.297  29.689  50.015  1.00  0.00    -0.364 N 
HETATM   25  C   UNL     1       4.250  26.870  47.818  1.00  0.00     0.005 A 
HETATM   26  C   UNL     1       4.322  25.874  48.785  1.00  0.00     0.043 A 
HETATM   27  H   UNL     1       5.324  30.571  49.520  1.00  0.00     0.165 HD
HETATM   28  C   UNL     1       5.591  29.519  51.336  1.00  0.00     0.106 A 
HETATM   29  F   UNL     1       4.758  25.196  50.988  1.00  0.00    -0.205 F 
ENDBRANCH   2  19
TORSDOF 3
ENDMDL
MODEL 8
REMARK VINA RESULT:      -8.9      1.411      2.463
REMARK  3 active torsions:
REMARK  status: ('A' for Active; 'I' for Inactive)
REMARK    1  A    between atoms: C_12  and  C_13 
REMARK    2  A    between atoms: C_13  and  N_14 
REMARK       I    between atoms: N_14  and  C_15 
REMARK    3  A    between atoms: C_15  and  C_16 
ROOT
HETATM    1  N   UNL     1       6.664  26.509  55.443  1.00  0.00    -0.352 N 
HETATM    2  C   UNL     1       7.448  25.595  54.787  1.00  0.00     0.254 C 
HETATM    3  O   UNL     1       7.866  25.791  53.648  1.00  0.00    -0.268 OA
HETATM    4  H   UNL     1       6.315  26.276  56.361  1.00  0.00     0.163 HD
ENDROOT
BRANCH   1   5
HETATM    5  C   UNL     1       6.194  27.727  54.830  1.00  0.00     0.165 C 
BRANCH   5   6
HETATM    6  C   UNL     1       6.240  28.876  55.795  1.00  0.00     0.008 C 
HETATM    7  C   UNL     1       7.600  29.430  56.238  1.00  0.00     0.043 C 
HETATM    8  C   UNL     1       8.845  28.963  55.510  1.00  0.00     0.071 C 
HETATM    9  N   UNL     1       7.802  30.305  57.183  1.00  0.00    -0.234 NA
HETATM   10  C   UNL     1       6.658  30.739  57.785  1.00  0.00     0.154 C 
HETATM   11  C   UNL     1       6.639  31.510  58.880  1.00  0.00     0.128 C 
HETATM   12  N   UNL     1       5.378  30.415  57.376  1.00  0.00    -0.239 N 
HETATM   13  C   UNL     1       5.204  31.699  59.175  1.00  0.00     0.263 C 
HETATM   14  N   UNL     1       4.485  30.894  58.308  1.00  0.00    -0.258 N 
HETATM   15  O   UNL     1       4.757  32.467  60.008  1.00  0.00    -0.267 OA
HETATM   16  H   UNL     1       3.548  31.159  58.042  1.00  0.00     0.191 HD
HETATM   17  C   UNL     1       5.169  29.427  56.427  1.00  0.00     0.042 C 
HETATM   18  C   UNL     1       3.736  29.029  56.174  1.00  0.00     0.071 C 
ENDBRANCH   5   6
ENDBRANCH   1   5
BRANCH   2  19
HETATM   19  C   UNL     1       7.756  24.361  55.520  1.00  0.00     0.062 A 
HETATM   20  C   UNL     1       7.856  22.983  55.102  1.00  0.00     0.046 A 
HETATM   21  C   UNL     1       8.197  22.225  56.229  1.00  0.00     0.046 A 
HETATM   22  C   UNL     1       7.705  22.277  53.887  1.00  0.00     0.130 A 
HETATM   23  C   UNL     1       8.386  20.836  56.192  1.00  0.00     0.030 A 
HETATM   24  N   UNL     1       8.297  23.092  57.291  1.00  0.00    -0.364 N 
HETATM   25  C   UNL     1       8.226  20.182  54.968  1.00  0.00     0.005 A 
HETATM   26  C   UNL     1       7.887  20.894  53.823  1.00  0.00     0.043 A 
HETATM   27  H   UNL     1       8.532  22.822  58.236  1.00  0.00     0.165 HD
HETATM   28  C   UNL     1       8.041  24.367  56.877  1.00  0.00     0.106 A 
HETATM   29  F   UNL     1       7.382  22.922  52.756  1.00  0.00    -0.205 F 
ENDBRANCH   2  19
TORSDOF 3
ENDMDL
MODEL 9
REMARK VINA RESULT:      -8.8      3.559      5.473
REMARK  3 active torsions:
REMARK  status: ('A' for Active; 'I' for Inactive)
REMARK    1  A    between atoms: C_12  and  C_13 
REMARK    2  A    between atoms: C_13  and  N_14 
REMARK       I    between atoms: N_14  and  C_15 
REMARK    3  A    between atoms: C_15  and  C_16 
ROOT
HETATM    1  N   UNL     1       6.762  30.543  58.737  1.00  0.00    -0.352 N 
HETATM    2  C   UNL     1       7.263  29.743  57.742  1.00  0.00     0.254 C 
HETATM    3  O   UNL     1       8.341  29.976  57.199  1.00  0.00    -0.268 OA
HETATM    4  H   UNL     1       5.852  30.329  59.118  1.00  0.00     0.163 HD
ENDROOT
BRANCH   1   5
HETATM    5  C   UNL     1       7.405  31.759  59.169  1.00  0.00     0.165 C 
BRANCH   5   6
HETATM    6  C   UNL     1       6.943  32.164  60.539  1.00  0.00     0.008 C 
HETATM    7  C   UNL     1       5.603  32.892  60.693  1.00  0.00     0.043 C 
HETATM    8  C   UNL     1       4.677  32.969  59.496  1.00  0.00     0.071 C 
HETATM    9  N   UNL     1       5.150  33.445  61.784  1.00  0.00    -0.234 NA
HETATM   10  C   UNL     1       5.986  33.317  62.854  1.00  0.00     0.154 C 
HETATM   11  C   UNL     1       5.800  33.942  64.023  1.00  0.00     0.128 C 
HETATM   12  N   UNL     1       7.146  32.567  62.864  1.00  0.00    -0.239 N 
HETATM   13  C   UNL     1       6.950  33.528  64.853  1.00  0.00     0.263 C 
HETATM   14  N   UNL     1       7.810  32.802  64.048  1.00  0.00    -0.258 N 
HETATM   15  O   UNL     1       7.073  33.759  66.042  1.00  0.00    -0.267 OA
HETATM   16  H   UNL     1       8.404  32.096  64.460  1.00  0.00     0.191 HD
HETATM   17  C   UNL     1       7.663  32.049  61.687  1.00  0.00     0.042 C 
HETATM   18  C   UNL     1       9.018  31.392  61.779  1.00  0.00     0.071 C 
ENDBRANCH   5   6
ENDBRANCH   1   5
BRANCH   2  19
HETATM   19  C   UNL     1       6.435  28.596  57.354  1.00  0.00     0.062 A 
HETATM   20  C   UNL     1       6.759  27.221  57.057  1.00  0.00     0.046 A 
HETATM   21  C   UNL     1       5.560  26.561  56.761  1.00  0.00     0.046 A 
HETATM   22  C   UNL     1       7.937  26.442  57.012  1.00  0.00     0.130 A 
HETATM   23  C   UNL     1       5.494  25.199  56.431  1.00  0.00     0.030 A 
HETATM   24  N   UNL     1       4.547  27.485  56.864  1.00  0.00    -0.364 N 
HETATM   25  C   UNL     1       6.686  24.472  56.399  1.00  0.00     0.005 A 
HETATM   26  C   UNL     1       7.899  25.086  56.685  1.00  0.00     0.043 A 
HETATM   27  H   UNL     1       3.568  27.288  56.705  1.00  0.00     0.165 HD
HETATM   28  C   UNL     1       5.058  28.698  57.222  1.00  0.00     0.106 A 
HETATM   29  F   UNL     1       9.131  26.991  57.284  1.00  0.00    -0.205 F 
ENDBRANCH   2  19
TORSDOF 3
ENDMDL
MODEL 10
REMARK VINA RESULT:      -8.8      2.230      3.390
REMARK  3 active torsions:
REMARK  status: ('A' for Active; 'I' for Inactive)
REMARK    1  A    between atoms: C_12  and  C_13 
REMARK    2  A    between atoms: C_13  and  N_14 
REMARK       I    between atoms: N_14  and  C_15 
REMARK    3  A    between atoms: C_15  and  C_16 
ROOT
HETATM    1  N   UNL     1       7.015  28.330  55.993  1.00  0.00    -0.352 N 
HETATM    2  C   UNL     1       7.176  27.710  54.781  1.00  0.00     0.254 C 
HETATM    3  O   UNL     1       7.375  28.342  53.746  1.00  0.00    -0.268 OA
HETATM    4  H   UNL     1       6.812  27.763  56.804  1.00  0.00     0.163 HD
ENDROOT
BRANCH   1   5
HETATM    5  C   UNL     1       6.978  29.763  56.146  1.00  0.00     0.165 C 
BRANCH   5   6
HETATM    6  C   UNL     1       7.584  30.189  57.452  1.00  0.00     0.008 C 
HETATM    7  C   UNL     1       9.068  29.910  57.716  1.00  0.00     0.043 C 
HETATM    8  C   UNL     1       9.932  29.432  56.566  1.00  0.00     0.071 C 
HETATM    9  N   UNL     1       9.690  30.069  58.851  1.00  0.00    -0.234 NA
HETATM   10  C   UNL     1       8.894  30.545  59.852  1.00  0.00     0.154 C 
HETATM   11  C   UNL     1       9.280  30.632  61.131  1.00  0.00     0.128 C 
HETATM   12  N   UNL     1       7.586  30.960  59.692  1.00  0.00    -0.239 N 
HETATM   13  C   UNL     1       8.100  31.170  61.839  1.00  0.00     0.263 C 
HETATM   14  N   UNL     1       7.052  31.219  60.934  1.00  0.00    -0.258 N 
HETATM   15  O   UNL     1       8.088  31.540  62.999  1.00  0.00    -0.267 OA
HETATM   16  H   UNL     1       6.321  31.905  61.053  1.00  0.00     0.191 HD
HETATM   17  C   UNL     1       6.908  30.715  58.508  1.00  0.00     0.042 C 
HETATM   18  C   UNL     1       5.438  31.054  58.493  1.00  0.00     0.071 C 
ENDBRANCH   5   6
ENDBRANCH   1   5
BRANCH   2  19
HETATM   19  C   UNL     1       7.090  26.245  54.786  1.00  0.00     0.062 A 
HETATM   20  C   UNL     1       7.620  25.245  55.682  1.00  0.00     0.046 A 
HETATM   21  C   UNL     1       7.207  23.993  55.207  1.00  0.00     0.046 A 
HETATM   22  C   UNL     1       8.404  25.248  56.858  1.00  0.00     0.130 A 
HETATM   23  C   UNL     1       7.536  22.785  55.840  1.00  0.00     0.030 A 
HETATM   24  N   UNL     1       6.463  24.211  54.072  1.00  0.00    -0.364 N 
HETATM   25  C   UNL     1       8.313  22.840  56.999  1.00  0.00     0.005 A 
HETATM   26  C   UNL     1       8.745  24.060  57.506  1.00  0.00     0.043 A 
HETATM   27  H   UNL     1       6.035  23.484  53.515  1.00  0.00     0.165 HD
HETATM   28  C   UNL     1       6.384  25.549  53.816  1.00  0.00     0.106 A 
HETATM   29  F   UNL     1       8.842  26.401  57.386  1.00  0.00    -0.205 F 
ENDBRANCH   2  19
TORSDOF 3
ENDMDL
