MODEL 1
REMARK VINA RESULT:      -8.7      0.000      0.000
REMARK  6 active torsions:
REMARK  status: ('A' for Active; 'I' for Inactive)
REMARK    1  A    between atoms: C_5  and  N_6 
REMARK    2  A    between atoms: N_6  and  C_7 
REMARK    3  A    between atoms: C_7  and  C_8 
REMARK    4  A    between atoms: N_10  and  C_12 
REMARK    5  A    between atoms: C_12  and  C_13 
REMARK    6  A    between atoms: C_14  and  O_15 
ROOT
HETATM    1  C   UNL     1       6.475  25.174  56.403  1.00  0.00     0.031 C 
HETATM    2  C   UNL     1       7.395  26.277  56.928  1.00  0.00     0.241 C 
HETATM    3  N   UNL     1       6.532  27.508  57.023  1.00  0.00    -0.067 N 
HETATM    4  H   UNL     1       6.635  27.899  57.980  1.00  0.00     0.280 HD
HETATM    5  C   UNL     1       5.091  27.100  56.865  1.00  0.00     0.235 C 
HETATM    6  C   UNL     1       5.124  25.584  56.991  1.00  0.00     0.035 C 
ENDROOT
BRANCH   1   7
HETATM    7  C   UNL     1       6.439  25.076  54.867  1.00  0.00     0.127 C 
BRANCH   7   8
HETATM    8  N   UNL     1       7.675  24.490  54.360  1.00  0.00    -0.376 N 
HETATM    9  H   UNL     1       7.994  24.948  53.499  1.00  0.00     0.161 HD
BRANCH   8  10
HETATM   10  C   UNL     1       7.942  23.125  54.259  1.00  0.00     0.101 A 
HETATM   11  N   UNL     1       8.399  22.378  55.278  1.00  0.00    -0.347 N 
HETATM   12  C   UNL     1       8.667  21.059  55.176  1.00  0.00     0.007 A 
HETATM   13  H   UNL     1       8.539  22.814  56.179  1.00  0.00     0.167 HD
HETATM   14  C   UNL     1       9.127  20.314  56.390  1.00  0.00     0.068 C 
HETATM   15  C   UNL     1       8.498  20.417  53.950  1.00  0.00     0.025 A 
HETATM   16  C   UNL     1       8.062  21.148  52.857  1.00  0.00     0.006 A 
HETATM   17  C   UNL     1       7.789  22.503  53.010  1.00  0.00     0.048 A 
ENDBRANCH   8  10
ENDBRANCH   7   8
ENDBRANCH   1   7
BRANCH   3  18
HETATM   18  C   UNL     1       6.973  28.660  56.155  1.00  0.00     0.276 C 
BRANCH  18  19
HETATM   19  C   UNL     1       8.192  29.372  56.670  1.00  0.00     0.002 A 
HETATM   20  C   UNL     1       8.161  30.062  57.890  1.00  0.00     0.091 A 
HETATM   21  C   UNL     1       9.309  30.681  58.395  1.00  0.00     0.044 A 
HETATM   22 BR   UNL     1       9.257  31.609  60.043  1.00  0.00    -0.048 Br
HETATM   23  C   UNL     1      10.502  30.619  57.681  1.00  0.00     0.022 A 
HETATM   24  C   UNL     1      10.548  29.936  56.467  1.00  0.00     0.002 A 
HETATM   25  C   UNL     1       9.403  29.311  55.964  1.00  0.00     0.012 A 
BRANCH  20  26
HETATM   26  O   UNL     1       6.960  30.121  58.557  1.00  0.00    -0.359 OA
HETATM   27  H   UNL     1       7.181  30.110  59.515  1.00  0.00     0.218 HD
ENDBRANCH  20  26
ENDBRANCH  18  19
ENDBRANCH   3  18
TORSDOF 6
ENDMDL
MODEL 2
REMARK VINA RESULT:      -8.5      3.449      8.127
REMARK  6 active torsions:
REMARK  status: ('A' for Active; 'I' for Inactive)
REMARK    1  A    between atoms: C_5  and  N_6 
REMARK    2  A    between atoms: N_6  and  C_7 
REMARK    3  A    between atoms: C_7  and  C_8 
REMARK    4  A    between atoms: N_10  and  C_12 
REMARK    5  A    between atoms: C_12  and  C_13 
REMARK    6  A    between atoms: C_14  and  O_15 
ROOT
HETATM    1  C   UNL     1       6.432  29.026  55.909  1.00  0.00     0.031 C 
HETATM    2  C   UNL     1       7.549  28.160  55.324  1.00  0.00     0.241 C 
HETATM    3  N   UNL     1       6.939  26.797  55.126  1.00  0.00    -0.067 N 
HETATM    4  H   UNL     1       7.119  26.503  54.147  1.00  0.00     0.280 HD
HETATM    5  C   UNL     1       5.445  26.910  55.286  1.00  0.00     0.235 C 
HETATM    6  C   UNL     1       5.187  28.409  55.269  1.00  0.00     0.035 C 
ENDROOT
BRANCH   1   7
HETATM    7  C   UNL     1       6.371  29.004  57.447  1.00  0.00     0.127 C 
BRANCH   7   8
HETATM    8  N   UNL     1       7.713  28.919  58.013  1.00  0.00    -0.376 N 
HETATM    9  H   UNL     1       7.890  28.008  58.450  1.00  0.00     0.161 HD
BRANCH   8  10
HETATM   10  C   UNL     1       8.330  29.906  58.783  1.00  0.00     0.101 A 
HETATM   11  N   UNL     1       8.021  30.149  60.068  1.00  0.00    -0.347 N 
HETATM   12  C   UNL     1       8.610  31.112  60.808  1.00  0.00     0.007 A 
HETATM   13  H   UNL     1       7.320  29.576  60.519  1.00  0.00     0.167 HD
HETATM   14  C   UNL     1       8.222  31.264  62.245  1.00  0.00     0.068 C 
HETATM   15  C   UNL     1       9.575  31.932  60.224  1.00  0.00     0.025 A 
HETATM   16  C   UNL     1       9.906  31.747  58.891  1.00  0.00     0.006 A 
HETATM   17  C   UNL     1       9.280  30.737  58.169  1.00  0.00     0.048 A 
ENDBRANCH   8  10
ENDBRANCH   7   8
ENDBRANCH   1   7
BRANCH   3  18
HETATM   18  C   UNL     1       7.589  25.690  55.919  1.00  0.00     0.276 C 
BRANCH  18  19
HETATM   19  C   UNL     1       7.733  24.405  55.156  1.00  0.00     0.002 A 
HETATM   20  C   UNL     1       7.902  23.184  55.824  1.00  0.00     0.091 A 
HETATM   21  C   UNL     1       7.984  21.982  55.116  1.00  0.00     0.044 A 
HETATM   22 BR   UNL     1       8.211  20.340  56.028  1.00  0.00    -0.048 Br
HETATM   23  C   UNL     1       7.900  21.987  53.727  1.00  0.00     0.022 A 
HETATM   24  C   UNL     1       7.732  23.193  53.047  1.00  0.00     0.002 A 
HETATM   25  C   UNL     1       7.643  24.396  53.755  1.00  0.00     0.012 A 
BRANCH  20  26
HETATM   26  O   UNL     1       8.001  23.219  57.195  1.00  0.00    -0.359 OA
HETATM   27  H   UNL     1       8.947  23.043  57.403  1.00  0.00     0.218 HD
ENDBRANCH  20  26
ENDBRANCH  18  19
ENDBRANCH   3  18
TORSDOF 6
ENDMDL
MODEL 3
REMARK VINA RESULT:      -8.4      3.594      8.065
REMARK  6 active torsions:
REMARK  status: ('A' for Active; 'I' for Inactive)
REMARK    1  A    between atoms: C_5  and  N_6 
REMARK    2  A    between atoms: N_6  and  C_7 
REMARK    3  A    between atoms: C_7  and  C_8 
REMARK    4  A    between atoms: N_10  and  C_12 
REMARK    5  A    between atoms: C_12  and  C_13 
REMARK    6  A    between atoms: C_14  and  O_15 
ROOT
HETATM    1  C   UNL     1       6.249  27.613  55.921  1.00  0.00     0.031 C 
HETATM    2  C   UNL     1       7.364  26.870  55.184  1.00  0.00     0.241 C 
HETATM    3  N   UNL     1       7.118  25.408  55.455  1.00  0.00    -0.067 N 
HETATM    4  H   UNL     1       7.107  24.910  54.543  1.00  0.00     0.280 HD
HETATM    5  C   UNL     1       5.748  25.253  56.061  1.00  0.00     0.235 C 
HETATM    6  C   UNL     1       5.096  26.611  55.843  1.00  0.00     0.035 C 
ENDROOT
BRANCH   1   7
HETATM    7  C   UNL     1       6.605  27.984  57.372  1.00  0.00     0.127 C 
BRANCH   7   8
HETATM    8  N   UNL     1       8.051  28.001  57.558  1.00  0.00    -0.376 N 
HETATM    9  H   UNL     1       8.369  27.254  58.185  1.00  0.00     0.161 HD
BRANCH   8  10
HETATM   10  C   UNL     1       8.822  29.139  57.802  1.00  0.00     0.101 A 
HETATM   11  N   UNL     1       8.469  30.106  58.666  1.00  0.00    -0.347 N 
HETATM   12  C   UNL     1       9.210  31.211  58.893  1.00  0.00     0.007 A 
HETATM   13  H   UNL     1       7.611  30.003  59.191  1.00  0.00     0.167 HD
HETATM   14  C   UNL     1       8.744  32.202  59.913  1.00  0.00     0.068 C 
HETATM   15  C   UNL     1      10.395  31.400  58.184  1.00  0.00     0.025 A 
HETATM   16  C   UNL     1      10.788  30.450  57.254  1.00  0.00     0.006 A 
HETATM   17  C   UNL     1       9.999  29.322  57.060  1.00  0.00     0.048 A 
ENDBRANCH   8  10
ENDBRANCH   7   8
ENDBRANCH   1   7
BRANCH   3  18
HETATM   18  C   UNL     1       8.231  24.704  56.191  1.00  0.00     0.276 C 
BRANCH  18  19
HETATM   19  C   UNL     1       8.232  23.214  56.003  1.00  0.00     0.002 A 
HETATM   20  C   UNL     1       8.209  22.650  54.720  1.00  0.00     0.091 A 
HETATM   21  C   UNL     1       8.262  21.264  54.543  1.00  0.00     0.044 A 
HETATM   22 BR   UNL     1       8.232  20.513  52.807  1.00  0.00    -0.048 Br
HETATM   23  C   UNL     1       8.334  20.425  55.651  1.00  0.00     0.022 A 
HETATM   24  C   UNL     1       8.358  20.971  56.933  1.00  0.00     0.002 A 
HETATM   25  C   UNL     1       8.312  22.357  57.111  1.00  0.00     0.012 A 
BRANCH  20  26
HETATM   26  O   UNL     1       8.116  23.508  53.650  1.00  0.00    -0.359 OA
HETATM   27  H   UNL     1       8.212  24.415  54.020  1.00  0.00     0.218 HD
ENDBRANCH  20  26
ENDBRANCH  18  19
ENDBRANCH   3  18
TORSDOF 6
ENDMDL
MODEL 4
REMARK VINA RESULT:      -8.2      5.478      7.950
REMARK  6 active torsions:
REMARK  status: ('A' for Active; 'I' for Inactive)
REMARK    1  A    between atoms: C_5  and  N_6 
REMARK    2  A    between atoms: N_6  and  C_7 
REMARK    3  A    between atoms: C_7  and  C_8 
REMARK    4  A    between atoms: N_10  and  C_12 
REMARK    5  A    between atoms: C_12  and  C_13 
REMARK    6  A    between atoms: C_14  and  O_15 
ROOT
HETATM    1  C   UNL     1       4.511  26.759  53.034  1.00  0.00     0.031 C 
HETATM    2  C   UNL     1       5.099  25.399  53.416  1.00  0.00     0.241 C 
HETATM    3  N   UNL     1       6.291  25.707  54.285  1.00  0.00    -0.067 N 
HETATM    4  H   UNL     1       6.199  25.156  55.161  1.00  0.00     0.280 HD
HETATM    5  C   UNL     1       6.243  27.162  54.671  1.00  0.00     0.235 C 
HETATM    6  C   UNL     1       4.844  27.603  54.266  1.00  0.00     0.035 C 
ENDROOT
BRANCH   1   7
HETATM    7  C   UNL     1       5.104  27.350  51.742  1.00  0.00     0.127 C 
BRANCH   7   8
HETATM    8  N   UNL     1       4.049  27.902  50.899  1.00  0.00    -0.376 N 
HETATM    9  H   UNL     1       3.201  28.118  51.434  1.00  0.00     0.161 HD
BRANCH   8  10
HETATM   10  C   UNL     1       3.670  27.408  49.651  1.00  0.00     0.101 A 
HETATM   11  N   UNL     1       2.439  27.558  49.133  1.00  0.00    -0.347 N 
HETATM   12  C   UNL     1       2.070  27.069  47.930  1.00  0.00     0.007 A 
HETATM   13  H   UNL     1       1.749  28.077  49.658  1.00  0.00     0.167 HD
HETATM   14  C   UNL     1       0.686  27.338  47.430  1.00  0.00     0.068 C 
HETATM   15  C   UNL     1       2.987  26.339  47.176  1.00  0.00     0.025 A 
HETATM   16  C   UNL     1       4.260  26.124  47.679  1.00  0.00     0.006 A 
HETATM   17  C   UNL     1       4.600  26.654  48.918  1.00  0.00     0.048 A 
ENDBRANCH   8  10
ENDBRANCH   7   8
ENDBRANCH   1   7
BRANCH   3  18
HETATM   18  C   UNL     1       7.614  25.229  53.740  1.00  0.00     0.276 C 
BRANCH  18  19
HETATM   19  C   UNL     1       7.829  23.750  53.891  1.00  0.00     0.002 A 
HETATM   20  C   UNL     1       8.002  23.171  55.156  1.00  0.00     0.091 A 
HETATM   21  C   UNL     1       8.151  21.789  55.301  1.00  0.00     0.044 A 
HETATM   22 BR   UNL     1       8.383  21.019  57.013  1.00  0.00    -0.048 Br
HETATM   23  C   UNL     1       8.132  20.967  54.177  1.00  0.00     0.022 A 
HETATM   24  C   UNL     1       7.960  21.527  52.912  1.00  0.00     0.002 A 
HETATM   25  C   UNL     1       7.805  22.910  52.767  1.00  0.00     0.012 A 
BRANCH  20  26
HETATM   26  O   UNL     1       8.037  24.016  56.241  1.00  0.00    -0.359 OA
HETATM   27  H   UNL     1       7.560  23.549  56.964  1.00  0.00     0.218 HD
ENDBRANCH  20  26
ENDBRANCH  18  19
ENDBRANCH   3  18
TORSDOF 6
ENDMDL
MODEL 5
REMARK VINA RESULT:      -8.1      2.131      2.876
REMARK  6 active torsions:
REMARK  status: ('A' for Active; 'I' for Inactive)
REMARK    1  A    between atoms: C_5  and  N_6 
REMARK    2  A    between atoms: N_6  and  C_7 
REMARK    3  A    between atoms: C_7  and  C_8 
REMARK    4  A    between atoms: N_10  and  C_12 
REMARK    5  A    between atoms: C_12  and  C_13 
REMARK    6  A    between atoms: C_14  and  O_15 
ROOT
HETATM    1  C   UNL     1       6.209  24.916  53.927  1.00  0.00     0.031 C 
HETATM    2  C   UNL     1       5.694  25.959  54.920  1.00  0.00     0.241 C 
HETATM    3  N   UNL     1       4.868  26.918  54.102  1.00  0.00    -0.067 N 
HETATM    4  H   UNL     1       3.940  27.012  54.558  1.00  0.00     0.280 HD
HETATM    5  C   UNL     1       4.634  26.314  52.742  1.00  0.00     0.235 C 
HETATM    6  C   UNL     1       5.073  24.866  52.904  1.00  0.00     0.035 C 
ENDROOT
BRANCH   1   7
HETATM    7  C   UNL     1       7.559  25.285  53.284  1.00  0.00     0.127 C 
BRANCH   7   8
HETATM    8  N   UNL     1       8.337  24.085  52.999  1.00  0.00    -0.376 N 
HETATM    9  H   UNL     1       8.417  23.906  51.992  1.00  0.00     0.161 HD
BRANCH   8  10
HETATM   10  C   UNL     1       8.205  22.860  53.655  1.00  0.00     0.101 A 
HETATM   11  N   UNL     1       8.387  22.699  54.976  1.00  0.00    -0.347 N 
HETATM   12  C   UNL     1       8.271  21.512  55.608  1.00  0.00     0.007 A 
HETATM   13  H   UNL     1       8.611  23.508  55.540  1.00  0.00     0.167 HD
HETATM   14  C   UNL     1       8.449  21.457  57.092  1.00  0.00     0.068 C 
HETATM   15  C   UNL     1       7.974  20.368  54.868  1.00  0.00     0.025 A 
HETATM   16  C   UNL     1       7.811  20.471  53.496  1.00  0.00     0.006 A 
HETATM   17  C   UNL     1       7.931  21.716  52.889  1.00  0.00     0.048 A 
ENDBRANCH   8  10
ENDBRANCH   7   8
ENDBRANCH   1   7
BRANCH   3  18
HETATM   18  C   UNL     1       5.369  28.341  54.096  1.00  0.00     0.276 C 
BRANCH  18  19
HETATM   19  C   UNL     1       6.156  28.708  55.322  1.00  0.00     0.002 A 
HETATM   20  C   UNL     1       7.544  28.897  55.258  1.00  0.00     0.091 A 
HETATM   21  C   UNL     1       8.269  29.289  56.387  1.00  0.00     0.044 A 
HETATM   22 BR   UNL     1      10.142  29.542  56.289  1.00  0.00    -0.048 Br
HETATM   23  C   UNL     1       7.613  29.494  57.597  1.00  0.00     0.022 A 
HETATM   24  C   UNL     1       6.233  29.311  57.677  1.00  0.00     0.002 A 
HETATM   25  C   UNL     1       5.506  28.925  56.546  1.00  0.00     0.012 A 
BRANCH  20  26
HETATM   26  O   UNL     1       8.161  28.666  54.051  1.00  0.00    -0.359 OA
HETATM   27  H   UNL     1       8.814  29.393  53.936  1.00  0.00     0.218 HD
ENDBRANCH  20  26
ENDBRANCH  18  19
ENDBRANCH   3  18
TORSDOF 6
ENDMDL
MODEL 6
REMARK VINA RESULT:      -8.0      1.519      2.108
REMARK  6 active torsions:
REMARK  status: ('A' for Active; 'I' for Inactive)
REMARK    1  A    between atoms: C_5  and  N_6 
REMARK    2  A    between atoms: N_6  and  C_7 
REMARK    3  A    between atoms: C_7  and  C_8 
REMARK    4  A    between atoms: N_10  and  C_12 
REMARK    5  A    between atoms: C_12  and  C_13 
REMARK    6  A    between atoms: C_14  and  O_15 
ROOT
HETATM    1  C   UNL     1       7.175  25.525  56.549  1.00  0.00     0.031 C 
HETATM    2  C   UNL     1       7.750  26.671  57.385  1.00  0.00     0.241 C 
HETATM    3  N   UNL     1       6.652  27.700  57.464  1.00  0.00    -0.067 N 
HETATM    4  H   UNL     1       6.508  27.940  58.464  1.00  0.00     0.280 HD
HETATM    5  C   UNL     1       5.372  27.078  56.970  1.00  0.00     0.235 C 
HETATM    6  C   UNL     1       5.689  25.591  56.904  1.00  0.00     0.035 C 
ENDROOT
BRANCH   1   7
HETATM    7  C   UNL     1       7.424  25.676  55.037  1.00  0.00     0.127 C 
BRANCH   7   8
HETATM    8  N   UNL     1       6.774  24.599  54.300  1.00  0.00    -0.376 N 
HETATM    9  H   UNL     1       5.763  24.565  54.476  1.00  0.00     0.161 HD
BRANCH   8  10
HETATM   10  C   UNL     1       7.247  23.291  54.194  1.00  0.00     0.101 A 
HETATM   11  N   UNL     1       7.393  22.465  55.243  1.00  0.00    -0.347 N 
HETATM   12  C   UNL     1       7.862  21.203  55.141  1.00  0.00     0.007 A 
HETATM   13  H   UNL     1       7.126  22.791  56.162  1.00  0.00     0.167 HD
HETATM   14  C   UNL     1       7.938  20.354  56.370  1.00  0.00     0.068 C 
HETATM   15  C   UNL     1       8.251  20.715  53.895  1.00  0.00     0.025 A 
HETATM   16  C   UNL     1       8.155  21.538  52.784  1.00  0.00     0.006 A 
HETATM   17  C   UNL     1       7.658  22.827  52.934  1.00  0.00     0.048 A 
ENDBRANCH   8  10
ENDBRANCH   7   8
ENDBRANCH   1   7
BRANCH   3  18
HETATM   18  C   UNL     1       6.993  29.038  56.856  1.00  0.00     0.276 C 
BRANCH  18  19
HETATM   19  C   UNL     1       6.763  30.198  57.783  1.00  0.00     0.002 A 
HETATM   20  C   UNL     1       7.668  30.486  58.814  1.00  0.00     0.091 A 
HETATM   21  C   UNL     1       7.482  31.596  59.644  1.00  0.00     0.044 A 
HETATM   22 BR   UNL     1       8.710  31.977  61.032  1.00  0.00    -0.048 Br
HETATM   23  C   UNL     1       6.383  32.428  59.454  1.00  0.00     0.022 A 
HETATM   24  C   UNL     1       5.475  32.155  58.433  1.00  0.00     0.002 A 
HETATM   25  C   UNL     1       5.663  31.049  57.598  1.00  0.00     0.012 A 
BRANCH  20  26
HETATM   26  O   UNL     1       8.730  29.630  58.986  1.00  0.00    -0.359 OA
HETATM   27  H   UNL     1       9.319  30.057  59.648  1.00  0.00     0.218 HD
ENDBRANCH  20  26
ENDBRANCH  18  19
ENDBRANCH   3  18
TORSDOF 6
ENDMDL
MODEL 7
REMARK VINA RESULT:      -8.0      3.450      4.955
REMARK  6 active torsions:
REMARK  status: ('A' for Active; 'I' for Inactive)
REMARK    1  A    between atoms: C_5  and  N_6 
REMARK    2  A    between atoms: N_6  and  C_7 
REMARK    3  A    between atoms: C_7  and  C_8 
REMARK    4  A    between atoms: N_10  and  C_12 
REMARK    5  A    between atoms: C_12  and  C_13 
REMARK    6  A    between atoms: C_14  and  O_15 
ROOT
HETATM    1  C   UNL     1       7.828  27.007  56.348  1.00  0.00     0.031 C 
HETATM    2  C   UNL     1       7.243  27.653  55.091  1.00  0.00     0.241 C 
HETATM    3  N   UNL     1       5.995  28.363  55.548  1.00  0.00    -0.067 N 
HETATM    4  H   UNL     1       6.043  29.344  55.212  1.00  0.00     0.280 HD
HETATM    5  C   UNL     1       5.992  28.410  57.054  1.00  0.00     0.235 C 
HETATM    6  C   UNL     1       7.405  27.994  57.436  1.00  0.00     0.035 C 
ENDROOT
BRANCH   1   7
HETATM    7  C   UNL     1       7.305  25.583  56.614  1.00  0.00     0.127 C 
BRANCH   7   8
HETATM    8  N   UNL     1       8.323  24.592  56.284  1.00  0.00    -0.376 N 
HETATM    9  H   UNL     1       9.268  24.993  56.286  1.00  0.00     0.161 HD
BRANCH   8  10
HETATM   10  C   UNL     1       8.241  23.662  55.247  1.00  0.00     0.101 A 
HETATM   11  N   UNL     1       8.499  22.352  55.399  1.00  0.00    -0.347 N 
HETATM   12  C   UNL     1       8.430  21.456  54.392  1.00  0.00     0.007 A 
HETATM   13  H   UNL     1       8.745  22.006  56.316  1.00  0.00     0.167 HD
HETATM   14  C   UNL     1       8.692  20.012  54.684  1.00  0.00     0.068 C 
HETATM   15  C   UNL     1       8.104  21.890  53.108  1.00  0.00     0.025 A 
HETATM   16  C   UNL     1       7.863  23.237  52.888  1.00  0.00     0.006 A 
HETATM   17  C   UNL     1       7.936  24.124  53.957  1.00  0.00     0.048 A 
ENDBRANCH   8  10
ENDBRANCH   7   8
ENDBRANCH   1   7
BRANCH   3  18
HETATM   18  C   UNL     1       4.718  27.868  54.917  1.00  0.00     0.276 C 
BRANCH  18  19
HETATM   19  C   UNL     1       4.889  27.388  53.504  1.00  0.00     0.002 A 
HETATM   20  C   UNL     1       5.103  28.294  52.456  1.00  0.00     0.091 A 
HETATM   21  C   UNL     1       5.314  27.845  51.149  1.00  0.00     0.044 A 
HETATM   22 BR   UNL     1       5.603  29.077  49.742  1.00  0.00    -0.048 Br
HETATM   23  C   UNL     1       5.310  26.481  50.874  1.00  0.00     0.022 A 
HETATM   24  C   UNL     1       5.098  25.567  51.905  1.00  0.00     0.002 A 
HETATM   25  C   UNL     1       4.894  26.015  53.214  1.00  0.00     0.012 A 
BRANCH  20  26
HETATM   26  O   UNL     1       5.080  29.635  52.761  1.00  0.00    -0.359 OA
HETATM   27  H   UNL     1       5.120  29.691  53.742  1.00  0.00     0.218 HD
ENDBRANCH  20  26
ENDBRANCH  18  19
ENDBRANCH   3  18
TORSDOF 6
ENDMDL
MODEL 8
REMARK VINA RESULT:      -7.8      4.891      6.243
REMARK  6 active torsions:
REMARK  status: ('A' for Active; 'I' for Inactive)
REMARK    1  A    between atoms: C_5  and  N_6 
REMARK    2  A    between atoms: N_6  and  C_7 
REMARK    3  A    between atoms: C_7  and  C_8 
REMARK    4  A    between atoms: N_10  and  C_12 
REMARK    5  A    between atoms: C_12  and  C_13 
REMARK    6  A    between atoms: C_14  and  O_15 
ROOT
HETATM    1  C   UNL     1       5.944  27.576  55.317  1.00  0.00     0.031 C 
HETATM    2  C   UNL     1       6.714  28.013  54.069  1.00  0.00     0.241 C 
HETATM    3  N   UNL     1       5.709  27.982  52.946  1.00  0.00    -0.067 N 
HETATM    4  H   UNL     1       5.740  28.900  52.462  1.00  0.00     0.280 HD
HETATM    5  C   UNL     1       4.330  27.839  53.537  1.00  0.00     0.235 C 
HETATM    6  C   UNL     1       4.539  28.104  55.021  1.00  0.00     0.035 C 
ENDROOT
BRANCH   1   7
HETATM    7  C   UNL     1       5.961  26.056  55.555  1.00  0.00     0.127 C 
BRANCH   7   8
HETATM    8  N   UNL     1       7.257  25.493  55.194  1.00  0.00    -0.376 N 
HETATM    9  H   UNL     1       7.826  26.152  54.650  1.00  0.00     0.161 HD
BRANCH   8  10
HETATM   10  C   UNL     1       7.470  24.208  54.693  1.00  0.00     0.101 A 
HETATM   11  N   UNL     1       7.520  23.108  55.462  1.00  0.00    -0.347 N 
HETATM   12  C   UNL     1       7.738  21.867  54.977  1.00  0.00     0.007 A 
HETATM   13  H   UNL     1       7.374  23.201  56.458  1.00  0.00     0.167 HD
HETATM   14  C   UNL     1       7.726  20.705  55.919  1.00  0.00     0.068 C 
HETATM   15  C   UNL     1       7.955  21.693  53.611  1.00  0.00     0.025 A 
HETATM   16  C   UNL     1       7.949  22.799  52.777  1.00  0.00     0.006 A 
HETATM   17  C   UNL     1       7.711  24.057  53.318  1.00  0.00     0.048 A 
ENDBRANCH   8  10
ENDBRANCH   7   8
ENDBRANCH   1   7
BRANCH   3  18
HETATM   18  C   UNL     1       6.034  27.018  51.831  1.00  0.00     0.276 C 
BRANCH  18  19
HETATM   19  C   UNL     1       5.297  27.304  50.554  1.00  0.00     0.002 A 
HETATM   20  C   UNL     1       5.315  28.583  49.982  1.00  0.00     0.091 A 
HETATM   21  C   UNL     1       4.673  28.837  48.766  1.00  0.00     0.044 A 
HETATM   22 BR   UNL     1       4.704  30.568  48.002  1.00  0.00    -0.048 Br
HETATM   23  C   UNL     1       4.000  27.810  48.109  1.00  0.00     0.022 A 
HETATM   24  C   UNL     1       3.973  26.532  48.665  1.00  0.00     0.002 A 
HETATM   25  C   UNL     1       4.621  26.276  49.878  1.00  0.00     0.012 A 
BRANCH  20  26
HETATM   26  O   UNL     1       5.971  29.577  50.669  1.00  0.00    -0.359 OA
HETATM   27  H   UNL     1       5.799  29.407  51.623  1.00  0.00     0.218 HD
ENDBRANCH  20  26
ENDBRANCH  18  19
ENDBRANCH   3  18
TORSDOF 6
ENDMDL
MODEL 9
REMARK VINA RESULT:      -7.7      4.179      6.041
REMARK  6 active torsions:
REMARK  status: ('A' for Active; 'I' for Inactive)
REMARK    1  A    between atoms: C_5  and  N_6 
REMARK    2  A    between atoms: N_6  and  C_7 
REMARK    3  A    between atoms: C_7  and  C_8 
REMARK    4  A    between atoms: N_10  and  C_12 
REMARK    5  A    between atoms: C_12  and  C_13 
REMARK    6  A    between atoms: C_14  and  O_15 
ROOT
HETATM    1  C   UNL     1       7.082  24.825  52.540  1.00  0.00     0.031 C 
HETATM    2  C   UNL     1       7.560  25.610  53.763  1.00  0.00     0.241 C 
HETATM    3  N   UNL     1       7.722  24.587  54.858  1.00  0.00    -0.067 N 
HETATM    4  H   UNL     1       8.674  24.693  55.259  1.00  0.00     0.280 HD
HETATM    5  C   UNL     1       7.650  23.212  54.248  1.00  0.00     0.235 C 
HETATM    6  C   UNL     1       7.757  23.469  52.751  1.00  0.00     0.035 C 
ENDROOT
BRANCH   1   7
HETATM    7  C   UNL     1       5.550  24.707  52.440  1.00  0.00     0.127 C 
BRANCH   7   8
HETATM    8  N   UNL     1       4.956  25.994  52.096  1.00  0.00    -0.376 N 
HETATM    9  H   UNL     1       4.088  26.169  52.613  1.00  0.00     0.161 HD
BRANCH   8  10
HETATM   10  C   UNL     1       4.808  26.496  50.802  1.00  0.00     0.101 A 
HETATM   11  N   UNL     1       4.179  25.837  49.815  1.00  0.00    -0.347 N 
HETATM   12  C   UNL     1       4.046  26.319  48.561  1.00  0.00     0.007 A 
HETATM   13  H   UNL     1       3.765  24.936  50.015  1.00  0.00     0.167 HD
HETATM   14  C   UNL     1       3.283  25.520  47.552  1.00  0.00     0.068 C 
HETATM   15  C   UNL     1       4.609  27.552  48.238  1.00  0.00     0.025 A 
HETATM   16  C   UNL     1       5.301  28.258  49.209  1.00  0.00     0.006 A 
HETATM   17  C   UNL     1       5.404  27.728  50.490  1.00  0.00     0.048 A 
ENDBRANCH   8  10
ENDBRANCH   7   8
ENDBRANCH   1   7
BRANCH   3  18
HETATM   18  C   UNL     1       6.839  24.803  56.063  1.00  0.00     0.276 C 
BRANCH  18  19
HETATM   19  C   UNL     1       6.766  26.236  56.507  1.00  0.00     0.002 A 
HETATM   20  C   UNL     1       5.664  27.037  56.179  1.00  0.00     0.091 A 
HETATM   21  C   UNL     1       5.571  28.355  56.636  1.00  0.00     0.044 A 
HETATM   22 BR   UNL     1       4.078  29.428  56.188  1.00  0.00    -0.048 Br
HETATM   23  C   UNL     1       6.585  28.889  57.426  1.00  0.00     0.022 A 
HETATM   24  C   UNL     1       7.688  28.105  57.761  1.00  0.00     0.002 A 
HETATM   25  C   UNL     1       7.778  26.784  57.310  1.00  0.00     0.012 A 
BRANCH  20  26
HETATM   26  O   UNL     1       4.692  26.484  55.380  1.00  0.00    -0.359 OA
HETATM   27  H   UNL     1       4.850  26.838  54.476  1.00  0.00     0.218 HD
ENDBRANCH  20  26
ENDBRANCH  18  19
ENDBRANCH   3  18
TORSDOF 6
ENDMDL
MODEL 10
REMARK VINA RESULT:      -7.7      9.230     13.585
REMARK  6 active torsions:
REMARK  status: ('A' for Active; 'I' for Inactive)
REMARK    1  A    between atoms: C_5  and  N_6 
REMARK    2  A    between atoms: N_6  and  C_7 
REMARK    3  A    between atoms: C_7  and  C_8 
REMARK    4  A    between atoms: N_10  and  C_12 
REMARK    5  A    between atoms: C_12  and  C_13 
REMARK    6  A    between atoms: C_14  and  O_15 
ROOT
HETATM    1  C   UNL     1       5.000  35.540  65.437  1.00  0.00     0.031 C 
HETATM    2  C   UNL     1       5.966  35.012  64.375  1.00  0.00     0.241 C 
HETATM    3  N   UNL     1       5.219  33.914  63.663  1.00  0.00    -0.067 N 
HETATM    4  H   UNL     1       5.267  34.103  62.642  1.00  0.00     0.280 HD
HETATM    5  C   UNL     1       3.767  33.984  64.058  1.00  0.00     0.235 C 
HETATM    6  C   UNL     1       3.644  35.328  64.762  1.00  0.00     0.035 C 
ENDROOT
BRANCH   1   7
HETATM    7  C   UNL     1       5.102  34.808  66.787  1.00  0.00     0.127 C 
BRANCH   7   8
HETATM    8  N   UNL     1       6.413  35.024  67.390  1.00  0.00    -0.376 N 
HETATM    9  H   UNL     1       7.172  34.928  66.707  1.00  0.00     0.161 HD
BRANCH   8  10
HETATM   10  C   UNL     1       6.842  34.488  68.605  1.00  0.00     0.101 A 
HETATM   11  N   UNL     1       6.182  33.525  69.269  1.00  0.00    -0.347 N 
HETATM   12  C   UNL     1       6.592  33.016  70.450  1.00  0.00     0.007 A 
HETATM   13  H   UNL     1       5.337  33.143  68.864  1.00  0.00     0.167 HD
HETATM   14  C   UNL     1       5.803  31.911  71.079  1.00  0.00     0.068 C 
HETATM   15  C   UNL     1       7.745  33.519  71.050  1.00  0.00     0.025 A 
HETATM   16  C   UNL     1       8.445  34.538  70.425  1.00  0.00     0.006 A 
HETATM   17  C   UNL     1       7.992  35.026  69.205  1.00  0.00     0.048 A 
ENDBRANCH   8  10
ENDBRANCH   7   8
ENDBRANCH   1   7
BRANCH   3  18
HETATM   18  C   UNL     1       5.849  32.547  63.766  1.00  0.00     0.276 C 
BRANCH  18  19
HETATM   19  C   UNL     1       6.836  32.253  62.672  1.00  0.00     0.002 A 
HETATM   20  C   UNL     1       6.407  32.032  61.356  1.00  0.00     0.091 A 
HETATM   21  C   UNL     1       7.328  31.809  60.328  1.00  0.00     0.044 A 
HETATM   22 BR   UNL     1       6.739  31.513  58.554  1.00  0.00    -0.048 Br
HETATM   23  C   UNL     1       8.692  31.801  60.607  1.00  0.00     0.022 A 
HETATM   24  C   UNL     1       9.133  32.019  61.911  1.00  0.00     0.002 A 
HETATM   25  C   UNL     1       8.213  32.249  62.939  1.00  0.00     0.012 A 
BRANCH  20  26
HETATM   26  O   UNL     1       5.052  32.026  61.122  1.00  0.00    -0.359 OA
HETATM   27  H   UNL     1       4.630  32.307  61.964  1.00  0.00     0.218 HD
ENDBRANCH  20  26
ENDBRANCH  18  19
ENDBRANCH   3  18
TORSDOF 6
ENDMDL
