MODEL 1
REMARK VINA RESULT:      -9.1      0.000      0.000
REMARK  5 active torsions:
REMARK  status: ('A' for Active; 'I' for Inactive)
REMARK    1  A    between atoms: C_9  and  C_10 
REMARK    2  A    between atoms: C_13  and  O_14 
REMARK    3  A    between atoms: O_14  and  C_15 
REMARK    4  A    between atoms: C_20  and  C_21 
REMARK       I    between atoms: C_21  and  N_22 
REMARK    5  A    between atoms: N_22  and  C_23 
ROOT
HETATM    1  C   UNL     1       5.119  26.409  50.314  1.00  0.00     0.070 C 
HETATM    2  C   UNL     1       4.832  27.299  51.499  1.00  0.00     0.037 A 
HETATM    3  N   UNL     1       4.576  28.634  51.205  1.00  0.00    -0.192 N 
HETATM    4  C   UNL     1       4.207  29.537  52.133  1.00  0.00     0.725 A 
HETATM    5  N   UNL     1       4.176  29.169  53.450  1.00  0.00    -0.084 N 
HETATM    6  N   UNL     1       3.644  30.143  54.218  1.00  0.00    -0.149 NA
HETATM    7  C   UNL     1       3.478  31.109  53.307  1.00  0.00     0.275 A 
HETATM    8  N   UNL     1       3.803  30.776  52.018  1.00  0.00    -0.054 NA
HETATM    9  C   UNL     1       4.524  27.830  53.939  1.00  0.00     0.202 A 
HETATM   10  C   UNL     1       4.793  26.873  52.785  1.00  0.00     0.062 A 
HETATM   11  H   UNL     1       4.574  28.911  50.228  1.00  0.00     0.184 HD
ENDROOT
BRANCH   9  12
HETATM   12  C   UNL     1       5.672  27.921  54.938  1.00  0.00    -0.028 A 
HETATM   13  C   UNL     1       6.896  28.482  54.547  1.00  0.00     0.012 A 
HETATM   14  C   UNL     1       7.961  28.561  55.448  1.00  0.00     0.037 A 
HETATM   15  C   UNL     1       7.827  28.091  56.755  1.00  0.00     0.074 A 
HETATM   16  C   UNL     1       6.620  27.511  57.149  1.00  0.00     0.037 A 
HETATM   17  C   UNL     1       5.553  27.425  56.247  1.00  0.00     0.012 A 
BRANCH  15  18
HETATM   18  O   UNL     1       8.943  28.228  57.531  1.00  0.00    -0.290 OA
BRANCH  18  19
HETATM   19  C   UNL     1       9.738  29.376  57.286  1.00  0.00     0.505 C 
HETATM   20  F   UNL     1       9.912  30.055  58.447  1.00  0.00    -0.184 F 
HETATM   21  F   UNL     1      10.966  28.941  56.905  1.00  0.00    -0.184 F 
ENDBRANCH  18  19
ENDBRANCH  15  18
ENDBRANCH   9  12
BRANCH  10  22
HETATM   22  C   UNL     1       5.106  25.460  53.127  1.00  0.00     0.256 C 
HETATM   23  N   UNL     1       6.449  25.244  53.350  1.00  0.00    -0.323 N 
HETATM   24  H   UNL     1       7.079  26.030  53.266  1.00  0.00     0.169 HD
HETATM   25  O   UNL     1       4.198  24.640  53.188  1.00  0.00    -0.267 OA
BRANCH  23  26
HETATM   26  C   UNL     1       7.066  24.027  53.717  1.00  0.00     0.035 A 
HETATM   27  C   UNL     1       7.635  23.134  52.807  1.00  0.00     0.029 A 
HETATM   28  C   UNL     1       8.212  21.940  53.254  1.00  0.00     0.002 A 
HETATM   29  C   UNL     1       8.236  21.636  54.612  1.00  0.00     0.000 A 
HETATM   30  C   UNL     1       7.677  22.523  55.528  1.00  0.00     0.002 A 
HETATM   31  C   UNL     1       7.089  23.709  55.082  1.00  0.00     0.029 A 
ENDBRANCH  23  26
ENDBRANCH  10  22
TORSDOF 5
ENDMDL
MODEL 2
REMARK VINA RESULT:      -8.9      1.310      1.929
REMARK  5 active torsions:
REMARK  status: ('A' for Active; 'I' for Inactive)
REMARK    1  A    between atoms: C_9  and  C_10 
REMARK    2  A    between atoms: C_13  and  O_14 
REMARK    3  A    between atoms: O_14  and  C_15 
REMARK    4  A    between atoms: C_20  and  C_21 
REMARK       I    between atoms: C_21  and  N_22 
REMARK    5  A    between atoms: N_22  and  C_23 
ROOT
HETATM    1  C   UNL     1       5.047  25.077  52.123  1.00  0.00     0.070 C 
HETATM    2  C   UNL     1       4.893  26.272  53.032  1.00  0.00     0.037 A 
HETATM    3  N   UNL     1       4.392  27.425  52.437  1.00  0.00    -0.192 N 
HETATM    4  C   UNL     1       4.102  28.545  53.124  1.00  0.00     0.725 A 
HETATM    5  N   UNL     1       4.404  28.610  54.457  1.00  0.00    -0.084 N 
HETATM    6  N   UNL     1       3.912  29.735  55.016  1.00  0.00    -0.149 NA
HETATM    7  C   UNL     1       3.421  30.351  53.934  1.00  0.00     0.275 A 
HETATM    8  N   UNL     1       3.510  29.653  52.758  1.00  0.00    -0.054 NA
HETATM    9  C   UNL     1       5.035  27.522  55.211  1.00  0.00     0.202 A 
HETATM   10  C   UNL     1       5.188  26.271  54.355  1.00  0.00     0.062 A 
HETATM   11  H   UNL     1       4.143  27.378  51.453  1.00  0.00     0.184 HD
ENDROOT
BRANCH   9  12
HETATM   12  C   UNL     1       6.344  28.004  55.828  1.00  0.00    -0.028 A 
HETATM   13  C   UNL     1       6.490  28.032  57.223  1.00  0.00     0.012 A 
HETATM   14  C   UNL     1       7.679  28.483  57.802  1.00  0.00     0.037 A 
HETATM   15  C   UNL     1       8.745  28.907  57.007  1.00  0.00     0.074 A 
HETATM   16  C   UNL     1       8.602  28.904  55.620  1.00  0.00     0.037 A 
HETATM   17  C   UNL     1       7.411  28.458  55.035  1.00  0.00     0.012 A 
BRANCH  15  18
HETATM   18  O   UNL     1       9.846  29.323  57.701  1.00  0.00    -0.290 OA
BRANCH  18  19
HETATM   19  C   UNL     1      10.708  30.224  57.028  1.00  0.00     0.505 C 
HETATM   20  F   UNL     1      10.710  31.413  57.680  1.00  0.00    -0.184 F 
HETATM   21  F   UNL     1      11.967  29.727  57.126  1.00  0.00    -0.184 F 
ENDBRANCH  18  19
ENDBRANCH  15  18
ENDBRANCH   9  12
BRANCH  10  22
HETATM   22  C   UNL     1       5.765  25.064  55.003  1.00  0.00     0.256 C 
HETATM   23  N   UNL     1       6.709  24.431  54.223  1.00  0.00    -0.323 N 
HETATM   24  H   UNL     1       6.919  24.824  53.315  1.00  0.00     0.169 HD
HETATM   25  O   UNL     1       5.387  24.743  56.123  1.00  0.00    -0.267 OA
BRANCH  23  26
HETATM   26  C   UNL     1       7.458  23.281  54.557  1.00  0.00     0.035 A 
HETATM   27  C   UNL     1       7.974  23.026  55.828  1.00  0.00     0.029 A 
HETATM   28  C   UNL     1       8.720  21.868  56.071  1.00  0.00     0.002 A 
HETATM   29  C   UNL     1       8.946  20.950  55.048  1.00  0.00     0.000 A 
HETATM   30  C   UNL     1       8.430  21.192  53.779  1.00  0.00     0.002 A 
HETATM   31  C   UNL     1       7.695  22.353  53.532  1.00  0.00     0.029 A 
ENDBRANCH  23  26
ENDBRANCH  10  22
TORSDOF 5
ENDMDL
MODEL 3
REMARK VINA RESULT:      -8.6      4.125      7.581
REMARK  5 active torsions:
REMARK  status: ('A' for Active; 'I' for Inactive)
REMARK    1  A    between atoms: C_9  and  C_10 
REMARK    2  A    between atoms: C_13  and  O_14 
REMARK    3  A    between atoms: O_14  and  C_15 
REMARK    4  A    between atoms: C_20  and  C_21 
REMARK       I    between atoms: C_21  and  N_22 
REMARK    5  A    between atoms: N_22  and  C_23 
ROOT
HETATM    1  C   UNL     1       8.744  24.993  57.735  1.00  0.00     0.070 C 
HETATM    2  C   UNL     1       8.273  24.257  56.504  1.00  0.00     0.037 A 
HETATM    3  N   UNL     1       9.171  23.342  55.965  1.00  0.00    -0.192 N 
HETATM    4  C   UNL     1       8.872  22.535  54.931  1.00  0.00     0.725 A 
HETATM    5  N   UNL     1       7.668  22.677  54.297  1.00  0.00    -0.084 N 
HETATM    6  N   UNL     1       7.473  21.696  53.390  1.00  0.00    -0.149 NA
HETATM    7  C   UNL     1       8.651  21.065  53.457  1.00  0.00     0.275 A 
HETATM    8  N   UNL     1       9.532  21.542  54.393  1.00  0.00    -0.054 NA
HETATM    9  C   UNL     1       6.653  23.667  54.672  1.00  0.00     0.202 A 
HETATM   10  C   UNL     1       7.055  24.423  55.931  1.00  0.00     0.062 A 
HETATM   11  H   UNL     1      10.059  23.214  56.443  1.00  0.00     0.184 HD
ENDROOT
BRANCH   9  12
HETATM   12  C   UNL     1       6.347  24.575  53.485  1.00  0.00    -0.028 A 
HETATM   13  C   UNL     1       5.038  24.660  52.990  1.00  0.00     0.012 A 
HETATM   14  C   UNL     1       4.745  25.479  51.897  1.00  0.00     0.037 A 
HETATM   15  C   UNL     1       5.745  26.233  51.280  1.00  0.00     0.074 A 
HETATM   16  C   UNL     1       7.055  26.139  51.751  1.00  0.00     0.037 A 
HETATM   17  C   UNL     1       7.353  25.316  52.843  1.00  0.00     0.012 A 
BRANCH  15  18
HETATM   18  O   UNL     1       5.323  26.988  50.223  1.00  0.00    -0.290 OA
BRANCH  18  19
HETATM   19  C   UNL     1       4.406  26.370  49.337  1.00  0.00     0.505 C 
HETATM   20  F   UNL     1       3.328  27.175  49.175  1.00  0.00    -0.184 F 
HETATM   21  F   UNL     1       5.012  26.286  48.125  1.00  0.00    -0.184 F 
ENDBRANCH  18  19
ENDBRANCH  15  18
ENDBRANCH   9  12
BRANCH  10  22
HETATM   22  C   UNL     1       6.096  25.426  56.464  1.00  0.00     0.256 C 
HETATM   23  N   UNL     1       6.383  26.713  56.063  1.00  0.00    -0.323 N 
HETATM   24  H   UNL     1       7.186  26.859  55.467  1.00  0.00     0.169 HD
HETATM   25  O   UNL     1       5.169  25.055  57.174  1.00  0.00    -0.267 OA
BRANCH  23  26
HETATM   26  C   UNL     1       5.655  27.884  56.373  1.00  0.00     0.035 A 
HETATM   27  C   UNL     1       4.426  28.214  55.800  1.00  0.00     0.029 A 
HETATM   28  C   UNL     1       3.777  29.403  56.151  1.00  0.00     0.002 A 
HETATM   29  C   UNL     1       4.347  30.265  57.085  1.00  0.00     0.000 A 
HETATM   30  C   UNL     1       5.570  29.942  57.666  1.00  0.00     0.002 A 
HETATM   31  C   UNL     1       6.224  28.761  57.308  1.00  0.00     0.029 A 
ENDBRANCH  23  26
ENDBRANCH  10  22
TORSDOF 5
ENDMDL
MODEL 4
REMARK VINA RESULT:      -8.4      3.953      5.559
REMARK  5 active torsions:
REMARK  status: ('A' for Active; 'I' for Inactive)
REMARK    1  A    between atoms: C_9  and  C_10 
REMARK    2  A    between atoms: C_13  and  O_14 
REMARK    3  A    between atoms: O_14  and  C_15 
REMARK    4  A    between atoms: C_20  and  C_21 
REMARK       I    between atoms: C_21  and  N_22 
REMARK    5  A    between atoms: N_22  and  C_23 
ROOT
HETATM    1  C   UNL     1       4.617  25.135  57.418  1.00  0.00     0.070 C 
HETATM    2  C   UNL     1       5.042  26.413  56.736  1.00  0.00     0.037 A 
HETATM    3  N   UNL     1       4.826  27.584  57.456  1.00  0.00    -0.192 N 
HETATM    4  C   UNL     1       5.236  28.795  57.036  1.00  0.00     0.725 A 
HETATM    5  N   UNL     1       5.801  28.918  55.796  1.00  0.00    -0.084 N 
HETATM    6  N   UNL     1       6.287  30.162  55.600  1.00  0.00    -0.149 NA
HETATM    7  C   UNL     1       5.879  30.762  56.725  1.00  0.00     0.275 A 
HETATM    8  N   UNL     1       5.240  29.959  57.633  1.00  0.00    -0.054 NA
HETATM    9  C   UNL     1       5.999  27.799  54.868  1.00  0.00     0.202 A 
HETATM   10  C   UNL     1       5.619  26.472  55.511  1.00  0.00     0.062 A 
HETATM   11  H   UNL     1       4.429  27.499  58.387  1.00  0.00     0.184 HD
ENDROOT
BRANCH   9  12
HETATM   12  C   UNL     1       5.271  28.074  53.556  1.00  0.00    -0.028 A 
HETATM   13  C   UNL     1       3.892  28.330  53.563  1.00  0.00     0.012 A 
HETATM   14  C   UNL     1       3.210  28.572  52.369  1.00  0.00     0.037 A 
HETATM   15  C   UNL     1       3.885  28.569  51.147  1.00  0.00     0.074 A 
HETATM   16  C   UNL     1       5.252  28.294  51.126  1.00  0.00     0.037 A 
HETATM   17  C   UNL     1       5.939  28.046  52.321  1.00  0.00     0.012 A 
BRANCH  15  18
HETATM   18  O   UNL     1       3.099  28.819  50.058  1.00  0.00    -0.290 OA
BRANCH  18  19
HETATM   19  C   UNL     1       3.057  27.804  49.069  1.00  0.00     0.505 C 
HETATM   20  F   UNL     1       1.766  27.479  48.816  1.00  0.00    -0.184 F 
HETATM   21  F   UNL     1       3.554  28.337  47.924  1.00  0.00    -0.184 F 
ENDBRANCH  18  19
ENDBRANCH  15  18
ENDBRANCH   9  12
BRANCH  10  22
HETATM   22  C   UNL     1       5.819  25.239  54.705  1.00  0.00     0.256 C 
HETATM   23  N   UNL     1       6.929  24.517  55.090  1.00  0.00    -0.323 N 
HETATM   24  H   UNL     1       7.488  24.872  55.853  1.00  0.00     0.169 HD
HETATM   25  O   UNL     1       5.024  24.967  53.814  1.00  0.00    -0.267 OA
BRANCH  23  26
HETATM   26  C   UNL     1       7.377  23.292  54.546  1.00  0.00     0.035 A 
HETATM   27  C   UNL     1       7.692  23.103  53.200  1.00  0.00     0.029 A 
HETATM   28  C   UNL     1       8.115  21.851  52.740  1.00  0.00     0.002 A 
HETATM   29  C   UNL     1       8.237  20.782  53.624  1.00  0.00     0.000 A 
HETATM   30  C   UNL     1       7.932  20.962  54.970  1.00  0.00     0.002 A 
HETATM   31  C   UNL     1       7.498  22.208  55.428  1.00  0.00     0.029 A 
ENDBRANCH  23  26
ENDBRANCH  10  22
TORSDOF 5
ENDMDL
MODEL 5
REMARK VINA RESULT:      -8.2      3.735      5.564
REMARK  5 active torsions:
REMARK  status: ('A' for Active; 'I' for Inactive)
REMARK    1  A    between atoms: C_9  and  C_10 
REMARK    2  A    between atoms: C_13  and  O_14 
REMARK    3  A    between atoms: O_14  and  C_15 
REMARK    4  A    between atoms: C_20  and  C_21 
REMARK       I    between atoms: C_21  and  N_22 
REMARK    5  A    between atoms: N_22  and  C_23 
ROOT
HETATM    1  C   UNL     1       5.406  25.226  57.263  1.00  0.00     0.070 C 
HETATM    2  C   UNL     1       5.319  26.361  56.272  1.00  0.00     0.037 A 
HETATM    3  N   UNL     1       4.366  27.336  56.550  1.00  0.00    -0.192 N 
HETATM    4  C   UNL     1       4.226  28.460  55.824  1.00  0.00     0.725 A 
HETATM    5  N   UNL     1       4.977  28.624  54.692  1.00  0.00    -0.084 N 
HETATM    6  N   UNL     1       4.821  29.862  54.176  1.00  0.00    -0.149 NA
HETATM    7  C   UNL     1       3.877  30.348  54.990  1.00  0.00     0.275 A 
HETATM    8  N   UNL     1       3.491  29.525  56.016  1.00  0.00    -0.054 NA
HETATM    9  C   UNL     1       5.948  27.641  54.200  1.00  0.00     0.202 A 
HETATM   10  C   UNL     1       6.108  26.484  55.176  1.00  0.00     0.062 A 
HETATM   11  H   UNL     1       3.820  27.233  57.401  1.00  0.00     0.184 HD
ENDROOT
BRANCH   9  12
HETATM   12  C   UNL     1       5.578  27.203  52.787  1.00  0.00    -0.028 A 
HETATM   13  C   UNL     1       5.710  28.103  51.719  1.00  0.00     0.012 A 
HETATM   14  C   UNL     1       5.363  27.720  50.421  1.00  0.00     0.037 A 
HETATM   15  C   UNL     1       4.885  26.435  50.160  1.00  0.00     0.074 A 
HETATM   16  C   UNL     1       4.729  25.539  51.218  1.00  0.00     0.037 A 
HETATM   17  C   UNL     1       5.071  25.921  52.520  1.00  0.00     0.012 A 
BRANCH  15  18
HETATM   18  O   UNL     1       4.583  26.192  48.850  1.00  0.00    -0.290 OA
BRANCH  18  19
HETATM   19  C   UNL     1       4.607  27.313  47.983  1.00  0.00     0.505 C 
HETATM   20  F   UNL     1       5.659  27.201  47.135  1.00  0.00    -0.184 F 
HETATM   21  F   UNL     1       3.486  27.256  47.219  1.00  0.00    -0.184 F 
ENDBRANCH  18  19
ENDBRANCH  15  18
ENDBRANCH   9  12
BRANCH  10  22
HETATM   22  C   UNL     1       7.102  25.432  54.835  1.00  0.00     0.256 C 
HETATM   23  N   UNL     1       6.568  24.162  54.839  1.00  0.00    -0.323 N 
HETATM   24  H   UNL     1       5.588  24.057  55.063  1.00  0.00     0.169 HD
HETATM   25  O   UNL     1       8.257  25.755  54.584  1.00  0.00    -0.267 OA
BRANCH  23  26
HETATM   26  C   UNL     1       7.237  22.956  54.534  1.00  0.00     0.035 A 
HETATM   27  C   UNL     1       7.650  22.027  55.491  1.00  0.00     0.029 A 
HETATM   28  C   UNL     1       8.322  20.863  55.104  1.00  0.00     0.002 A 
HETATM   29  C   UNL     1       8.578  20.613  53.758  1.00  0.00     0.000 A 
HETATM   30  C   UNL     1       8.165  21.530  52.796  1.00  0.00     0.002 A 
HETATM   31  C   UNL     1       7.503  22.698  53.181  1.00  0.00     0.029 A 
ENDBRANCH  23  26
ENDBRANCH  10  22
TORSDOF 5
ENDMDL
MODEL 6
REMARK VINA RESULT:      -8.1      4.245      6.422
REMARK  5 active torsions:
REMARK  status: ('A' for Active; 'I' for Inactive)
REMARK    1  A    between atoms: C_9  and  C_10 
REMARK    2  A    between atoms: C_13  and  O_14 
REMARK    3  A    between atoms: O_14  and  C_15 
REMARK    4  A    between atoms: C_20  and  C_21 
REMARK       I    between atoms: C_21  and  N_22 
REMARK    5  A    between atoms: N_22  and  C_23 
ROOT
HETATM    1  C   UNL     1       4.087  28.785  55.078  1.00  0.00     0.070 C 
HETATM    2  C   UNL     1       4.110  29.446  53.721  1.00  0.00     0.037 A 
HETATM    3  N   UNL     1       3.113  30.389  53.490  1.00  0.00    -0.192 N 
HETATM    4  C   UNL     1       3.049  31.139  52.375  1.00  0.00     0.725 A 
HETATM    5  N   UNL     1       3.938  30.907  51.360  1.00  0.00    -0.084 N 
HETATM    6  N   UNL     1       3.829  31.840  50.391  1.00  0.00    -0.149 NA
HETATM    7  C   UNL     1       2.779  32.538  50.841  1.00  0.00     0.275 A 
HETATM    8  N   UNL     1       2.278  32.146  52.055  1.00  0.00    -0.054 NA
HETATM    9  C   UNL     1       4.981  29.876  51.400  1.00  0.00     0.202 A 
HETATM   10  C   UNL     1       5.032  29.192  52.760  1.00  0.00     0.062 A 
HETATM   11  H   UNL     1       2.464  30.584  54.247  1.00  0.00     0.184 HD
ENDROOT
BRANCH   9  12
HETATM   12  C   UNL     1       4.803  28.908  50.235  1.00  0.00    -0.028 A 
HETATM   13  C   UNL     1       3.690  28.055  50.199  1.00  0.00     0.012 A 
HETATM   14  C   UNL     1       3.520  27.155  49.145  1.00  0.00     0.037 A 
HETATM   15  C   UNL     1       4.448  27.090  48.104  1.00  0.00     0.074 A 
HETATM   16  C   UNL     1       5.570  27.918  48.141  1.00  0.00     0.037 A 
HETATM   17  C   UNL     1       5.746  28.819  49.198  1.00  0.00     0.012 A 
BRANCH  15  18
HETATM   18  O   UNL     1       4.161  26.167  47.138  1.00  0.00    -0.290 OA
BRANCH  18  19
HETATM   19  C   UNL     1       2.956  25.440  47.304  1.00  0.00     0.505 C 
HETATM   20  F   UNL     1       2.467  25.101  46.086  1.00  0.00    -0.184 F 
HETATM   21  F   UNL     1       3.270  24.278  47.932  1.00  0.00    -0.184 F 
ENDBRANCH  18  19
ENDBRANCH  15  18
ENDBRANCH   9  12
BRANCH  10  22
HETATM   22  C   UNL     1       6.079  28.158  52.967  1.00  0.00     0.256 C 
HETATM   23  N   UNL     1       5.597  26.871  52.857  1.00  0.00    -0.323 N 
HETATM   24  H   UNL     1       4.615  26.746  52.653  1.00  0.00     0.169 HD
HETATM   25  O   UNL     1       7.230  28.506  53.201  1.00  0.00    -0.267 OA
BRANCH  23  26
HETATM   26  C   UNL     1       6.336  25.673  52.972  1.00  0.00     0.035 A 
HETATM   27  C   UNL     1       7.219  25.201  51.999  1.00  0.00     0.029 A 
HETATM   28  C   UNL     1       7.900  23.994  52.186  1.00  0.00     0.002 A 
HETATM   29  C   UNL     1       7.712  23.254  53.351  1.00  0.00     0.000 A 
HETATM   30  C   UNL     1       6.839  23.719  54.330  1.00  0.00     0.002 A 
HETATM   31  C   UNL     1       6.150  24.918  54.140  1.00  0.00     0.029 A 
ENDBRANCH  23  26
ENDBRANCH  10  22
TORSDOF 5
ENDMDL
MODEL 7
REMARK VINA RESULT:      -7.9      8.842     11.795
REMARK  5 active torsions:
REMARK  status: ('A' for Active; 'I' for Inactive)
REMARK    1  A    between atoms: C_9  and  C_10 
REMARK    2  A    between atoms: C_13  and  O_14 
REMARK    3  A    between atoms: O_14  and  C_15 
REMARK    4  A    between atoms: C_20  and  C_21 
REMARK       I    between atoms: C_21  and  N_22 
REMARK    5  A    between atoms: N_22  and  C_23 
ROOT
HETATM    1  C   UNL     1       3.414  37.394  62.531  1.00  0.00     0.070 C 
HETATM    2  C   UNL     1       3.833  36.301  63.483  1.00  0.00     0.037 A 
HETATM    3  N   UNL     1       4.187  36.717  64.763  1.00  0.00    -0.192 N 
HETATM    4  C   UNL     1       4.488  35.864  65.760  1.00  0.00     0.725 A 
HETATM    5  N   UNL     1       4.557  34.523  65.496  1.00  0.00    -0.084 N 
HETATM    6  N   UNL     1       4.720  33.809  66.629  1.00  0.00    -0.149 NA
HETATM    7  C   UNL     1       4.850  34.796  67.523  1.00  0.00     0.275 A 
HETATM    8  N   UNL     1       4.706  36.068  67.033  1.00  0.00    -0.054 NA
HETATM    9  C   UNL     1       4.320  33.932  64.174  1.00  0.00     0.202 A 
HETATM   10  C   UNL     1       3.860  34.982  63.172  1.00  0.00     0.062 A 
HETATM   11  H   UNL     1       4.115  37.708  64.974  1.00  0.00     0.184 HD
ENDROOT
BRANCH   9  12
HETATM   12  C   UNL     1       5.551  33.153  63.722  1.00  0.00    -0.028 A 
HETATM   13  C   UNL     1       5.397  31.933  63.048  1.00  0.00     0.012 A 
HETATM   14  C   UNL     1       6.514  31.203  62.638  1.00  0.00     0.037 A 
HETATM   15  C   UNL     1       7.805  31.673  62.885  1.00  0.00     0.074 A 
HETATM   16  C   UNL     1       7.970  32.875  63.575  1.00  0.00     0.037 A 
HETATM   17  C   UNL     1       6.853  33.607  63.992  1.00  0.00     0.012 A 
BRANCH  15  18
HETATM   18  O   UNL     1       8.807  30.862  62.433  1.00  0.00    -0.290 OA
BRANCH  18  19
HETATM   19  C   UNL     1       9.470  31.284  61.253  1.00  0.00     0.505 C 
HETATM   20  F   UNL     1       8.614  32.013  60.495  1.00  0.00    -0.184 F 
HETATM   21  F   UNL     1      10.466  32.126  61.630  1.00  0.00    -0.184 F 
ENDBRANCH  18  19
ENDBRANCH  15  18
ENDBRANCH   9  12
BRANCH  10  22
HETATM   22  C   UNL     1       3.528  34.519  61.799  1.00  0.00     0.256 C 
HETATM   23  N   UNL     1       4.597  34.595  60.931  1.00  0.00    -0.323 N 
HETATM   24  H   UNL     1       5.476  34.944  61.286  1.00  0.00     0.169 HD
HETATM   25  O   UNL     1       2.396  34.121  61.555  1.00  0.00    -0.267 OA
BRANCH  23  26
HETATM   26  C   UNL     1       4.618  34.210  59.572  1.00  0.00     0.035 A 
HETATM   27  C   UNL     1       4.054  34.959  58.538  1.00  0.00     0.029 A 
HETATM   28  C   UNL     1       4.105  34.497  57.219  1.00  0.00     0.002 A 
HETATM   29  C   UNL     1       4.730  33.289  56.921  1.00  0.00     0.000 A 
HETATM   30  C   UNL     1       5.301  32.537  57.944  1.00  0.00     0.002 A 
HETATM   31  C   UNL     1       5.240  32.992  59.263  1.00  0.00     0.029 A 
ENDBRANCH  23  26
ENDBRANCH  10  22
TORSDOF 5
ENDMDL
MODEL 8
REMARK VINA RESULT:      -7.8      5.693      8.630
REMARK  5 active torsions:
REMARK  status: ('A' for Active; 'I' for Inactive)
REMARK    1  A    between atoms: C_9  and  C_10 
REMARK    2  A    between atoms: C_13  and  O_14 
REMARK    3  A    between atoms: O_14  and  C_15 
REMARK    4  A    between atoms: C_20  and  C_21 
REMARK       I    between atoms: C_21  and  N_22 
REMARK    5  A    between atoms: N_22  and  C_23 
ROOT
HETATM    1  C   UNL     1       7.715  31.210  62.842  1.00  0.00     0.070 C 
HETATM    2  C   UNL     1       6.596  31.950  62.150  1.00  0.00     0.037 A 
HETATM    3  N   UNL     1       5.450  32.162  62.909  1.00  0.00    -0.192 N 
HETATM    4  C   UNL     1       4.402  32.889  62.478  1.00  0.00     0.725 A 
HETATM    5  N   UNL     1       4.400  33.365  61.195  1.00  0.00    -0.084 N 
HETATM    6  N   UNL     1       3.355  34.191  60.980  1.00  0.00    -0.149 NA
HETATM    7  C   UNL     1       2.711  34.078  62.148  1.00  0.00     0.275 A 
HETATM    8  N   UNL     1       3.323  33.297  63.094  1.00  0.00    -0.054 NA
HETATM    9  C   UNL     1       5.482  33.136  60.231  1.00  0.00     0.202 A 
HETATM   10  C   UNL     1       6.659  32.420  60.879  1.00  0.00     0.062 A 
HETATM   11  H   UNL     1       5.452  31.833  63.870  1.00  0.00     0.184 HD
ENDROOT
BRANCH   9  12
HETATM   12  C   UNL     1       4.939  32.426  58.995  1.00  0.00    -0.028 A 
HETATM   13  C   UNL     1       5.217  32.935  57.718  1.00  0.00     0.012 A 
HETATM   14  C   UNL     1       4.717  32.302  56.578  1.00  0.00     0.037 A 
HETATM   15  C   UNL     1       3.938  31.149  56.685  1.00  0.00     0.074 A 
HETATM   16  C   UNL     1       3.638  30.646  57.951  1.00  0.00     0.037 A 
HETATM   17  C   UNL     1       4.133  31.280  59.096  1.00  0.00     0.012 A 
BRANCH  15  18
HETATM   18  O   UNL     1       3.514  30.632  55.493  1.00  0.00    -0.290 OA
BRANCH  18  19
HETATM   19  C   UNL     1       4.217  29.498  55.016  1.00  0.00     0.505 C 
HETATM   20  F   UNL     1       5.524  29.604  55.361  1.00  0.00    -0.184 F 
HETATM   21  F   UNL     1       3.730  28.416  55.675  1.00  0.00    -0.184 F 
ENDBRANCH  18  19
ENDBRANCH  15  18
ENDBRANCH   9  12
BRANCH  10  22
HETATM   22  C   UNL     1       7.856  32.167  60.035  1.00  0.00     0.256 C 
HETATM   23  N   UNL     1       7.814  30.950  59.389  1.00  0.00    -0.323 N 
HETATM   24  H   UNL     1       7.008  30.359  59.537  1.00  0.00     0.169 HD
HETATM   25  O   UNL     1       8.740  33.014  59.975  1.00  0.00    -0.267 OA
BRANCH  23  26
HETATM   26  C   UNL     1       8.777  30.425  58.498  1.00  0.00     0.035 A 
HETATM   27  C   UNL     1      10.029  30.999  58.274  1.00  0.00     0.029 A 
HETATM   28  C   UNL     1      10.920  30.423  57.362  1.00  0.00     0.002 A 
HETATM   29  C   UNL     1      10.570  29.264  56.675  1.00  0.00     0.000 A 
HETATM   30  C   UNL     1       9.326  28.680  56.896  1.00  0.00     0.002 A 
HETATM   31  C   UNL     1       8.432  29.260  57.798  1.00  0.00     0.029 A 
ENDBRANCH  23  26
ENDBRANCH  10  22
TORSDOF 5
ENDMDL
MODEL 9
REMARK VINA RESULT:      -7.3      9.616     13.071
REMARK  5 active torsions:
REMARK  status: ('A' for Active; 'I' for Inactive)
REMARK    1  A    between atoms: C_9  and  C_10 
REMARK    2  A    between atoms: C_13  and  O_14 
REMARK    3  A    between atoms: O_14  and  C_15 
REMARK    4  A    between atoms: C_20  and  C_21 
REMARK       I    between atoms: C_21  and  N_22 
REMARK    5  A    between atoms: N_22  and  C_23 
ROOT
HETATM    1  C   UNL     1       5.637  38.887  64.091  1.00  0.00     0.070 C 
HETATM    2  C   UNL     1       5.295  37.452  64.410  1.00  0.00     0.037 A 
HETATM    3  N   UNL     1       5.212  37.136  65.763  1.00  0.00    -0.192 N 
HETATM    4  C   UNL     1       4.822  35.931  66.217  1.00  0.00     0.725 A 
HETATM    5  N   UNL     1       4.593  34.921  65.324  1.00  0.00    -0.084 N 
HETATM    6  N   UNL     1       4.069  33.837  65.934  1.00  0.00    -0.149 NA
HETATM    7  C   UNL     1       4.114  34.231  67.212  1.00  0.00     0.275 A 
HETATM    8  N   UNL     1       4.561  35.508  67.428  1.00  0.00    -0.054 NA
HETATM    9  C   UNL     1       4.742  35.058  63.871  1.00  0.00     0.202 A 
HETATM   10  C   UNL     1       5.055  36.496  63.480  1.00  0.00     0.062 A 
HETATM   11  H   UNL     1       5.358  37.886  66.433  1.00  0.00     0.184 HD
ENDROOT
BRANCH   9  12
HETATM   12  C   UNL     1       5.761  34.048  63.353  1.00  0.00    -0.028 A 
HETATM   13  C   UNL     1       5.483  33.305  62.197  1.00  0.00     0.012 A 
HETATM   14  C   UNL     1       6.402  32.369  61.717  1.00  0.00     0.037 A 
HETATM   15  C   UNL     1       7.615  32.157  62.374  1.00  0.00     0.074 A 
HETATM   16  C   UNL     1       7.892  32.874  63.538  1.00  0.00     0.037 A 
HETATM   17  C   UNL     1       6.973  33.811  64.024  1.00  0.00     0.012 A 
BRANCH  15  18
HETATM   18  O   UNL     1       8.420  31.213  61.800  1.00  0.00    -0.290 OA
BRANCH  18  19
HETATM   19  C   UNL     1       9.422  31.695  60.922  1.00  0.00     0.505 C 
HETATM   20  F   UNL     1       8.973  32.813  60.300  1.00  0.00    -0.184 F 
HETATM   21  F   UNL     1      10.478  32.075  61.686  1.00  0.00    -0.184 F 
ENDBRANCH  18  19
ENDBRANCH  15  18
ENDBRANCH   9  12
BRANCH  10  22
HETATM   22  C   UNL     1       5.181  36.799  62.030  1.00  0.00     0.256 C 
HETATM   23  N   UNL     1       4.011  36.592  61.331  1.00  0.00    -0.323 N 
HETATM   24  H   UNL     1       3.203  36.265  61.841  1.00  0.00     0.169 HD
HETATM   25  O   UNL     1       6.253  37.196  61.589  1.00  0.00    -0.267 OA
BRANCH  23  26
HETATM   26  C   UNL     1       3.793  36.810  59.953  1.00  0.00     0.035 A 
HETATM   27  C   UNL     1       3.933  35.826  58.973  1.00  0.00     0.029 A 
HETATM   28  C   UNL     1       3.713  36.131  57.626  1.00  0.00     0.002 A 
HETATM   29  C   UNL     1       3.341  37.419  57.248  1.00  0.00     0.000 A 
HETATM   30  C   UNL     1       3.193  38.406  58.218  1.00  0.00     0.002 A 
HETATM   31  C   UNL     1       3.424  38.106  59.562  1.00  0.00     0.029 A 
ENDBRANCH  23  26
ENDBRANCH  10  22
TORSDOF 5
ENDMDL
MODEL 10
REMARK VINA RESULT:      -7.0      8.825     10.548
REMARK  5 active torsions:
REMARK  status: ('A' for Active; 'I' for Inactive)
REMARK    1  A    between atoms: C_9  and  C_10 
REMARK    2  A    between atoms: C_13  and  O_14 
REMARK    3  A    between atoms: O_14  and  C_15 
REMARK    4  A    between atoms: C_20  and  C_21 
REMARK       I    between atoms: C_21  and  N_22 
REMARK    5  A    between atoms: N_22  and  C_23 
ROOT
HETATM    1  C   UNL     1       4.671  34.151  57.078  1.00  0.00     0.070 C 
HETATM    2  C   UNL     1       3.709  34.174  58.242  1.00  0.00     0.037 A 
HETATM    3  N   UNL     1       2.586  34.979  58.083  1.00  0.00    -0.192 N 
HETATM    4  C   UNL     1       1.585  35.035  58.981  1.00  0.00     0.725 A 
HETATM    5  N   UNL     1       1.706  34.356  60.162  1.00  0.00    -0.084 N 
HETATM    6  N   UNL     1       0.559  34.399  60.872  1.00  0.00    -0.149 NA
HETATM    7  C   UNL     1      -0.173  35.214  60.103  1.00  0.00     0.275 A 
HETATM    8  N   UNL     1       0.415  35.619  58.933  1.00  0.00    -0.054 NA
HETATM    9  C   UNL     1       2.875  33.550  60.532  1.00  0.00     0.202 A 
HETATM   10  C   UNL     1       3.870  33.460  59.383  1.00  0.00     0.062 A 
HETATM   11  H   UNL     1       2.476  35.468  57.199  1.00  0.00     0.184 HD
ENDROOT
BRANCH   9  12
HETATM   12  C   UNL     1       3.482  34.075  61.828  1.00  0.00    -0.028 A 
HETATM   13  C   UNL     1       3.688  33.203  62.907  1.00  0.00     0.012 A 
HETATM   14  C   UNL     1       4.233  33.672  64.104  1.00  0.00     0.037 A 
HETATM   15  C   UNL     1       4.589  35.014  64.250  1.00  0.00     0.074 A 
HETATM   16  C   UNL     1       4.368  35.895  63.191  1.00  0.00     0.037 A 
HETATM   17  C   UNL     1       3.818  35.430  61.991  1.00  0.00     0.012 A 
BRANCH  15  18
HETATM   18  O   UNL     1       5.110  35.339  65.471  1.00  0.00    -0.290 OA
BRANCH  18  19
HETATM   19  C   UNL     1       4.286  35.076  66.593  1.00  0.00     0.505 C 
HETATM   20  F   UNL     1       4.947  35.422  67.725  1.00  0.00    -0.184 F 
HETATM   21  F   UNL     1       3.211  35.900  66.506  1.00  0.00    -0.184 F 
ENDBRANCH  18  19
ENDBRANCH  15  18
ENDBRANCH   9  12
BRANCH  10  22
HETATM   22  C   UNL     1       5.084  32.628  59.593  1.00  0.00     0.256 C 
HETATM   23  N   UNL     1       6.047  33.259  60.352  1.00  0.00    -0.323 N 
HETATM   24  H   UNL     1       5.854  34.193  60.687  1.00  0.00     0.169 HD
HETATM   25  O   UNL     1       5.134  31.504  59.109  1.00  0.00    -0.267 OA
BRANCH  23  26
HETATM   26  C   UNL     1       7.296  32.733  60.751  1.00  0.00     0.035 A 
HETATM   27  C   UNL     1       8.321  32.395  59.866  1.00  0.00     0.029 A 
HETATM   28  C   UNL     1       9.523  31.865  60.344  1.00  0.00     0.002 A 
HETATM   29  C   UNL     1       9.715  31.677  61.710  1.00  0.00     0.000 A 
HETATM   30  C   UNL     1       8.702  32.017  62.602  1.00  0.00     0.002 A 
HETATM   31  C   UNL     1       7.496  32.536  62.125  1.00  0.00     0.029 A 
ENDBRANCH  23  26
ENDBRANCH  10  22
TORSDOF 5
ENDMDL
