MODEL 1
REMARK VINA RESULT:      -8.4      0.000      0.000
REMARK  7 active torsions:
REMARK  status: ('A' for Active; 'I' for Inactive)
REMARK    1  A    between atoms: C_5  and  O_6 
REMARK    2  A    between atoms: O_6  and  C_7 
REMARK    3  A    between atoms: C_7  and  C_8 
REMARK       I    between atoms: C_8  and  N_9 
REMARK    4  A    between atoms: N_9  and  C_10 
REMARK    5  A    between atoms: C_13  and  N_14 
REMARK    6  A    between atoms: N_14  and  C_15 
REMARK    7  A    between atoms: C_15  and  C_16 
ROOT
HETATM    1  C   UNL     1       5.900  27.793  53.595  1.00  0.00     0.034 A 
HETATM    2  C   UNL     1       7.195  27.285  53.673  1.00  0.00     0.031 A 
HETATM    3  C   UNL     1       7.444  25.932  53.406  1.00  0.00     0.026 A 
HETATM    4  C   UNL     1       6.409  25.064  53.045  1.00  0.00     0.008 A 
HETATM    5  C   UNL     1       5.116  25.583  52.952  1.00  0.00     0.026 A 
HETATM    6  C   UNL     1       4.860  26.926  53.249  1.00  0.00     0.031 A 
ENDROOT
BRANCH   1   7
HETATM    7  N   UNL     1       5.545  29.111  53.922  1.00  0.00    -0.325 N 
HETATM    8  C   UNL     1       4.656  29.633  54.817  1.00  0.00     0.246 C 
HETATM    9  O   UNL     1       4.362  30.829  54.706  1.00  0.00    -0.271 OA
HETATM   10  H   UNL     1       6.028  29.845  53.417  1.00  0.00     0.169 HD
BRANCH   8  11
HETATM   11  C   UNL     1       4.081  28.804  55.963  1.00  0.00     0.278 C 
BRANCH  11  12
HETATM   12  O   UNL     1       5.009  28.763  57.039  1.00  0.00    -0.342 OA
BRANCH  12  13
HETATM   13  C   UNL     1       5.845  27.685  57.099  1.00  0.00     0.069 A 
HETATM   14  C   UNL     1       7.182  27.994  57.348  1.00  0.00     0.037 A 
HETATM   15  C   UNL     1       8.140  26.984  57.448  1.00  0.00     0.009 A 
HETATM   16  C   UNL     1       7.771  25.645  57.288  1.00  0.00    -0.062 A 
HETATM   17  C   UNL     1       8.788  24.547  57.386  1.00  0.00     0.048 C 
HETATM   18  C   UNL     1       6.432  25.340  57.010  1.00  0.00     0.009 A 
HETATM   19  C   UNL     1       5.472  26.354  56.913  1.00  0.00     0.037 A 
ENDBRANCH  12  13
ENDBRANCH  11  12
ENDBRANCH   8  11
ENDBRANCH   1   7
BRANCH   4  20
HETATM   20  N   UNL     1       6.641  23.703  52.789  1.00  0.00    -0.289 NA
HETATM   21  H   UNL     1       6.045  23.111  53.363  1.00  0.00     0.128 HD
BRANCH  20  22
HETATM   22  C   UNL     1       8.042  23.296  52.896  1.00  0.00     0.132 C 
BRANCH  22  23
HETATM   23  C   UNL     1       8.145  22.100  53.802  1.00  0.00    -0.027 A 
HETATM   24  C   UNL     1       8.726  20.913  53.367  1.00  0.00     0.124 A 
HETATM   25  N   UNL     1       8.857  19.806  54.133  1.00  0.00    -0.273 NA
HETATM   26  C   UNL     1       8.392  19.885  55.398  1.00  0.00     0.116 A 
HETATM   27  C   UNL     1       7.803  21.019  55.932  1.00  0.00     0.020 A 
HETATM   28  C   UNL     1       7.681  22.143  55.120  1.00  0.00     0.011 A 
ENDBRANCH  22  23
ENDBRANCH  20  22
ENDBRANCH   4  20
TORSDOF 7
ENDMDL
MODEL 2
REMARK VINA RESULT:      -8.4      3.565      6.616
REMARK  7 active torsions:
REMARK  status: ('A' for Active; 'I' for Inactive)
REMARK    1  A    between atoms: C_5  and  O_6 
REMARK    2  A    between atoms: O_6  and  C_7 
REMARK    3  A    between atoms: C_7  and  C_8 
REMARK       I    between atoms: C_8  and  N_9 
REMARK    4  A    between atoms: N_9  and  C_10 
REMARK    5  A    between atoms: C_13  and  N_14 
REMARK    6  A    between atoms: N_14  and  C_15 
REMARK    7  A    between atoms: C_15  and  C_16 
ROOT
HETATM    1  C   UNL     1       5.125  26.098  54.030  1.00  0.00     0.034 A 
HETATM    2  C   UNL     1       4.934  25.097  53.080  1.00  0.00     0.031 A 
HETATM    3  C   UNL     1       5.120  25.367  51.717  1.00  0.00     0.026 A 
HETATM    4  C   UNL     1       5.511  26.634  51.278  1.00  0.00     0.008 A 
HETATM    5  C   UNL     1       5.718  27.629  52.236  1.00  0.00     0.026 A 
HETATM    6  C   UNL     1       5.503  27.371  53.594  1.00  0.00     0.031 A 
ENDROOT
BRANCH   1   7
HETATM    7  N   UNL     1       4.885  25.943  55.404  1.00  0.00    -0.325 N 
HETATM    8  C   UNL     1       5.683  25.555  56.442  1.00  0.00     0.246 C 
HETATM    9  O   UNL     1       5.133  25.258  57.510  1.00  0.00    -0.271 OA
HETATM   10  H   UNL     1       3.947  26.158  55.723  1.00  0.00     0.169 HD
BRANCH   8  11
HETATM   11  C   UNL     1       7.204  25.545  56.334  1.00  0.00     0.278 C 
BRANCH  11  12
HETATM   12  O   UNL     1       7.702  24.254  56.656  1.00  0.00    -0.342 OA
BRANCH  12  13
HETATM   13  C   UNL     1       7.870  23.376  55.624  1.00  0.00     0.069 A 
HETATM   14  C   UNL     1       7.824  22.030  55.987  1.00  0.00     0.037 A 
HETATM   15  C   UNL     1       7.968  21.028  55.026  1.00  0.00     0.009 A 
HETATM   16  C   UNL     1       8.170  21.363  53.684  1.00  0.00    -0.062 A 
HETATM   17  C   UNL     1       8.331  20.300  52.639  1.00  0.00     0.048 C 
HETATM   18  C   UNL     1       8.243  22.716  53.327  1.00  0.00     0.009 A 
HETATM   19  C   UNL     1       8.095  23.719  54.292  1.00  0.00     0.037 A 
ENDBRANCH  12  13
ENDBRANCH  11  12
ENDBRANCH   8  11
ENDBRANCH   1   7
BRANCH   4  20
HETATM   20  N   UNL     1       5.688  26.923  49.915  1.00  0.00    -0.289 NA
HETATM   21  H   UNL     1       6.673  27.036  49.685  1.00  0.00     0.128 HD
BRANCH  20  22
HETATM   22  C   UNL     1       4.903  28.058  49.430  1.00  0.00     0.132 C 
BRANCH  22  23
HETATM   23  C   UNL     1       3.758  27.552  48.598  1.00  0.00    -0.027 A 
HETATM   24  C   UNL     1       3.960  26.624  47.581  1.00  0.00     0.124 A 
HETATM   25  N   UNL     1       2.974  26.122  46.803  1.00  0.00    -0.273 NA
HETATM   26  C   UNL     1       1.722  26.562  47.051  1.00  0.00     0.116 A 
HETATM   27  C   UNL     1       1.411  27.479  48.042  1.00  0.00     0.020 A 
HETATM   28  C   UNL     1       2.446  27.977  48.827  1.00  0.00     0.011 A 
ENDBRANCH  22  23
ENDBRANCH  20  22
ENDBRANCH   4  20
TORSDOF 7
ENDMDL
MODEL 3
REMARK VINA RESULT:      -8.3      4.158      8.362
REMARK  7 active torsions:
REMARK  status: ('A' for Active; 'I' for Inactive)
REMARK    1  A    between atoms: C_5  and  O_6 
REMARK    2  A    between atoms: O_6  and  C_7 
REMARK    3  A    between atoms: C_7  and  C_8 
REMARK       I    between atoms: C_8  and  N_9 
REMARK    4  A    between atoms: N_9  and  C_10 
REMARK    5  A    between atoms: C_13  and  N_14 
REMARK    6  A    between atoms: N_14  and  C_15 
REMARK    7  A    between atoms: C_15  and  C_16 
ROOT
HETATM    1  C   UNL     1       7.286  29.182  55.825  1.00  0.00     0.034 A 
HETATM    2  C   UNL     1       6.411  29.771  56.735  1.00  0.00     0.031 A 
HETATM    3  C   UNL     1       6.821  30.027  58.051  1.00  0.00     0.026 A 
HETATM    4  C   UNL     1       8.113  29.712  58.480  1.00  0.00     0.008 A 
HETATM    5  C   UNL     1       8.992  29.137  57.559  1.00  0.00     0.026 A 
HETATM    6  C   UNL     1       8.575  28.852  56.254  1.00  0.00     0.031 A 
ENDROOT
BRANCH   1   7
HETATM    7  N   UNL     1       6.940  28.816  54.516  1.00  0.00    -0.325 N 
HETATM    8  C   UNL     1       6.591  27.622  53.952  1.00  0.00     0.246 C 
HETATM    9  O   UNL     1       6.592  27.546  52.718  1.00  0.00    -0.271 OA
HETATM   10  H   UNL     1       6.933  29.561  53.829  1.00  0.00     0.169 HD
BRANCH   8  11
HETATM   11  C   UNL     1       6.149  26.429  54.794  1.00  0.00     0.278 C 
BRANCH  11  12
HETATM   12  O   UNL     1       7.287  25.687  55.214  1.00  0.00    -0.342 OA
BRANCH  12  13
HETATM   13  C   UNL     1       7.509  24.488  54.600  1.00  0.00     0.069 A 
HETATM   14  C   UNL     1       7.491  23.382  55.450  1.00  0.00     0.037 A 
HETATM   15  C   UNL     1       7.691  22.095  54.948  1.00  0.00     0.009 A 
HETATM   16  C   UNL     1       7.922  21.899  53.583  1.00  0.00    -0.062 A 
HETATM   17  C   UNL     1       8.143  20.524  53.028  1.00  0.00     0.048 C 
HETATM   18  C   UNL     1       7.966  23.015  52.737  1.00  0.00     0.009 A 
HETATM   19  C   UNL     1       7.763  24.304  53.241  1.00  0.00     0.037 A 
ENDBRANCH  12  13
ENDBRANCH  11  12
ENDBRANCH   8  11
ENDBRANCH   1   7
BRANCH   4  20
HETATM   20  N   UNL     1       8.534  29.950  59.799  1.00  0.00    -0.289 NA
HETATM   21  H   UNL     1       7.797  29.735  60.467  1.00  0.00     0.128 HD
BRANCH  20  22
HETATM   22  C   UNL     1       9.076  31.289  60.029  1.00  0.00     0.132 C 
BRANCH  22  23
HETATM   23  C   UNL     1       8.291  31.963  61.120  1.00  0.00    -0.027 A 
HETATM   24  C   UNL     1       7.097  32.624  60.846  1.00  0.00     0.124 A 
HETATM   25  N   UNL     1       6.339  33.242  61.781  1.00  0.00    -0.273 NA
HETATM   26  C   UNL     1       6.789  33.196  63.053  1.00  0.00     0.116 A 
HETATM   27  C   UNL     1       7.959  32.560  63.434  1.00  0.00     0.020 A 
HETATM   28  C   UNL     1       8.717  31.933  62.451  1.00  0.00     0.011 A 
ENDBRANCH  22  23
ENDBRANCH  20  22
ENDBRANCH   4  20
TORSDOF 7
ENDMDL
MODEL 4
REMARK VINA RESULT:      -8.0      3.474      7.626
REMARK  7 active torsions:
REMARK  status: ('A' for Active; 'I' for Inactive)
REMARK    1  A    between atoms: C_5  and  O_6 
REMARK    2  A    between atoms: O_6  and  C_7 
REMARK    3  A    between atoms: C_7  and  C_8 
REMARK       I    between atoms: C_8  and  N_9 
REMARK    4  A    between atoms: N_9  and  C_10 
REMARK    5  A    between atoms: C_13  and  N_14 
REMARK    6  A    between atoms: N_14  and  C_15 
REMARK    7  A    between atoms: C_15  and  C_16 
ROOT
HETATM    1  C   UNL     1       7.494  24.002  56.473  1.00  0.00     0.034 A 
HETATM    2  C   UNL     1       6.317  24.748  56.514  1.00  0.00     0.031 A 
HETATM    3  C   UNL     1       6.347  26.101  56.878  1.00  0.00     0.026 A 
HETATM    4  C   UNL     1       7.549  26.737  57.197  1.00  0.00     0.008 A 
HETATM    5  C   UNL     1       8.727  25.990  57.139  1.00  0.00     0.026 A 
HETATM    6  C   UNL     1       8.697  24.632  56.805  1.00  0.00     0.031 A 
ENDROOT
BRANCH   1   7
HETATM    7  N   UNL     1       7.552  22.628  56.198  1.00  0.00    -0.325 N 
HETATM    8  C   UNL     1       7.800  21.924  55.054  1.00  0.00     0.246 C 
HETATM    9  O   UNL     1       7.529  20.717  55.050  1.00  0.00    -0.271 OA
HETATM   10  H   UNL     1       7.387  22.006  56.981  1.00  0.00     0.169 HD
BRANCH   8  11
HETATM   11  C   UNL     1       8.450  22.569  53.833  1.00  0.00     0.278 C 
BRANCH  11  12
HETATM   12  O   UNL     1       7.453  22.905  52.878  1.00  0.00    -0.342 OA
BRANCH  12  13
HETATM   13  C   UNL     1       6.933  24.166  52.939  1.00  0.00     0.069 A 
HETATM   14  C   UNL     1       7.878  25.184  53.073  1.00  0.00     0.037 A 
HETATM   15  C   UNL     1       7.481  26.520  53.133  1.00  0.00     0.009 A 
HETATM   16  C   UNL     1       6.126  26.856  53.069  1.00  0.00    -0.062 A 
HETATM   17  C   UNL     1       5.682  28.287  53.138  1.00  0.00     0.048 C 
HETATM   18  C   UNL     1       5.178  25.830  52.962  1.00  0.00     0.009 A 
HETATM   19  C   UNL     1       5.578  24.490  52.899  1.00  0.00     0.037 A 
ENDBRANCH  12  13
ENDBRANCH  11  12
ENDBRANCH   8  11
ENDBRANCH   1   7
BRANCH   4  20
HETATM   20  N   UNL     1       7.592  28.089  57.579  1.00  0.00    -0.289 NA
HETATM   21  H   UNL     1       6.794  28.603  57.213  1.00  0.00     0.128 HD
BRANCH  20  22
HETATM   22  C   UNL     1       8.846  28.769  57.255  1.00  0.00     0.132 C 
BRANCH  22  23
HETATM   23  C   UNL     1       9.024  29.947  58.173  1.00  0.00    -0.027 A 
HETATM   24  C   UNL     1       9.951  30.946  57.893  1.00  0.00     0.124 A 
HETATM   25  N   UNL     1      10.153  32.035  58.670  1.00  0.00    -0.273 NA
HETATM   26  C   UNL     1       9.392  32.137  59.780  1.00  0.00     0.116 A 
HETATM   27  C   UNL     1       8.437  31.204  60.147  1.00  0.00     0.020 A 
HETATM   28  C   UNL     1       8.251  30.094  59.328  1.00  0.00     0.011 A 
ENDBRANCH  22  23
ENDBRANCH  20  22
ENDBRANCH   4  20
TORSDOF 7
ENDMDL
MODEL 5
REMARK VINA RESULT:      -7.9      3.295      6.397
REMARK  7 active torsions:
REMARK  status: ('A' for Active; 'I' for Inactive)
REMARK    1  A    between atoms: C_5  and  O_6 
REMARK    2  A    between atoms: O_6  and  C_7 
REMARK    3  A    between atoms: C_7  and  C_8 
REMARK       I    between atoms: C_8  and  N_9 
REMARK    4  A    between atoms: N_9  and  C_10 
REMARK    5  A    between atoms: C_13  and  N_14 
REMARK    6  A    between atoms: N_14  and  C_15 
REMARK    7  A    between atoms: C_15  and  C_16 
ROOT
HETATM    1  C   UNL     1       6.588  26.991  54.860  1.00  0.00     0.034 A 
HETATM    2  C   UNL     1       7.322  27.201  53.694  1.00  0.00     0.031 A 
HETATM    3  C   UNL     1       6.790  26.846  52.447  1.00  0.00     0.026 A 
HETATM    4  C   UNL     1       5.514  26.287  52.338  1.00  0.00     0.008 A 
HETATM    5  C   UNL     1       4.775  26.095  53.508  1.00  0.00     0.026 A 
HETATM    6  C   UNL     1       5.316  26.419  54.756  1.00  0.00     0.031 A 
ENDROOT
BRANCH   1   7
HETATM    7  N   UNL     1       7.068  27.240  56.154  1.00  0.00    -0.325 N 
HETATM    8  C   UNL     1       7.710  26.454  57.068  1.00  0.00     0.246 C 
HETATM    9  O   UNL     1       7.782  26.867  58.232  1.00  0.00    -0.271 OA
HETATM   10  H   UNL     1       6.934  28.180  56.510  1.00  0.00     0.169 HD
BRANCH   8  11
HETATM   11  C   UNL     1       8.378  25.139  56.677  1.00  0.00     0.278 C 
BRANCH  11  12
HETATM   12  O   UNL     1       7.406  24.104  56.618  1.00  0.00    -0.342 OA
BRANCH  12  13
HETATM   13  C   UNL     1       7.612  23.109  55.706  1.00  0.00     0.069 A 
HETATM   14  C   UNL     1       7.699  23.537  54.381  1.00  0.00     0.037 A 
HETATM   15  C   UNL     1       7.922  22.623  53.350  1.00  0.00     0.009 A 
HETATM   16  C   UNL     1       8.052  21.261  53.633  1.00  0.00    -0.062 A 
HETATM   17  C   UNL     1       8.287  20.265  52.537  1.00  0.00     0.048 C 
HETATM   18  C   UNL     1       7.937  20.830  54.961  1.00  0.00     0.009 A 
HETATM   19  C   UNL     1       7.717  21.749  55.994  1.00  0.00     0.037 A 
ENDBRANCH  12  13
ENDBRANCH  11  12
ENDBRANCH   8  11
ENDBRANCH   1   7
BRANCH   4  20
HETATM   20  N   UNL     1       4.973  25.913  51.097  1.00  0.00    -0.289 NA
HETATM   21  H   UNL     1       5.330  25.009  50.794  1.00  0.00     0.128 HD
BRANCH  20  22
HETATM   22  C   UNL     1       5.126  26.916  50.042  1.00  0.00     0.132 C 
BRANCH  22  23
HETATM   23  C   UNL     1       3.977  26.804  49.079  1.00  0.00    -0.027 A 
HETATM   24  C   UNL     1       2.944  27.736  49.078  1.00  0.00     0.124 A 
HETATM   25  N   UNL     1       1.888  27.699  48.233  1.00  0.00    -0.273 NA
HETATM   26  C   UNL     1       1.860  26.685  47.341  1.00  0.00     0.116 A 
HETATM   27  C   UNL     1       2.840  25.710  47.254  1.00  0.00     0.020 A 
HETATM   28  C   UNL     1       3.914  25.774  48.136  1.00  0.00     0.011 A 
ENDBRANCH  22  23
ENDBRANCH  20  22
ENDBRANCH   4  20
TORSDOF 7
ENDMDL
MODEL 6
REMARK VINA RESULT:      -7.8      3.723      4.962
REMARK  7 active torsions:
REMARK  status: ('A' for Active; 'I' for Inactive)
REMARK    1  A    between atoms: C_5  and  O_6 
REMARK    2  A    between atoms: O_6  and  C_7 
REMARK    3  A    between atoms: C_7  and  C_8 
REMARK       I    between atoms: C_8  and  N_9 
REMARK    4  A    between atoms: N_9  and  C_10 
REMARK    5  A    between atoms: C_13  and  N_14 
REMARK    6  A    between atoms: N_14  and  C_15 
REMARK    7  A    between atoms: C_15  and  C_16 
ROOT
HETATM    1  C   UNL     1       6.415  27.752  56.620  1.00  0.00     0.034 A 
HETATM    2  C   UNL     1       5.466  26.765  56.879  1.00  0.00     0.031 A 
HETATM    3  C   UNL     1       5.854  25.424  57.003  1.00  0.00     0.026 A 
HETATM    4  C   UNL     1       7.193  25.044  56.884  1.00  0.00     0.008 A 
HETATM    5  C   UNL     1       8.142  26.040  56.642  1.00  0.00     0.026 A 
HETATM    6  C   UNL     1       7.754  27.375  56.486  1.00  0.00     0.031 A 
ENDROOT
BRANCH   1   7
HETATM    7  N   UNL     1       6.111  29.104  56.401  1.00  0.00    -0.325 N 
HETATM    8  C   UNL     1       6.321  30.230  57.146  1.00  0.00     0.246 C 
HETATM    9  O   UNL     1       5.713  31.257  56.820  1.00  0.00    -0.271 OA
HETATM   10  H   UNL     1       5.651  29.325  55.526  1.00  0.00     0.169 HD
BRANCH   8  11
HETATM   11  C   UNL     1       7.314  30.261  58.303  1.00  0.00     0.278 C 
BRANCH  11  12
HETATM   12  O   UNL     1       7.647  31.607  58.617  1.00  0.00    -0.342 OA
BRANCH  12  13
HETATM   13  C   UNL     1       7.586  31.972  59.931  1.00  0.00     0.069 A 
HETATM   14  C   UNL     1       8.739  31.702  60.669  1.00  0.00     0.037 A 
HETATM   15  C   UNL     1       8.815  32.038  62.021  1.00  0.00     0.009 A 
HETATM   16  C   UNL     1       7.727  32.644  62.658  1.00  0.00    -0.062 A 
HETATM   17  C   UNL     1       7.789  33.007  64.112  1.00  0.00     0.048 C 
HETATM   18  C   UNL     1       6.561  32.889  61.922  1.00  0.00     0.009 A 
HETATM   19  C   UNL     1       6.488  32.553  60.564  1.00  0.00     0.037 A 
ENDBRANCH  12  13
ENDBRANCH  11  12
ENDBRANCH   8  11
ENDBRANCH   1   7
BRANCH   4  20
HETATM   20  N   UNL     1       7.595  23.703  56.992  1.00  0.00    -0.289 NA
HETATM   21  H   UNL     1       7.624  23.401  57.963  1.00  0.00     0.128 HD
BRANCH  20  22
HETATM   22  C   UNL     1       8.851  23.390  56.309  1.00  0.00     0.132 C 
BRANCH  22  23
HETATM   23  C   UNL     1       8.588  22.388  55.218  1.00  0.00    -0.027 A 
HETATM   24  C   UNL     1       8.782  21.026  55.427  1.00  0.00     0.124 A 
HETATM   25  N   UNL     1       8.556  20.075  54.493  1.00  0.00    -0.273 NA
HETATM   26  C   UNL     1       8.110  20.498  53.291  1.00  0.00     0.116 A 
HETATM   27  C   UNL     1       7.879  21.828  52.981  1.00  0.00     0.020 A 
HETATM   28  C   UNL     1       8.120  22.785  53.962  1.00  0.00     0.011 A 
ENDBRANCH  22  23
ENDBRANCH  20  22
ENDBRANCH   4  20
TORSDOF 7
ENDMDL
MODEL 7
REMARK VINA RESULT:      -7.6      2.153      3.116
REMARK  7 active torsions:
REMARK  status: ('A' for Active; 'I' for Inactive)
REMARK    1  A    between atoms: C_5  and  O_6 
REMARK    2  A    between atoms: O_6  and  C_7 
REMARK    3  A    between atoms: C_7  and  C_8 
REMARK       I    between atoms: C_8  and  N_9 
REMARK    4  A    between atoms: N_9  and  C_10 
REMARK    5  A    between atoms: C_13  and  N_14 
REMARK    6  A    between atoms: N_14  and  C_15 
REMARK    7  A    between atoms: C_15  and  C_16 
ROOT
HETATM    1  C   UNL     1       4.743  27.807  55.825  1.00  0.00     0.034 A 
HETATM    2  C   UNL     1       5.099  26.721  56.622  1.00  0.00     0.031 A 
HETATM    3  C   UNL     1       6.028  25.778  56.161  1.00  0.00     0.026 A 
HETATM    4  C   UNL     1       6.626  25.906  54.905  1.00  0.00     0.008 A 
HETATM    5  C   UNL     1       6.278  27.005  54.118  1.00  0.00     0.026 A 
HETATM    6  C   UNL     1       5.328  27.931  54.562  1.00  0.00     0.031 A 
ENDROOT
BRANCH   1   7
HETATM    7  N   UNL     1       3.766  28.754  56.168  1.00  0.00    -0.325 N 
HETATM    8  C   UNL     1       3.842  29.999  56.723  1.00  0.00     0.246 C 
HETATM    9  O   UNL     1       2.797  30.502  57.154  1.00  0.00    -0.271 OA
HETATM   10  H   UNL     1       2.805  28.499  55.973  1.00  0.00     0.169 HD
BRANCH   8  11
HETATM   11  C   UNL     1       5.147  30.789  56.763  1.00  0.00     0.278 C 
BRANCH  11  12
HETATM   12  O   UNL     1       5.856  30.488  57.958  1.00  0.00    -0.342 OA
BRANCH  12  13
HETATM   13  C   UNL     1       7.211  30.355  57.861  1.00  0.00     0.069 A 
HETATM   14  C   UNL     1       7.649  29.604  56.770  1.00  0.00     0.037 A 
HETATM   15  C   UNL     1       9.012  29.402  56.545  1.00  0.00     0.009 A 
HETATM   16  C   UNL     1       9.958  29.945  57.419  1.00  0.00    -0.062 A 
HETATM   17  C   UNL     1      11.425  29.735  57.195  1.00  0.00     0.048 C 
HETATM   18  C   UNL     1       9.514  30.676  58.529  1.00  0.00     0.009 A 
HETATM   19  C   UNL     1       8.147  30.880  58.751  1.00  0.00     0.037 A 
ENDBRANCH  12  13
ENDBRANCH  11  12
ENDBRANCH   8  11
ENDBRANCH   1   7
BRANCH   4  20
HETATM   20  N   UNL     1       7.548  24.961  54.425  1.00  0.00    -0.289 NA
HETATM   21  H   UNL     1       8.331  25.412  53.957  1.00  0.00     0.128 HD
BRANCH  20  22
HETATM   22  C   UNL     1       6.963  23.919  53.580  1.00  0.00     0.132 C 
BRANCH  22  23
HETATM   23  C   UNL     1       7.534  22.584  53.970  1.00  0.00    -0.027 A 
HETATM   24  C   UNL     1       7.766  22.259  55.302  1.00  0.00     0.124 A 
HETATM   25  N   UNL     1       8.269  21.074  55.720  1.00  0.00    -0.273 NA
HETATM   26  C   UNL     1       8.551  20.165  54.763  1.00  0.00     0.116 A 
HETATM   27  C   UNL     1       8.352  20.384  53.410  1.00  0.00     0.020 A 
HETATM   28  C   UNL     1       7.834  21.612  53.011  1.00  0.00     0.011 A 
ENDBRANCH  22  23
ENDBRANCH  20  22
ENDBRANCH   4  20
TORSDOF 7
ENDMDL
MODEL 8
REMARK VINA RESULT:      -7.4      3.661      7.635
REMARK  7 active torsions:
REMARK  status: ('A' for Active; 'I' for Inactive)
REMARK    1  A    between atoms: C_5  and  O_6 
REMARK    2  A    between atoms: O_6  and  C_7 
REMARK    3  A    between atoms: C_7  and  C_8 
REMARK       I    between atoms: C_8  and  N_9 
REMARK    4  A    between atoms: N_9  and  C_10 
REMARK    5  A    between atoms: C_13  and  N_14 
REMARK    6  A    between atoms: N_14  and  C_15 
REMARK    7  A    between atoms: C_15  and  C_16 
ROOT
HETATM    1  C   UNL     1       5.338  27.121  55.194  1.00  0.00     0.034 A 
HETATM    2  C   UNL     1       4.882  28.433  55.080  1.00  0.00     0.031 A 
HETATM    3  C   UNL     1       5.191  29.380  56.065  1.00  0.00     0.026 A 
HETATM    4  C   UNL     1       5.969  29.042  57.175  1.00  0.00     0.008 A 
HETATM    5  C   UNL     1       6.439  27.730  57.276  1.00  0.00     0.026 A 
HETATM    6  C   UNL     1       6.105  26.775  56.310  1.00  0.00     0.031 A 
ENDROOT
BRANCH   1   7
HETATM    7  N   UNL     1       5.013  26.088  54.302  1.00  0.00    -0.325 N 
HETATM    8  C   UNL     1       5.647  25.584  53.203  1.00  0.00     0.246 C 
HETATM    9  O   UNL     1       4.999  24.842  52.455  1.00  0.00    -0.271 OA
HETATM   10  H   UNL     1       4.147  25.594  54.484  1.00  0.00     0.169 HD
BRANCH   8  11
HETATM   11  C   UNL     1       7.121  25.859  52.922  1.00  0.00     0.278 C 
BRANCH  11  12
HETATM   12  O   UNL     1       7.768  24.658  52.523  1.00  0.00    -0.342 OA
BRANCH  12  13
HETATM   13  C   UNL     1       7.895  23.677  53.465  1.00  0.00     0.069 A 
HETATM   14  C   UNL     1       7.765  22.377  52.977  1.00  0.00     0.037 A 
HETATM   15  C   UNL     1       7.887  21.280  53.831  1.00  0.00     0.009 A 
HETATM   16  C   UNL     1       8.133  21.473  55.194  1.00  0.00    -0.062 A 
HETATM   17  C   UNL     1       8.262  20.306  56.127  1.00  0.00     0.048 C 
HETATM   18  C   UNL     1       8.235  22.781  55.685  1.00  0.00     0.009 A 
HETATM   19  C   UNL     1       8.116  23.879  54.826  1.00  0.00     0.037 A 
ENDBRANCH  12  13
ENDBRANCH  11  12
ENDBRANCH   8  11
ENDBRANCH   1   7
BRANCH   4  20
HETATM   20  N   UNL     1       6.276  29.977  58.177  1.00  0.00    -0.289 NA
HETATM   21  H   UNL     1       5.786  30.856  58.025  1.00  0.00     0.128 HD
BRANCH  20  22
HETATM   22  C   UNL     1       7.707  30.202  58.378  1.00  0.00     0.132 C 
BRANCH  22  23
HETATM   23  C   UNL     1       7.922  30.892  59.697  1.00  0.00    -0.027 A 
HETATM   24  C   UNL     1       8.961  30.522  60.545  1.00  0.00     0.124 A 
HETATM   25  N   UNL     1       9.214  31.107  61.738  1.00  0.00    -0.273 NA
HETATM   26  C   UNL     1       8.394  32.114  62.106  1.00  0.00     0.116 A 
HETATM   27  C   UNL     1       7.335  32.564  61.335  1.00  0.00     0.020 A 
HETATM   28  C   UNL     1       7.099  31.943  60.112  1.00  0.00     0.011 A 
ENDBRANCH  22  23
ENDBRANCH  20  22
ENDBRANCH   4  20
TORSDOF 7
ENDMDL
MODEL 9
REMARK VINA RESULT:      -7.3      4.477      7.452
REMARK  7 active torsions:
REMARK  status: ('A' for Active; 'I' for Inactive)
REMARK    1  A    between atoms: C_5  and  O_6 
REMARK    2  A    between atoms: O_6  and  C_7 
REMARK    3  A    between atoms: C_7  and  C_8 
REMARK       I    between atoms: C_8  and  N_9 
REMARK    4  A    between atoms: N_9  and  C_10 
REMARK    5  A    between atoms: C_13  and  N_14 
REMARK    6  A    between atoms: N_14  and  C_15 
REMARK    7  A    between atoms: C_15  and  C_16 
ROOT
HETATM    1  C   UNL     1       5.994  27.867  52.167  1.00  0.00     0.034 A 
HETATM    2  C   UNL     1       6.073  26.602  51.589  1.00  0.00     0.031 A 
HETATM    3  C   UNL     1       5.184  26.230  50.571  1.00  0.00     0.026 A 
HETATM    4  C   UNL     1       4.209  27.115  50.104  1.00  0.00     0.008 A 
HETATM    5  C   UNL     1       4.145  28.388  50.674  1.00  0.00     0.026 A 
HETATM    6  C   UNL     1       5.011  28.751  51.712  1.00  0.00     0.031 A 
ENDROOT
BRANCH   1   7
HETATM    7  N   UNL     1       6.786  28.298  53.243  1.00  0.00    -0.325 N 
HETATM    8  C   UNL     1       6.934  27.841  54.521  1.00  0.00     0.246 C 
HETATM    9  O   UNL     1       7.509  28.578  55.332  1.00  0.00    -0.271 OA
HETATM   10  H   UNL     1       7.380  29.100  53.069  1.00  0.00     0.169 HD
BRANCH   8  11
HETATM   11  C   UNL     1       6.473  26.449  54.941  1.00  0.00     0.278 C 
BRANCH  11  12
HETATM   12  O   UNL     1       7.589  25.682  55.375  1.00  0.00    -0.342 OA
BRANCH  12  13
HETATM   13  C   UNL     1       7.682  24.402  54.910  1.00  0.00     0.069 A 
HETATM   14  C   UNL     1       7.903  24.292  53.537  1.00  0.00     0.037 A 
HETATM   15  C   UNL     1       8.032  23.040  52.934  1.00  0.00     0.009 A 
HETATM   16  C   UNL     1       7.932  21.876  53.701  1.00  0.00    -0.062 A 
HETATM   17  C   UNL     1       8.063  20.522  53.069  1.00  0.00     0.048 C 
HETATM   18  C   UNL     1       7.683  21.989  55.075  1.00  0.00     0.009 A 
HETATM   19  C   UNL     1       7.557  23.246  55.678  1.00  0.00     0.037 A 
ENDBRANCH  12  13
ENDBRANCH  11  12
ENDBRANCH   8  11
ENDBRANCH   1   7
BRANCH   4  20
HETATM   20  N   UNL     1       3.302  26.751  49.094  1.00  0.00    -0.289 NA
HETATM   21  H   UNL     1       3.202  25.741  49.033  1.00  0.00     0.128 HD
BRANCH  20  22
HETATM   22  C   UNL     1       3.593  27.330  47.782  1.00  0.00     0.132 C 
BRANCH  22  23
HETATM   23  C   UNL     1       2.331  27.909  47.204  1.00  0.00    -0.027 A 
HETATM   24  C   UNL     1       2.236  29.261  46.888  1.00  0.00     0.124 A 
HETATM   25  N   UNL     1       1.136  29.842  46.358  1.00  0.00    -0.273 NA
HETATM   26  C   UNL     1       0.077  29.037  46.126  1.00  0.00     0.116 A 
HETATM   27  C   UNL     1       0.069  27.678  46.397  1.00  0.00     0.020 A 
HETATM   28  C   UNL     1       1.215  27.109  46.942  1.00  0.00     0.011 A 
ENDBRANCH  22  23
ENDBRANCH  20  22
ENDBRANCH   4  20
TORSDOF 7
ENDMDL
MODEL 10
REMARK VINA RESULT:      -7.3      2.881      5.295
REMARK  7 active torsions:
REMARK  status: ('A' for Active; 'I' for Inactive)
REMARK    1  A    between atoms: C_5  and  O_6 
REMARK    2  A    between atoms: O_6  and  C_7 
REMARK    3  A    between atoms: C_7  and  C_8 
REMARK       I    between atoms: C_8  and  N_9 
REMARK    4  A    between atoms: N_9  and  C_10 
REMARK    5  A    between atoms: C_13  and  N_14 
REMARK    6  A    between atoms: N_14  and  C_15 
REMARK    7  A    between atoms: C_15  and  C_16 
ROOT
HETATM    1  C   UNL     1       4.968  27.599  53.558  1.00  0.00     0.034 A 
HETATM    2  C   UNL     1       4.667  26.314  53.114  1.00  0.00     0.031 A 
HETATM    3  C   UNL     1       5.662  25.328  53.064  1.00  0.00     0.026 A 
HETATM    4  C   UNL     1       6.972  25.602  53.466  1.00  0.00     0.008 A 
HETATM    5  C   UNL     1       7.265  26.888  53.926  1.00  0.00     0.026 A 
HETATM    6  C   UNL     1       6.281  27.882  53.948  1.00  0.00     0.031 A 
ENDROOT
BRANCH   1   7
HETATM    7  N   UNL     1       4.060  28.668  53.567  1.00  0.00    -0.325 N 
HETATM    8  C   UNL     1       3.891  29.744  52.743  1.00  0.00     0.246 C 
HETATM    9  O   UNL     1       3.173  30.669  53.143  1.00  0.00    -0.271 OA
HETATM   10  H   UNL     1       3.377  28.671  54.316  1.00  0.00     0.169 HD
BRANCH   8  11
HETATM   11  C   UNL     1       4.504  29.797  51.346  1.00  0.00     0.278 C 
BRANCH  11  12
HETATM   12  O   UNL     1       3.473  29.787  50.368  1.00  0.00    -0.342 OA
BRANCH  12  13
HETATM   13  C   UNL     1       3.280  28.624  49.679  1.00  0.00     0.069 A 
HETATM   14  C   UNL     1       4.341  27.719  49.749  1.00  0.00     0.037 A 
HETATM   15  C   UNL     1       4.267  26.485  49.101  1.00  0.00     0.009 A 
HETATM   16  C   UNL     1       3.130  26.143  48.364  1.00  0.00    -0.062 A 
HETATM   17  C   UNL     1       3.037  24.824  47.657  1.00  0.00     0.048 C 
HETATM   18  C   UNL     1       2.079  27.065  48.273  1.00  0.00     0.009 A 
HETATM   19  C   UNL     1       2.153  28.301  48.926  1.00  0.00     0.037 A 
ENDBRANCH  12  13
ENDBRANCH  11  12
ENDBRANCH   8  11
ENDBRANCH   1   7
BRANCH   4  20
HETATM   20  N   UNL     1       7.983  24.629  53.407  1.00  0.00    -0.289 NA
HETATM   21  H   UNL     1       8.843  25.012  53.022  1.00  0.00     0.128 HD
BRANCH  20  22
HETATM   22  C   UNL     1       7.600  23.399  52.715  1.00  0.00     0.132 C 
BRANCH  22  23
HETATM   23  C   UNL     1       7.918  22.217  53.589  1.00  0.00    -0.027 A 
HETATM   24  C   UNL     1       8.289  20.993  53.040  1.00  0.00     0.124 A 
HETATM   25  N   UNL     1       8.596  19.896  53.768  1.00  0.00    -0.273 NA
HETATM   26  C   UNL     1       8.536  20.022  55.111  1.00  0.00     0.116 A 
HETATM   27  C   UNL     1       8.184  21.195  55.758  1.00  0.00     0.020 A 
HETATM   28  C   UNL     1       7.873  22.308  54.983  1.00  0.00     0.011 A 
ENDBRANCH  22  23
ENDBRANCH  20  22
ENDBRANCH   4  20
TORSDOF 7
ENDMDL
