MODEL 1
REMARK VINA RESULT:     -10.0      0.000      0.000
REMARK  3 active torsions:
REMARK  status: ('A' for Active; 'I' for Inactive)
REMARK    1  A    between atoms: C_9  and  N_10 
REMARK       I    between atoms: N_10  and  C_11 
REMARK    2  A    between atoms: C_11  and  C_12 
REMARK    3  A    between atoms: N_14  and  C_15 
ROOT
HETATM    1  N   UNL     1       8.862  26.495  56.820  1.00  0.00    -0.322 N 
HETATM    2  C   UNL     1       7.938  27.394  57.314  1.00  0.00     0.276 C 
HETATM    3  O   UNL     1       6.740  27.230  57.491  1.00  0.00    -0.266 OA
HETATM    4  H   UNL     1       9.813  26.851  56.748  1.00  0.00     0.169 HD
ENDROOT
BRANCH   2   5
HETATM    5  C   UNL     1       8.567  28.722  57.726  1.00  0.00     0.145 A 
HETATM    6  N   UNL     1       8.104  29.318  58.779  1.00  0.00    -0.159 NA
HETATM    7  N   UNL     1       8.668  30.543  59.135  1.00  0.00    -0.197 N 
HETATM    8  C   UNL     1       9.673  31.162  58.371  1.00  0.00     0.268 A 
HETATM    9  O   UNL     1      10.226  32.239  58.579  1.00  0.00    -0.266 OA
HETATM   10  C   UNL     1      10.139  30.413  57.179  1.00  0.00     0.079 A 
HETATM   11  C   UNL     1       9.631  29.227  56.852  1.00  0.00     0.044 A 
BRANCH   7  12
HETATM   12  C   UNL     1       8.135  31.095  60.357  1.00  0.00     0.062 A 
HETATM   13  C   UNL     1       7.010  31.936  60.388  1.00  0.00     0.035 A 
HETATM   14  C   UNL     1       6.528  32.471  61.590  1.00  0.00     0.044 A 
HETATM   15  C   UNL     1       7.169  32.174  62.781  1.00  0.00     0.116 A 
HETATM   16  F   UNL     1       6.713  32.690  63.929  1.00  0.00    -0.206 F 
HETATM   17  C   UNL     1       8.280  31.345  62.794  1.00  0.00     0.044 A 
HETATM   18  C   UNL     1       8.755  30.808  61.592  1.00  0.00     0.035 A 
ENDBRANCH   7  12
ENDBRANCH   2   5
BRANCH   1  19
HETATM   19  C   UNL     1       8.627  25.162  56.432  1.00  0.00     0.035 A 
HETATM   20  C   UNL     1       8.420  24.775  55.104  1.00  0.00     0.039 A 
HETATM   21  C   UNL     1       8.177  23.438  54.824  1.00  0.00    -0.022 A 
HETATM   22  C   UNL     1       7.971  22.805  53.491  1.00  0.00     0.274 C 
HETATM   23  C   UNL     1       8.137  22.479  55.838  1.00  0.00    -0.025 A 
HETATM   24  N   UNL     1       7.522  21.384  53.808  1.00  0.00    -0.067 N 
HETATM   25  C   UNL     1       8.016  20.355  52.854  1.00  0.00     0.270 C 
HETATM   26  H   UNL     1       6.496  21.400  53.770  1.00  0.00     0.280 HD
HETATM   27  C   UNL     1       7.886  21.125  55.265  1.00  0.00     0.273 C 
HETATM   28  C   UNL     1       8.350  22.839  57.157  1.00  0.00     0.012 A 
HETATM   29  C   UNL     1       8.597  24.187  57.448  1.00  0.00     0.030 A 
ENDBRANCH   1  19
TORSDOF 3
ENDMDL
MODEL 2
REMARK VINA RESULT:      -9.8      3.856     10.030
REMARK  3 active torsions:
REMARK  status: ('A' for Active; 'I' for Inactive)
REMARK    1  A    between atoms: C_9  and  N_10 
REMARK       I    between atoms: N_10  and  C_11 
REMARK    2  A    between atoms: C_11  and  C_12 
REMARK    3  A    between atoms: N_14  and  C_15 
ROOT
HETATM    1  N   UNL     1       7.549  31.922  60.924  1.00  0.00    -0.322 N 
HETATM    2  C   UNL     1       8.472  30.897  60.870  1.00  0.00     0.276 C 
HETATM    3  O   UNL     1       8.873  30.189  61.782  1.00  0.00    -0.266 OA
HETATM    4  H   UNL     1       7.370  32.388  60.038  1.00  0.00     0.169 HD
ENDROOT
BRANCH   2   5
HETATM    5  C   UNL     1       8.975  30.628  59.455  1.00  0.00     0.145 A 
HETATM    6  N   UNL     1       8.462  29.632  58.803  1.00  0.00    -0.159 NA
HETATM    7  N   UNL     1       8.944  29.379  57.518  1.00  0.00    -0.197 N 
HETATM    8  C   UNL     1       9.983  30.128  56.940  1.00  0.00     0.268 A 
HETATM    9  O   UNL     1      10.494  29.984  55.832  1.00  0.00    -0.266 OA
HETATM   10  C   UNL     1      10.515  31.244  57.759  1.00  0.00     0.079 A 
HETATM   11  C   UNL     1      10.038  31.515  58.971  1.00  0.00     0.044 A 
BRANCH   7  12
HETATM   12  C   UNL     1       8.266  28.296  56.848  1.00  0.00     0.062 A 
HETATM   13  C   UNL     1       7.500  28.478  55.684  1.00  0.00     0.035 A 
HETATM   14  C   UNL     1       6.837  27.408  55.067  1.00  0.00     0.044 A 
HETATM   15  C   UNL     1       6.931  26.137  55.610  1.00  0.00     0.116 A 
HETATM   16  F   UNL     1       6.293  25.116  55.024  1.00  0.00    -0.206 F 
HETATM   17  C   UNL     1       7.680  25.914  56.754  1.00  0.00     0.044 A 
HETATM   18  C   UNL     1       8.344  26.984  57.364  1.00  0.00     0.035 A 
ENDBRANCH   7  12
ENDBRANCH   2   5
BRANCH   1  19
HETATM   19  C   UNL     1       6.836  32.363  62.055  1.00  0.00     0.035 A 
HETATM   20  C   UNL     1       7.455  32.792  63.234  1.00  0.00     0.039 A 
HETATM   21  C   UNL     1       6.665  33.191  64.302  1.00  0.00    -0.022 A 
HETATM   22  C   UNL     1       7.109  33.716  65.623  1.00  0.00     0.274 C 
HETATM   23  C   UNL     1       5.271  33.174  64.220  1.00  0.00    -0.025 A 
HETATM   24  N   UNL     1       5.838  33.765  66.463  1.00  0.00    -0.067 N 
HETATM   25  C   UNL     1       5.769  34.911  67.408  1.00  0.00     0.270 C 
HETATM   26  H   UNL     1       5.826  32.892  67.004  1.00  0.00     0.280 HD
HETATM   27  C   UNL     1       4.668  33.673  65.490  1.00  0.00     0.273 C 
HETATM   28  C   UNL     1       4.638  32.764  63.060  1.00  0.00     0.012 A 
HETATM   29  C   UNL     1       5.429  32.359  61.977  1.00  0.00     0.030 A 
ENDBRANCH   1  19
TORSDOF 3
ENDMDL
MODEL 3
REMARK VINA RESULT:      -9.7      1.911      2.597
REMARK  3 active torsions:
REMARK  status: ('A' for Active; 'I' for Inactive)
REMARK    1  A    between atoms: C_9  and  N_10 
REMARK       I    between atoms: N_10  and  C_11 
REMARK    2  A    between atoms: C_11  and  C_12 
REMARK    3  A    between atoms: N_14  and  C_15 
ROOT
HETATM    1  N   UNL     1       7.007  27.504  55.855  1.00  0.00    -0.322 N 
HETATM    2  C   UNL     1       7.702  28.078  56.901  1.00  0.00     0.276 C 
HETATM    3  O   UNL     1       8.690  27.651  57.481  1.00  0.00    -0.266 OA
HETATM    4  H   UNL     1       6.202  28.034  55.530  1.00  0.00     0.169 HD
ENDROOT
BRANCH   2   5
HETATM    5  C   UNL     1       7.150  29.444  57.297  1.00  0.00     0.145 A 
HETATM    6  N   UNL     1       7.437  29.902  58.475  1.00  0.00    -0.159 NA
HETATM    7  N   UNL     1       6.908  31.141  58.838  1.00  0.00    -0.197 N 
HETATM    8  C   UNL     1       6.052  31.873  57.997  1.00  0.00     0.268 A 
HETATM    9  O   UNL     1       5.519  32.957  58.218  1.00  0.00    -0.266 OA
HETATM   10  C   UNL     1       5.773  31.272  56.670  1.00  0.00     0.079 A 
HETATM   11  C   UNL     1       6.301  30.107  56.302  1.00  0.00     0.044 A 
BRANCH   7  12
HETATM   12  C   UNL     1       7.337  31.596  60.138  1.00  0.00     0.062 A 
HETATM   13  C   UNL     1       8.675  31.540  60.565  1.00  0.00     0.035 A 
HETATM   14  C   UNL     1       9.056  31.972  61.842  1.00  0.00     0.044 A 
HETATM   15  C   UNL     1       8.100  32.466  62.714  1.00  0.00     0.116 A 
HETATM   16  F   UNL     1       8.463  32.873  63.937  1.00  0.00    -0.206 F 
HETATM   17  C   UNL     1       6.771  32.542  62.331  1.00  0.00     0.044 A 
HETATM   18  C   UNL     1       6.395  32.115  61.053  1.00  0.00     0.035 A 
ENDBRANCH   7  12
ENDBRANCH   2   5
BRANCH   1  19
HETATM   19  C   UNL     1       7.307  26.294  55.200  1.00  0.00     0.035 A 
HETATM   20  C   UNL     1       7.447  25.073  55.870  1.00  0.00     0.039 A 
HETATM   21  C   UNL     1       7.761  23.938  55.137  1.00  0.00    -0.022 A 
HETATM   22  C   UNL     1       7.917  22.542  55.634  1.00  0.00     0.274 C 
HETATM   23  C   UNL     1       7.938  23.992  53.753  1.00  0.00    -0.025 A 
HETATM   24  N   UNL     1       8.485  21.773  54.447  1.00  0.00    -0.067 N 
HETATM   25  C   UNL     1       7.997  20.373  54.330  1.00  0.00     0.270 C 
HETATM   26  H   UNL     1       9.502  21.756  54.586  1.00  0.00     0.280 HD
HETATM   27  C   UNL     1       8.242  22.635  53.213  1.00  0.00     0.273 C 
HETATM   28  C   UNL     1       7.794  25.187  53.070  1.00  0.00     0.012 A 
HETATM   29  C   UNL     1       7.475  26.338  53.802  1.00  0.00     0.030 A 
ENDBRANCH   1  19
TORSDOF 3
ENDMDL
MODEL 4
REMARK VINA RESULT:      -9.6      2.199      2.646
REMARK  3 active torsions:
REMARK  status: ('A' for Active; 'I' for Inactive)
REMARK    1  A    between atoms: C_9  and  N_10 
REMARK       I    between atoms: N_10  and  C_11 
REMARK    2  A    between atoms: C_11  and  C_12 
REMARK    3  A    between atoms: N_14  and  C_15 
ROOT
HETATM    1  N   UNL     1       7.062  26.828  56.186  1.00  0.00    -0.322 N 
HETATM    2  C   UNL     1       5.848  27.299  56.647  1.00  0.00     0.276 C 
HETATM    3  O   UNL     1       4.841  26.662  56.917  1.00  0.00    -0.266 OA
HETATM    4  H   UNL     1       7.766  27.543  56.017  1.00  0.00     0.169 HD
ENDROOT
BRANCH   2   5
HETATM    5  C   UNL     1       5.850  28.806  56.883  1.00  0.00     0.145 A 
HETATM    6  N   UNL     1       6.671  29.287  57.763  1.00  0.00    -0.159 NA
HETATM    7  N   UNL     1       6.650  30.663  57.989  1.00  0.00    -0.197 N 
HETATM    8  C   UNL     1       5.747  31.522  57.338  1.00  0.00     0.268 A 
HETATM    9  O   UNL     1       5.629  32.737  57.471  1.00  0.00    -0.266 OA
HETATM   10  C   UNL     1       4.840  30.886  56.351  1.00  0.00     0.079 A 
HETATM   11  C   UNL     1       4.877  29.580  56.103  1.00  0.00     0.044 A 
BRANCH   7  12
HETATM   12  C   UNL     1       7.644  31.111  58.934  1.00  0.00     0.062 A 
HETATM   13  C   UNL     1       9.004  31.244  58.607  1.00  0.00     0.035 A 
HETATM   14  C   UNL     1       9.948  31.663  59.554  1.00  0.00     0.044 A 
HETATM   15  C   UNL     1       9.543  31.954  60.846  1.00  0.00     0.116 A 
HETATM   16  F   UNL     1      10.446  32.349  61.752  1.00  0.00    -0.206 F 
HETATM   17  C   UNL     1       8.211  31.840  61.208  1.00  0.00     0.044 A 
HETATM   18  C   UNL     1       7.270  31.426  60.258  1.00  0.00     0.035 A 
ENDBRANCH   7  12
ENDBRANCH   2   5
BRANCH   1  19
HETATM   19  C   UNL     1       7.417  25.486  55.949  1.00  0.00     0.035 A 
HETATM   20  C   UNL     1       7.209  24.843  54.725  1.00  0.00     0.039 A 
HETATM   21  C   UNL     1       7.577  23.511  54.594  1.00  0.00    -0.022 A 
HETATM   22  C   UNL     1       7.483  22.650  53.382  1.00  0.00     0.274 C 
HETATM   23  C   UNL     1       8.148  22.808  55.657  1.00  0.00    -0.025 A 
HETATM   24  N   UNL     1       7.804  21.247  53.883  1.00  0.00    -0.067 N 
HETATM   25  C   UNL     1       8.565  20.408  52.919  1.00  0.00     0.270 C 
HETATM   26  H   UNL     1       6.897  20.800  54.063  1.00  0.00     0.280 HD
HETATM   27  C   UNL     1       8.470  21.411  55.245  1.00  0.00     0.273 C 
HETATM   28  C   UNL     1       8.372  23.429  56.873  1.00  0.00     0.012 A 
HETATM   29  C   UNL     1       8.004  24.773  57.012  1.00  0.00     0.030 A 
ENDBRANCH   1  19
TORSDOF 3
ENDMDL
MODEL 5
REMARK VINA RESULT:      -9.2      3.843      9.855
REMARK  3 active torsions:
REMARK  status: ('A' for Active; 'I' for Inactive)
REMARK    1  A    between atoms: C_9  and  N_10 
REMARK       I    between atoms: N_10  and  C_11 
REMARK    2  A    between atoms: C_11  and  C_12 
REMARK    3  A    between atoms: N_14  and  C_15 
ROOT
HETATM    1  N   UNL     1       7.803  28.962  56.836  1.00  0.00    -0.322 N 
HETATM    2  C   UNL     1       7.671  27.590  56.920  1.00  0.00     0.276 C 
HETATM    3  O   UNL     1       7.612  26.894  57.923  1.00  0.00    -0.266 OA
HETATM    4  H   UNL     1       7.841  29.334  55.890  1.00  0.00     0.169 HD
ENDROOT
BRANCH   2   5
HETATM    5  C   UNL     1       7.529  26.925  55.554  1.00  0.00     0.145 A 
HETATM    6  N   UNL     1       7.863  25.678  55.443  1.00  0.00    -0.159 NA
HETATM    7  N   UNL     1       7.752  25.084  54.185  1.00  0.00    -0.197 N 
HETATM    8  C   UNL     1       7.342  25.798  53.046  1.00  0.00     0.268 A 
HETATM    9  O   UNL     1       7.226  25.386  51.896  1.00  0.00    -0.266 OA
HETATM   10  C   UNL     1       6.985  27.221  53.264  1.00  0.00     0.079 A 
HETATM   11  C   UNL     1       7.054  27.787  54.466  1.00  0.00     0.044 A 
BRANCH   7  12
HETATM   12  C   UNL     1       8.082  23.679  54.176  1.00  0.00     0.062 A 
HETATM   13  C   UNL     1       8.882  23.076  55.161  1.00  0.00     0.035 A 
HETATM   14  C   UNL     1       9.199  21.711  55.112  1.00  0.00     0.044 A 
HETATM   15  C   UNL     1       8.721  20.931  54.073  1.00  0.00     0.116 A 
HETATM   16  F   UNL     1       9.030  19.629  54.023  1.00  0.00    -0.206 F 
HETATM   17  C   UNL     1       7.926  21.487  53.084  1.00  0.00     0.044 A 
HETATM   18  C   UNL     1       7.606  22.848  53.139  1.00  0.00     0.035 A 
ENDBRANCH   7  12
ENDBRANCH   2   5
BRANCH   1  19
HETATM   19  C   UNL     1       7.871  29.875  57.905  1.00  0.00     0.035 A 
HETATM   20  C   UNL     1       6.773  30.619  58.350  1.00  0.00     0.039 A 
HETATM   21  C   UNL     1       6.945  31.508  59.401  1.00  0.00    -0.022 A 
HETATM   22  C   UNL     1       5.915  32.364  60.054  1.00  0.00     0.274 C 
HETATM   23  C   UNL     1       8.187  31.671  60.019  1.00  0.00    -0.025 A 
HETATM   24  N   UNL     1       6.709  33.287  60.971  1.00  0.00    -0.067 N 
HETATM   25  C   UNL     1       6.028  33.617  62.251  1.00  0.00     0.270 C 
HETATM   26  H   UNL     1       6.849  34.155  60.440  1.00  0.00     0.280 HD
HETATM   27  C   UNL     1       8.091  32.662  61.129  1.00  0.00     0.273 C 
HETATM   28  C   UNL     1       9.283  30.937  59.602  1.00  0.00     0.012 A 
HETATM   29  C   UNL     1       9.117  30.037  58.542  1.00  0.00     0.030 A 
ENDBRANCH   1  19
TORSDOF 3
ENDMDL
MODEL 6
REMARK VINA RESULT:      -9.1      3.922      9.619
REMARK  3 active torsions:
REMARK  status: ('A' for Active; 'I' for Inactive)
REMARK    1  A    between atoms: C_9  and  N_10 
REMARK       I    between atoms: N_10  and  C_11 
REMARK    2  A    between atoms: C_11  and  C_12 
REMARK    3  A    between atoms: N_14  and  C_15 
ROOT
HETATM    1  N   UNL     1       7.570  28.074  56.311  1.00  0.00    -0.322 N 
HETATM    2  C   UNL     1       6.223  27.799  56.185  1.00  0.00     0.276 C 
HETATM    3  O   UNL     1       5.289  28.276  56.813  1.00  0.00    -0.266 OA
HETATM    4  H   UNL     1       8.177  27.548  55.686  1.00  0.00     0.169 HD
ENDROOT
BRANCH   2   5
HETATM    5  C   UNL     1       5.924  26.809  55.063  1.00  0.00     0.145 A 
HETATM    6  N   UNL     1       6.570  25.686  55.050  1.00  0.00    -0.159 NA
HETATM    7  N   UNL     1       6.308  24.797  54.007  1.00  0.00    -0.197 N 
HETATM    8  C   UNL     1       5.415  25.097  52.964  1.00  0.00     0.268 A 
HETATM    9  O   UNL     1       5.123  24.403  51.994  1.00  0.00    -0.266 OA
HETATM   10  C   UNL     1       4.724  26.406  53.056  1.00  0.00     0.079 A 
HETATM   11  C   UNL     1       4.941  27.246  54.065  1.00  0.00     0.044 A 
BRANCH   7  12
HETATM   12  C   UNL     1       7.024  23.548  54.115  1.00  0.00     0.062 A 
HETATM   13  C   UNL     1       7.560  22.877  53.004  1.00  0.00     0.035 A 
HETATM   14  C   UNL     1       8.234  21.655  53.141  1.00  0.00     0.044 A 
HETATM   15  C   UNL     1       8.378  21.086  54.395  1.00  0.00     0.116 A 
HETATM   16  F   UNL     1       9.015  19.916  54.525  1.00  0.00    -0.206 F 
HETATM   17  C   UNL     1       7.867  21.718  55.517  1.00  0.00     0.044 A 
HETATM   18  C   UNL     1       7.200  22.940  55.377  1.00  0.00     0.035 A 
ENDBRANCH   7  12
ENDBRANCH   2   5
BRANCH   1  19
HETATM   19  C   UNL     1       8.169  28.999  57.186  1.00  0.00     0.035 A 
HETATM   20  C   UNL     1       7.519  29.528  58.306  1.00  0.00     0.039 A 
HETATM   21  C   UNL     1       8.188  30.449  59.099  1.00  0.00    -0.022 A 
HETATM   22  C   UNL     1       7.705  31.103  60.348  1.00  0.00     0.274 C 
HETATM   23  C   UNL     1       9.490  30.854  58.801  1.00  0.00    -0.025 A 
HETATM   24  N   UNL     1       8.748  32.174  60.647  1.00  0.00    -0.067 N 
HETATM   25  C   UNL     1       9.013  32.388  62.095  1.00  0.00     0.270 C 
HETATM   26  H   UNL     1       8.376  33.045  60.249  1.00  0.00     0.280 HD
HETATM   27  C   UNL     1       9.980  31.826  59.821  1.00  0.00     0.273 C 
HETATM   28  C   UNL     1      10.156  30.336  57.704  1.00  0.00     0.012 A 
HETATM   29  C   UNL     1       9.487  29.404  56.899  1.00  0.00     0.030 A 
ENDBRANCH   1  19
TORSDOF 3
ENDMDL
MODEL 7
REMARK VINA RESULT:      -8.8      5.872      8.965
REMARK  3 active torsions:
REMARK  status: ('A' for Active; 'I' for Inactive)
REMARK    1  A    between atoms: C_9  and  N_10 
REMARK       I    between atoms: N_10  and  C_11 
REMARK    2  A    between atoms: C_11  and  C_12 
REMARK    3  A    between atoms: N_14  and  C_15 
ROOT
HETATM    1  N   UNL     1       6.340  26.684  52.722  1.00  0.00    -0.322 N 
HETATM    2  C   UNL     1       6.292  27.273  53.970  1.00  0.00     0.276 C 
HETATM    3  O   UNL     1       5.677  28.271  54.315  1.00  0.00    -0.266 OA
HETATM    4  H   UNL     1       6.929  25.857  52.658  1.00  0.00     0.169 HD
ENDROOT
BRANCH   2   5
HETATM    5  C   UNL     1       7.082  26.497  55.020  1.00  0.00     0.145 A 
HETATM    6  N   UNL     1       7.321  25.242  54.802  1.00  0.00    -0.159 NA
HETATM    7  N   UNL     1       8.024  24.534  55.778  1.00  0.00    -0.197 N 
HETATM    8  C   UNL     1       8.431  25.120  56.990  1.00  0.00     0.268 A 
HETATM    9  O   UNL     1       9.035  24.592  57.920  1.00  0.00    -0.266 OA
HETATM   10  C   UNL     1       8.111  26.558  57.157  1.00  0.00     0.079 A 
HETATM   11  C   UNL     1       7.472  27.250  56.217  1.00  0.00     0.044 A 
BRANCH   7  12
HETATM   12  C   UNL     1       8.300  23.165  55.416  1.00  0.00     0.062 A 
HETATM   13  C   UNL     1       8.605  22.769  54.103  1.00  0.00     0.035 A 
HETATM   14  C   UNL     1       8.848  21.427  53.780  1.00  0.00     0.044 A 
HETATM   15  C   UNL     1       8.788  20.460  54.770  1.00  0.00     0.116 A 
HETATM   16  F   UNL     1       9.015  19.177  54.460  1.00  0.00    -0.206 F 
HETATM   17  C   UNL     1       8.495  20.810  56.078  1.00  0.00     0.044 A 
HETATM   18  C   UNL     1       8.257  22.151  56.397  1.00  0.00     0.035 A 
ENDBRANCH   7  12
ENDBRANCH   2   5
BRANCH   1  19
HETATM   19  C   UNL     1       5.657  27.098  51.562  1.00  0.00     0.035 A 
HETATM   20  C   UNL     1       4.984  26.214  50.712  1.00  0.00     0.039 A 
HETATM   21  C   UNL     1       4.355  26.716  49.582  1.00  0.00    -0.022 A 
HETATM   22  C   UNL     1       3.556  25.969  48.571  1.00  0.00     0.274 C 
HETATM   23  C   UNL     1       4.382  28.080  49.281  1.00  0.00    -0.025 A 
HETATM   24  N   UNL     1       3.316  26.975  47.452  1.00  0.00    -0.067 N 
HETATM   25  C   UNL     1       1.991  26.855  46.789  1.00  0.00     0.270 C 
HETATM   26  H   UNL     1       4.049  26.798  46.754  1.00  0.00     0.280 HD
HETATM   27  C   UNL     1       3.613  28.353  48.033  1.00  0.00     0.273 C 
HETATM   28  C   UNL     1       5.033  28.972  50.114  1.00  0.00     0.012 A 
HETATM   29  C   UNL     1       5.669  28.473  51.258  1.00  0.00     0.030 A 
ENDBRANCH   1  19
TORSDOF 3
ENDMDL
MODEL 8
REMARK VINA RESULT:      -8.8      8.088     14.289
REMARK  3 active torsions:
REMARK  status: ('A' for Active; 'I' for Inactive)
REMARK    1  A    between atoms: C_9  and  N_10 
REMARK       I    between atoms: N_10  and  C_11 
REMARK    2  A    between atoms: C_11  and  C_12 
REMARK    3  A    between atoms: N_14  and  C_15 
ROOT
HETATM    1  N   UNL     1       6.448  34.578  67.694  1.00  0.00    -0.322 N 
HETATM    2  C   UNL     1       5.172  34.099  67.473  1.00  0.00     0.276 C 
HETATM    3  O   UNL     1       4.329  33.776  68.297  1.00  0.00    -0.266 OA
HETATM    4  H   UNL     1       6.986  34.775  66.854  1.00  0.00     0.169 HD
ENDROOT
BRANCH   2   5
HETATM    5  C   UNL     1       4.810  34.045  65.992  1.00  0.00     0.145 A 
HETATM    6  N   UNL     1       5.683  33.560  65.166  1.00  0.00    -0.159 NA
HETATM    7  N   UNL     1       5.353  33.536  63.810  1.00  0.00    -0.197 N 
HETATM    8  C   UNL     1       4.143  34.057  63.318  1.00  0.00     0.268 A 
HETATM    9  O   UNL     1       3.759  34.104  62.152  1.00  0.00    -0.266 OA
HETATM   10  C   UNL     1       3.206  34.597  64.332  1.00  0.00     0.079 A 
HETATM   11  C   UNL     1       3.497  34.592  65.631  1.00  0.00     0.044 A 
BRANCH   7  12
HETATM   12  C   UNL     1       6.357  32.918  62.979  1.00  0.00     0.062 A 
HETATM   13  C   UNL     1       6.115  32.526  61.652  1.00  0.00     0.035 A 
HETATM   14  C   UNL     1       7.107  31.909  60.877  1.00  0.00     0.044 A 
HETATM   15  C   UNL     1       8.358  31.674  61.423  1.00  0.00     0.116 A 
HETATM   16  F   UNL     1       9.304  31.079  60.685  1.00  0.00    -0.206 F 
HETATM   17  C   UNL     1       8.639  32.049  62.727  1.00  0.00     0.044 A 
HETATM   18  C   UNL     1       7.647  32.669  63.496  1.00  0.00     0.035 A 
ENDBRANCH   7  12
ENDBRANCH   2   5
BRANCH   1  19
HETATM   19  C   UNL     1       7.057  34.828  68.939  1.00  0.00     0.035 A 
HETATM   20  C   UNL     1       7.353  36.113  69.404  1.00  0.00     0.039 A 
HETATM   21  C   UNL     1       7.970  36.256  70.638  1.00  0.00    -0.022 A 
HETATM   22  C   UNL     1       8.337  37.519  71.337  1.00  0.00     0.274 C 
HETATM   23  C   UNL     1       8.298  35.146  71.419  1.00  0.00    -0.025 A 
HETATM   24  N   UNL     1       9.184  37.070  72.522  1.00  0.00    -0.067 N 
HETATM   25  C   UNL     1       8.999  37.882  73.754  1.00  0.00     0.270 C 
HETATM   26  H   UNL     1      10.160  37.155  72.216  1.00  0.00     0.280 HD
HETATM   27  C   UNL     1       8.926  35.578  72.701  1.00  0.00     0.273 C 
HETATM   28  C   UNL     1       8.004  33.866  70.983  1.00  0.00     0.012 A 
HETATM   29  C   UNL     1       7.380  33.714  69.738  1.00  0.00     0.030 A 
ENDBRANCH   1  19
TORSDOF 3
ENDMDL
MODEL 9
REMARK VINA RESULT:      -8.7      4.933      6.576
REMARK  3 active torsions:
REMARK  status: ('A' for Active; 'I' for Inactive)
REMARK    1  A    between atoms: C_9  and  N_10 
REMARK       I    between atoms: N_10  and  C_11 
REMARK    2  A    between atoms: C_11  and  C_12 
REMARK    3  A    between atoms: N_14  and  C_15 
ROOT
HETATM    1  N   UNL     1       5.876  26.657  52.934  1.00  0.00    -0.322 N 
HETATM    2  C   UNL     1       7.094  26.089  53.253  1.00  0.00     0.276 C 
HETATM    3  O   UNL     1       7.964  25.686  52.496  1.00  0.00    -0.266 OA
HETATM    4  H   UNL     1       5.298  26.914  53.732  1.00  0.00     0.169 HD
ENDROOT
BRANCH   2   5
HETATM    5  C   UNL     1       7.348  26.041  54.757  1.00  0.00     0.145 A 
HETATM    6  N   UNL     1       7.801  27.109  55.336  1.00  0.00    -0.159 NA
HETATM    7  N   UNL     1       8.053  27.048  56.707  1.00  0.00    -0.197 N 
HETATM    8  C   UNL     1       7.878  25.872  57.456  1.00  0.00     0.268 A 
HETATM    9  O   UNL     1       8.083  25.701  58.655  1.00  0.00    -0.266 OA
HETATM   10  C   UNL     1       7.362  24.697  56.712  1.00  0.00     0.079 A 
HETATM   11  C   UNL     1       7.086  24.755  55.412  1.00  0.00     0.044 A 
BRANCH   7  12
HETATM   12  C   UNL     1       8.489  28.302  57.272  1.00  0.00     0.062 A 
HETATM   13  C   UNL     1       7.703  29.053  58.163  1.00  0.00     0.035 A 
HETATM   14  C   UNL     1       8.148  30.278  58.679  1.00  0.00     0.044 A 
HETATM   15  C   UNL     1       9.388  30.770  58.308  1.00  0.00     0.116 A 
HETATM   16  F   UNL     1       9.810  31.943  58.796  1.00  0.00    -0.206 F 
HETATM   17  C   UNL     1      10.195  30.059  57.435  1.00  0.00     0.044 A 
HETATM   18  C   UNL     1       9.750  28.834  56.925  1.00  0.00     0.035 A 
ENDBRANCH   7  12
ENDBRANCH   2   5
BRANCH   1  19
HETATM   19  C   UNL     1       5.376  26.925  51.646  1.00  0.00     0.035 A 
HETATM   20  C   UNL     1       4.732  25.964  50.859  1.00  0.00     0.039 A 
HETATM   21  C   UNL     1       4.289  26.320  49.592  1.00  0.00    -0.022 A 
HETATM   22  C   UNL     1       3.552  25.477  48.610  1.00  0.00     0.274 C 
HETATM   23  C   UNL     1       4.474  27.612  49.095  1.00  0.00    -0.025 A 
HETATM   24  N   UNL     1       3.538  26.303  47.330  1.00  0.00    -0.067 N 
HETATM   25  C   UNL     1       2.295  26.171  46.525  1.00  0.00     0.270 C 
HETATM   26  H   UNL     1       4.330  25.965  46.770  1.00  0.00     0.280 HD
HETATM   27  C   UNL     1       3.886  27.733  47.730  1.00  0.00     0.273 C 
HETATM   28  C   UNL     1       5.099  28.580  49.861  1.00  0.00     0.012 A 
HETATM   29  C   UNL     1       5.548  28.228  51.141  1.00  0.00     0.030 A 
ENDBRANCH   1  19
TORSDOF 3
ENDMDL
MODEL 10
REMARK VINA RESULT:      -8.7      5.520      6.942
REMARK  3 active torsions:
REMARK  status: ('A' for Active; 'I' for Inactive)
REMARK    1  A    between atoms: C_9  and  N_10 
REMARK       I    between atoms: N_10  and  C_11 
REMARK    2  A    between atoms: C_11  and  C_12 
REMARK    3  A    between atoms: N_14  and  C_15 
ROOT
HETATM    1  N   UNL     1       5.957  27.511  52.821  1.00  0.00    -0.322 N 
HETATM    2  C   UNL     1       5.205  27.631  53.973  1.00  0.00     0.276 C 
HETATM    3  O   UNL     1       4.032  27.957  54.082  1.00  0.00    -0.266 OA
HETATM    4  H   UNL     1       6.925  27.233  52.966  1.00  0.00     0.169 HD
ENDROOT
BRANCH   2   5
HETATM    5  C   UNL     1       5.979  27.237  55.228  1.00  0.00     0.145 A 
HETATM    6  N   UNL     1       6.767  28.117  55.762  1.00  0.00    -0.159 NA
HETATM    7  N   UNL     1       7.488  27.740  56.895  1.00  0.00    -0.197 N 
HETATM    8  C   UNL     1       7.423  26.444  57.437  1.00  0.00     0.268 A 
HETATM    9  O   UNL     1       8.022  26.001  58.413  1.00  0.00    -0.266 OA
HETATM   10  C   UNL     1       6.500  25.501  56.759  1.00  0.00     0.079 A 
HETATM   11  C   UNL     1       5.782  25.862  55.699  1.00  0.00     0.044 A 
BRANCH   7  12
HETATM   12  C   UNL     1       8.284  28.805  57.456  1.00  0.00     0.062 A 
HETATM   13  C   UNL     1       7.840  29.615  58.514  1.00  0.00     0.035 A 
HETATM   14  C   UNL     1       8.630  30.654  59.023  1.00  0.00     0.044 A 
HETATM   15  C   UNL     1       9.879  30.899  58.477  1.00  0.00     0.116 A 
HETATM   16  F   UNL     1      10.631  31.896  58.960  1.00  0.00    -0.206 F 
HETATM   17  C   UNL     1      10.356  30.121  57.435  1.00  0.00     0.044 A 
HETATM   18  C   UNL     1       9.566  29.080  56.933  1.00  0.00     0.035 A 
ENDBRANCH   7  12
ENDBRANCH   2   5
BRANCH   1  19
HETATM   19  C   UNL     1       5.522  27.715  51.498  1.00  0.00     0.035 A 
HETATM   20  C   UNL     1       5.373  28.982  50.926  1.00  0.00     0.039 A 
HETATM   21  C   UNL     1       4.920  29.080  49.618  1.00  0.00    -0.022 A 
HETATM   22  C   UNL     1       4.727  30.315  48.806  1.00  0.00     0.274 C 
HETATM   23  C   UNL     1       4.612  27.943  48.868  1.00  0.00    -0.025 A 
HETATM   24  N   UNL     1       4.001  29.840  47.553  1.00  0.00    -0.067 N 
HETATM   25  C   UNL     1       4.388  30.556  46.309  1.00  0.00     0.270 C 
HETATM   26  H   UNL     1       3.003  30.005  47.730  1.00  0.00     0.280 HD
HETATM   27  C   UNL     1       4.175  28.327  47.495  1.00  0.00     0.273 C 
HETATM   28  C   UNL     1       4.763  26.679  49.412  1.00  0.00     0.012 A 
HETATM   29  C   UNL     1       5.221  26.572  50.731  1.00  0.00     0.030 A 
ENDBRANCH   1  19
TORSDOF 3
ENDMDL
