MODEL 1
REMARK VINA RESULT:     -10.1      0.000      0.000
REMARK  3 active torsions:
REMARK  status: ('A' for Active; 'I' for Inactive)
REMARK    1  A    between atoms: N_4  and  C_5 
REMARK    2  A    between atoms: C_15  and  C_16 
REMARK       I    between atoms: C_16  and  N_17 
REMARK    3  A    between atoms: N_17  and  C_18 
ROOT
HETATM    1  C   UNL     1       4.248  29.480  54.478  1.00  0.00     0.073 C 
HETATM    2  C   UNL     1       5.350  28.541  54.801  1.00  0.00     0.069 A 
HETATM    3  N   UNL     1       5.427  27.350  54.192  1.00  0.00    -0.170 NA
HETATM    4  N   UNL     1       6.570  26.768  54.669  1.00  0.00    -0.216 N 
HETATM    5  C   UNL     1       7.115  27.549  55.677  1.00  0.00     0.145 A 
HETATM    6  C   UNL     1       6.375  28.705  55.750  1.00  0.00     0.087 A 
HETATM    7  N   UNL     1       8.141  27.289  56.524  1.00  0.00    -0.349 N 
HETATM    8  C   UNL     1       8.450  28.236  57.486  1.00  0.00     0.111 A 
HETATM    9  C   UNL     1       7.825  29.427  57.631  1.00  0.00     0.098 A 
HETATM   10  C   UNL     1       6.686  29.750  56.702  1.00  0.00     0.205 A 
HETATM   11  O   UNL     1       6.071  30.811  56.768  1.00  0.00    -0.286 OA
HETATM   12  H   UNL     1       8.548  26.364  56.656  1.00  0.00     0.167 HD
ENDROOT
BRANCH   9  13
HETATM   13  C   UNL     1       8.290  30.340  58.725  1.00  0.00     0.261 C 
HETATM   14  N   UNL     1       7.328  30.628  59.670  1.00  0.00    -0.320 N 
HETATM   15  H   UNL     1       6.389  30.277  59.477  1.00  0.00     0.169 HD
HETATM   16  O   UNL     1       9.434  30.779  58.694  1.00  0.00    -0.267 OA
BRANCH  14  17
HETATM   17  C   UNL     1       7.442  31.400  60.849  1.00  0.00     0.073 A 
HETATM   18  C   UNL     1       8.298  31.151  61.928  1.00  0.00     0.143 A 
HETATM   19  F   UNL     1       9.094  30.076  61.980  1.00  0.00    -0.204 F 
HETATM   20  C   UNL     1       8.317  31.995  63.042  1.00  0.00     0.044 A 
HETATM   21  C   UNL     1       7.471  33.098  63.104  1.00  0.00     0.003 A 
HETATM   22  C   UNL     1       6.598  33.352  62.051  1.00  0.00     0.002 A 
HETATM   23  C   UNL     1       6.581  32.508  60.936  1.00  0.00     0.033 A 
ENDBRANCH  14  17
ENDBRANCH   9  13
BRANCH   4  24
HETATM   24  C   UNL     1       7.027  25.541  54.109  1.00  0.00     0.060 A 
HETATM   25  C   UNL     1       7.025  24.348  54.843  1.00  0.00     0.031 A 
HETATM   26  C   UNL     1       7.479  23.162  54.255  1.00  0.00     0.002 A 
HETATM   27  C   UNL     1       7.945  23.162  52.941  1.00  0.00     0.000 A 
HETATM   28  C   UNL     1       7.975  24.349  52.214  1.00  0.00     0.002 A 
HETATM   29  C   UNL     1       7.527  25.537  52.796  1.00  0.00     0.031 A 
ENDBRANCH   4  24
TORSDOF 3
ENDMDL
MODEL 2
REMARK VINA RESULT:      -9.8      2.329      3.483
REMARK  3 active torsions:
REMARK  status: ('A' for Active; 'I' for Inactive)
REMARK    1  A    between atoms: N_4  and  C_5 
REMARK    2  A    between atoms: C_15  and  C_16 
REMARK       I    between atoms: C_16  and  N_17 
REMARK    3  A    between atoms: N_17  and  C_18 
ROOT
HETATM    1  C   UNL     1       5.186  25.974  51.885  1.00  0.00     0.073 C 
HETATM    2  C   UNL     1       6.014  25.348  52.945  1.00  0.00     0.069 A 
HETATM    3  N   UNL     1       6.220  24.024  52.952  1.00  0.00    -0.170 NA
HETATM    4  N   UNL     1       7.056  23.789  54.009  1.00  0.00    -0.216 N 
HETATM    5  C   UNL     1       7.245  24.957  54.733  1.00  0.00     0.145 A 
HETATM    6  C   UNL     1       6.622  25.973  54.048  1.00  0.00     0.087 A 
HETATM    7  N   UNL     1       7.860  25.155  55.925  1.00  0.00    -0.349 N 
HETATM    8  C   UNL     1       7.860  26.435  56.455  1.00  0.00     0.111 A 
HETATM    9  C   UNL     1       7.320  27.521  55.859  1.00  0.00     0.098 A 
HETATM   10  C   UNL     1       6.636  27.338  54.531  1.00  0.00     0.205 A 
HETATM   11  O   UNL     1       6.123  28.275  53.925  1.00  0.00    -0.286 OA
HETATM   12  H   UNL     1       8.117  24.403  56.563  1.00  0.00     0.167 HD
ENDROOT
BRANCH   9  13
HETATM   13  C   UNL     1       7.412  28.837  56.571  1.00  0.00     0.261 C 
HETATM   14  N   UNL     1       8.420  28.905  57.509  1.00  0.00    -0.320 N 
HETATM   15  H   UNL     1       8.925  28.037  57.689  1.00  0.00     0.169 HD
HETATM   16  O   UNL     1       6.601  29.718  56.309  1.00  0.00    -0.267 OA
BRANCH  14  17
HETATM   17  C   UNL     1       8.817  30.000  58.311  1.00  0.00     0.073 A 
HETATM   18  C   UNL     1       9.874  30.880  58.054  1.00  0.00     0.143 A 
HETATM   19  F   UNL     1      10.691  30.734  57.004  1.00  0.00    -0.204 F 
HETATM   20  C   UNL     1      10.166  31.930  58.929  1.00  0.00     0.044 A 
HETATM   21  C   UNL     1       9.413  32.113  60.085  1.00  0.00     0.003 A 
HETATM   22  C   UNL     1       8.369  31.239  60.369  1.00  0.00     0.002 A 
HETATM   23  C   UNL     1       8.078  30.189  59.491  1.00  0.00     0.033 A 
ENDBRANCH  14  17
ENDBRANCH   9  13
BRANCH   4  24
HETATM   24  C   UNL     1       7.594  22.487  54.212  1.00  0.00     0.060 A 
HETATM   25  C   UNL     1       7.625  21.889  55.478  1.00  0.00     0.031 A 
HETATM   26  C   UNL     1       8.158  20.604  55.636  1.00  0.00     0.002 A 
HETATM   27  C   UNL     1       8.671  19.917  54.537  1.00  0.00     0.000 A 
HETATM   28  C   UNL     1       8.668  20.514  53.279  1.00  0.00     0.002 A 
HETATM   29  C   UNL     1       8.141  21.798  53.116  1.00  0.00     0.031 A 
ENDBRANCH   4  24
TORSDOF 3
ENDMDL
MODEL 3
REMARK VINA RESULT:      -9.7      1.061      1.683
REMARK  3 active torsions:
REMARK  status: ('A' for Active; 'I' for Inactive)
REMARK    1  A    between atoms: N_4  and  C_5 
REMARK    2  A    between atoms: C_15  and  C_16 
REMARK       I    between atoms: C_16  and  N_17 
REMARK    3  A    between atoms: N_17  and  C_18 
ROOT
HETATM    1  C   UNL     1       4.004  29.562  54.395  1.00  0.00     0.073 C 
HETATM    2  C   UNL     1       5.161  28.708  54.759  1.00  0.00     0.069 A 
HETATM    3  N   UNL     1       5.318  27.502  54.196  1.00  0.00    -0.170 NA
HETATM    4  N   UNL     1       6.492  27.013  54.700  1.00  0.00    -0.216 N 
HETATM    5  C   UNL     1       6.979  27.864  55.681  1.00  0.00     0.145 A 
HETATM    6  C   UNL     1       6.167  28.972  55.706  1.00  0.00     0.087 A 
HETATM    7  N   UNL     1       8.013  27.702  56.542  1.00  0.00    -0.349 N 
HETATM    8  C   UNL     1       8.254  28.703  57.469  1.00  0.00     0.111 A 
HETATM    9  C   UNL     1       7.554  29.856  57.565  1.00  0.00     0.098 A 
HETATM   10  C   UNL     1       6.403  30.071  56.619  1.00  0.00     0.205 A 
HETATM   11  O   UNL     1       5.721  31.092  56.642  1.00  0.00    -0.286 OA
HETATM   12  H   UNL     1       8.477  26.811  56.711  1.00  0.00     0.167 HD
ENDROOT
BRANCH   9  13
HETATM   13  C   UNL     1       7.950  30.837  58.627  1.00  0.00     0.261 C 
HETATM   14  N   UNL     1       7.067  30.920  59.681  1.00  0.00    -0.320 N 
HETATM   15  H   UNL     1       6.201  30.389  59.585  1.00  0.00     0.169 HD
HETATM   16  O   UNL     1       8.973  31.497  58.480  1.00  0.00    -0.267 OA
BRANCH  14  17
HETATM   17  C   UNL     1       7.161  31.692  60.862  1.00  0.00     0.073 A 
HETATM   18  C   UNL     1       6.445  32.859  61.153  1.00  0.00     0.143 A 
HETATM   19  F   UNL     1       5.599  33.420  60.280  1.00  0.00    -0.204 F 
HETATM   20  C   UNL     1       6.628  33.534  62.364  1.00  0.00     0.044 A 
HETATM   21  C   UNL     1       7.540  33.061  63.302  1.00  0.00     0.003 A 
HETATM   22  C   UNL     1       8.277  31.914  63.025  1.00  0.00     0.002 A 
HETATM   23  C   UNL     1       8.091  31.239  61.813  1.00  0.00     0.033 A 
ENDBRANCH  14  17
ENDBRANCH   9  13
BRANCH   4  24
HETATM   24  C   UNL     1       7.032  25.798  54.190  1.00  0.00     0.060 A 
HETATM   25  C   UNL     1       7.554  25.709  52.893  1.00  0.00     0.031 A 
HETATM   26  C   UNL     1       8.080  24.497  52.430  1.00  0.00     0.002 A 
HETATM   27  C   UNL     1       8.078  23.371  53.250  1.00  0.00     0.000 A 
HETATM   28  C   UNL     1       7.536  23.444  54.531  1.00  0.00     0.002 A 
HETATM   29  C   UNL     1       7.006  24.649  54.998  1.00  0.00     0.031 A 
ENDBRANCH   4  24
TORSDOF 3
ENDMDL
MODEL 4
REMARK VINA RESULT:      -9.6      5.902      8.947
REMARK  3 active torsions:
REMARK  status: ('A' for Active; 'I' for Inactive)
REMARK    1  A    between atoms: N_4  and  C_5 
REMARK    2  A    between atoms: C_15  and  C_16 
REMARK       I    between atoms: C_16  and  N_17 
REMARK    3  A    between atoms: N_17  and  C_18 
ROOT
HETATM    1  C   UNL     1       5.340  26.181  56.762  1.00  0.00     0.073 C 
HETATM    2  C   UNL     1       5.869  25.401  55.616  1.00  0.00     0.069 A 
HETATM    3  N   UNL     1       6.588  24.290  55.826  1.00  0.00    -0.170 NA
HETATM    4  N   UNL     1       6.866  23.794  54.581  1.00  0.00    -0.216 N 
HETATM    5  C   UNL     1       6.434  24.683  53.608  1.00  0.00     0.145 A 
HETATM    6  C   UNL     1       5.759  25.696  54.245  1.00  0.00     0.087 A 
HETATM    7  N   UNL     1       6.637  24.675  52.268  1.00  0.00    -0.349 N 
HETATM    8  C   UNL     1       6.131  25.729  51.525  1.00  0.00     0.111 A 
HETATM    9  C   UNL     1       5.415  26.760  52.029  1.00  0.00     0.098 A 
HETATM   10  C   UNL     1       5.165  26.795  53.512  1.00  0.00     0.205 A 
HETATM   11  O   UNL     1       4.522  27.695  54.045  1.00  0.00    -0.286 OA
HETATM   12  H   UNL     1       7.323  24.084  51.800  1.00  0.00     0.167 HD
ENDROOT
BRANCH   9  13
HETATM   13  C   UNL     1       4.937  27.818  51.081  1.00  0.00     0.261 C 
HETATM   14  N   UNL     1       3.889  27.426  50.275  1.00  0.00    -0.320 N 
HETATM   15  H   UNL     1       3.618  26.445  50.336  1.00  0.00     0.169 HD
HETATM   16  O   UNL     1       5.504  28.904  51.061  1.00  0.00    -0.267 OA
BRANCH  14  17
HETATM   17  C   UNL     1       3.170  28.183  49.321  1.00  0.00     0.073 A 
HETATM   18  C   UNL     1       3.465  28.301  47.958  1.00  0.00     0.143 A 
HETATM   19  F   UNL     1       4.540  27.728  47.403  1.00  0.00    -0.204 F 
HETATM   20  C   UNL     1       2.671  29.083  47.114  1.00  0.00     0.044 A 
HETATM   21  C   UNL     1       1.573  29.772  47.620  1.00  0.00     0.003 A 
HETATM   22  C   UNL     1       1.274  29.685  48.976  1.00  0.00     0.002 A 
HETATM   23  C   UNL     1       2.068  28.900  49.818  1.00  0.00     0.033 A 
ENDBRANCH  14  17
ENDBRANCH   9  13
BRANCH   4  24
HETATM   24  C   UNL     1       7.500  22.526  54.449  1.00  0.00     0.060 A 
HETATM   25  C   UNL     1       7.914  22.033  53.205  1.00  0.00     0.031 A 
HETATM   26  C   UNL     1       8.538  20.783  53.118  1.00  0.00     0.002 A 
HETATM   27  C   UNL     1       8.742  20.017  54.265  1.00  0.00     0.000 A 
HETATM   28  C   UNL     1       8.311  20.489  55.502  1.00  0.00     0.002 A 
HETATM   29  C   UNL     1       7.683  21.734  55.595  1.00  0.00     0.031 A 
ENDBRANCH   4  24
TORSDOF 3
ENDMDL
MODEL 5
REMARK VINA RESULT:      -9.5      2.633      8.538
REMARK  3 active torsions:
REMARK  status: ('A' for Active; 'I' for Inactive)
REMARK    1  A    between atoms: N_4  and  C_5 
REMARK    2  A    between atoms: C_15  and  C_16 
REMARK       I    between atoms: C_16  and  N_17 
REMARK    3  A    between atoms: N_17  and  C_18 
ROOT
HETATM    1  C   UNL     1       4.741  32.783  56.211  1.00  0.00     0.073 C 
HETATM    2  C   UNL     1       5.568  31.977  57.142  1.00  0.00     0.069 A 
HETATM    3  N   UNL     1       6.143  32.550  58.208  1.00  0.00    -0.170 NA
HETATM    4  N   UNL     1       6.774  31.535  58.874  1.00  0.00    -0.216 N 
HETATM    5  C   UNL     1       6.701  30.364  58.133  1.00  0.00     0.145 A 
HETATM    6  C   UNL     1       5.901  30.614  57.044  1.00  0.00     0.087 A 
HETATM    7  N   UNL     1       7.310  29.170  58.329  1.00  0.00    -0.349 N 
HETATM    8  C   UNL     1       7.102  28.170  57.393  1.00  0.00     0.111 A 
HETATM    9  C   UNL     1       6.306  28.279  56.305  1.00  0.00     0.098 A 
HETATM   10  C   UNL     1       5.609  29.591  56.062  1.00  0.00     0.205 A 
HETATM   11  O   UNL     1       4.868  29.768  55.099  1.00  0.00    -0.286 OA
HETATM   12  H   UNL     1       8.083  29.025  58.977  1.00  0.00     0.167 HD
ENDROOT
BRANCH   9  13
HETATM   13  C   UNL     1       6.188  27.095  55.394  1.00  0.00     0.261 C 
HETATM   14  N   UNL     1       7.301  26.282  55.374  1.00  0.00    -0.320 N 
HETATM   15  H   UNL     1       8.111  26.616  55.895  1.00  0.00     0.169 HD
HETATM   16  O   UNL     1       5.169  26.950  54.729  1.00  0.00    -0.267 OA
BRANCH  14  17
HETATM   17  C   UNL     1       7.503  25.068  54.677  1.00  0.00     0.073 A 
HETATM   18  C   UNL     1       7.809  24.928  53.319  1.00  0.00     0.143 A 
HETATM   19  F   UNL     1       7.890  25.976  52.489  1.00  0.00    -0.204 F 
HETATM   20  C   UNL     1       7.987  23.666  52.746  1.00  0.00     0.044 A 
HETATM   21  C   UNL     1       7.851  22.517  53.520  1.00  0.00     0.003 A 
HETATM   22  C   UNL     1       7.529  22.632  54.868  1.00  0.00     0.002 A 
HETATM   23  C   UNL     1       7.352  23.896  55.439  1.00  0.00     0.033 A 
ENDBRANCH  14  17
ENDBRANCH   9  13
BRANCH   4  24
HETATM   24  C   UNL     1       7.367  31.781  60.145  1.00  0.00     0.060 A 
HETATM   25  C   UNL     1       6.598  32.118  61.266  1.00  0.00     0.031 A 
HETATM   26  C   UNL     1       7.219  32.348  62.499  1.00  0.00     0.002 A 
HETATM   27  C   UNL     1       8.604  32.254  62.618  1.00  0.00     0.000 A 
HETATM   28  C   UNL     1       9.378  31.944  61.502  1.00  0.00     0.002 A 
HETATM   29  C   UNL     1       8.765  31.718  60.267  1.00  0.00     0.031 A 
ENDBRANCH   4  24
TORSDOF 3
ENDMDL
MODEL 6
REMARK VINA RESULT:      -9.5      2.642      8.886
REMARK  3 active torsions:
REMARK  status: ('A' for Active; 'I' for Inactive)
REMARK    1  A    between atoms: N_4  and  C_5 
REMARK    2  A    between atoms: C_15  and  C_16 
REMARK       I    between atoms: C_16  and  N_17 
REMARK    3  A    between atoms: N_17  and  C_18 
ROOT
HETATM    1  C   UNL     1      10.544  30.844  57.741  1.00  0.00     0.073 C 
HETATM    2  C   UNL     1       9.099  30.872  58.080  1.00  0.00     0.069 A 
HETATM    3  N   UNL     1       8.640  31.705  59.023  1.00  0.00    -0.170 NA
HETATM    4  N   UNL     1       7.284  31.521  59.045  1.00  0.00    -0.216 N 
HETATM    5  C   UNL     1       6.934  30.469  58.210  1.00  0.00     0.145 A 
HETATM    6  C   UNL     1       8.073  30.068  57.553  1.00  0.00     0.087 A 
HETATM    7  N   UNL     1       5.742  29.847  58.045  1.00  0.00    -0.349 N 
HETATM    8  C   UNL     1       5.682  28.774  57.170  1.00  0.00     0.111 A 
HETATM    9  C   UNL     1       6.719  28.312  56.436  1.00  0.00     0.098 A 
HETATM   10  C   UNL     1       8.056  28.986  56.591  1.00  0.00     0.205 A 
HETATM   11  O   UNL     1       9.045  28.627  55.958  1.00  0.00    -0.286 OA
HETATM   12  H   UNL     1       4.951  29.957  58.677  1.00  0.00     0.167 HD
ENDROOT
BRANCH   9  13
HETATM   13  C   UNL     1       6.479  27.140  55.534  1.00  0.00     0.261 C 
HETATM   14  N   UNL     1       7.523  26.241  55.482  1.00  0.00    -0.320 N 
HETATM   15  H   UNL     1       8.374  26.511  55.976  1.00  0.00     0.169 HD
HETATM   16  O   UNL     1       5.431  27.075  54.902  1.00  0.00    -0.267 OA
BRANCH  14  17
HETATM   17  C   UNL     1       7.607  25.014  54.784  1.00  0.00     0.073 A 
HETATM   18  C   UNL     1       7.857  24.849  53.417  1.00  0.00     0.143 A 
HETATM   19  F   UNL     1       7.994  25.886  52.581  1.00  0.00    -0.204 F 
HETATM   20  C   UNL     1       7.917  23.575  52.844  1.00  0.00     0.044 A 
HETATM   21  C   UNL     1       7.715  22.442  53.626  1.00  0.00     0.003 A 
HETATM   22  C   UNL     1       7.446  22.584  54.983  1.00  0.00     0.002 A 
HETATM   23  C   UNL     1       7.388  23.859  55.555  1.00  0.00     0.033 A 
ENDBRANCH  14  17
ENDBRANCH   9  13
BRANCH   4  24
HETATM   24  C   UNL     1       6.466  32.368  59.845  1.00  0.00     0.060 A 
HETATM   25  C   UNL     1       5.327  32.998  59.328  1.00  0.00     0.031 A 
HETATM   26  C   UNL     1       4.546  33.820  60.148  1.00  0.00     0.002 A 
HETATM   27  C   UNL     1       4.901  34.026  61.480  1.00  0.00     0.000 A 
HETATM   28  C   UNL     1       6.047  33.424  61.995  1.00  0.00     0.002 A 
HETATM   29  C   UNL     1       6.833  32.606  61.180  1.00  0.00     0.031 A 
ENDBRANCH   4  24
TORSDOF 3
ENDMDL
MODEL 7
REMARK VINA RESULT:      -9.4      2.826      8.636
REMARK  3 active torsions:
REMARK  status: ('A' for Active; 'I' for Inactive)
REMARK    1  A    between atoms: N_4  and  C_5 
REMARK    2  A    between atoms: C_15  and  C_16 
REMARK       I    between atoms: C_16  and  N_17 
REMARK    3  A    between atoms: N_17  and  C_18 
ROOT
HETATM    1  C   UNL     1      10.139  30.656  58.334  1.00  0.00     0.073 C 
HETATM    2  C   UNL     1       8.657  30.686  58.271  1.00  0.00     0.069 A 
HETATM    3  N   UNL     1       7.980  31.750  58.725  1.00  0.00    -0.170 NA
HETATM    4  N   UNL     1       6.663  31.481  58.472  1.00  0.00    -0.216 N 
HETATM    5  C   UNL     1       6.526  30.188  57.990  1.00  0.00     0.145 A 
HETATM    6  C   UNL     1       7.790  29.677  57.816  1.00  0.00     0.087 A 
HETATM    7  N   UNL     1       5.409  29.457  57.758  1.00  0.00    -0.349 N 
HETATM    8  C   UNL     1       5.561  28.151  57.320  1.00  0.00     0.111 A 
HETATM    9  C   UNL     1       6.747  27.550  57.072  1.00  0.00     0.098 A 
HETATM   10  C   UNL     1       8.007  28.336  57.313  1.00  0.00     0.205 A 
HETATM   11  O   UNL     1       9.122  27.862  57.109  1.00  0.00    -0.286 OA
HETATM   12  H   UNL     1       4.482  29.712  58.097  1.00  0.00     0.167 HD
ENDROOT
BRANCH   9  13
HETATM   13  C   UNL     1       6.733  26.128  56.598  1.00  0.00     0.261 C 
HETATM   14  N   UNL     1       7.555  25.882  55.519  1.00  0.00    -0.320 N 
HETATM   15  H   UNL     1       8.003  26.697  55.100  1.00  0.00     0.169 HD
HETATM   16  O   UNL     1       5.999  25.319  57.154  1.00  0.00    -0.267 OA
BRANCH  14  17
HETATM   17  C   UNL     1       7.820  24.657  54.864  1.00  0.00     0.073 A 
HETATM   18  C   UNL     1       8.593  23.600  55.356  1.00  0.00     0.143 A 
HETATM   19  F   UNL     1       9.236  23.665  56.529  1.00  0.00    -0.204 F 
HETATM   20  C   UNL     1       8.779  22.434  54.608  1.00  0.00     0.044 A 
HETATM   21  C   UNL     1       8.206  22.308  53.346  1.00  0.00     0.003 A 
HETATM   22  C   UNL     1       7.450  23.355  52.829  1.00  0.00     0.002 A 
HETATM   23  C   UNL     1       7.263  24.520  53.581  1.00  0.00     0.033 A 
ENDBRANCH  14  17
ENDBRANCH   9  13
BRANCH   4  24
HETATM   24  C   UNL     1       5.677  32.483  58.701  1.00  0.00     0.060 A 
HETATM   25  C   UNL     1       5.297  32.863  59.995  1.00  0.00     0.031 A 
HETATM   26  C   UNL     1       4.328  33.856  60.179  1.00  0.00     0.002 A 
HETATM   27  C   UNL     1       3.729  34.466  59.079  1.00  0.00     0.000 A 
HETATM   28  C   UNL     1       4.082  34.076  57.789  1.00  0.00     0.002 A 
HETATM   29  C   UNL     1       5.046  33.082  57.599  1.00  0.00     0.031 A 
ENDBRANCH   4  24
TORSDOF 3
ENDMDL
MODEL 8
REMARK VINA RESULT:      -9.3      2.703      8.498
REMARK  3 active torsions:
REMARK  status: ('A' for Active; 'I' for Inactive)
REMARK    1  A    between atoms: N_4  and  C_5 
REMARK    2  A    between atoms: C_15  and  C_16 
REMARK       I    between atoms: C_16  and  N_17 
REMARK    3  A    between atoms: N_17  and  C_18 
ROOT
HETATM    1  C   UNL     1       4.737  31.297  55.582  1.00  0.00     0.073 C 
HETATM    2  C   UNL     1       5.646  30.675  56.575  1.00  0.00     0.069 A 
HETATM    3  N   UNL     1       6.259  31.427  57.499  1.00  0.00    -0.170 NA
HETATM    4  N   UNL     1       6.966  30.549  58.275  1.00  0.00    -0.216 N 
HETATM    5  C   UNL     1       6.895  29.274  57.735  1.00  0.00     0.145 A 
HETATM    6  C   UNL     1       6.024  29.324  56.673  1.00  0.00     0.087 A 
HETATM    7  N   UNL     1       7.558  28.143  58.078  1.00  0.00    -0.349 N 
HETATM    8  C   UNL     1       7.334  27.001  57.327  1.00  0.00     0.111 A 
HETATM    9  C   UNL     1       6.473  26.912  56.288  1.00  0.00     0.098 A 
HETATM   10  C   UNL     1       5.714  28.148  55.885  1.00  0.00     0.205 A 
HETATM   11  O   UNL     1       4.913  28.149  54.955  1.00  0.00    -0.286 OA
HETATM   12  H   UNL     1       8.372  28.126  58.691  1.00  0.00     0.167 HD
ENDROOT
BRANCH   9  13
HETATM   13  C   UNL     1       6.348  25.595  55.584  1.00  0.00     0.261 C 
HETATM   14  N   UNL     1       7.522  24.876  55.514  1.00  0.00    -0.320 N 
HETATM   15  H   UNL     1       8.359  25.348  55.854  1.00  0.00     0.169 HD
HETATM   16  O   UNL     1       5.266  25.271  55.108  1.00  0.00    -0.267 OA
BRANCH  14  17
HETATM   17  C   UNL     1       7.744  23.587  54.977  1.00  0.00     0.073 A 
HETATM   18  C   UNL     1       7.968  22.410  55.700  1.00  0.00     0.143 A 
HETATM   19  F   UNL     1       8.053  22.393  57.036  1.00  0.00    -0.204 F 
HETATM   20  C   UNL     1       8.175  21.191  55.048  1.00  0.00     0.044 A 
HETATM   21  C   UNL     1       8.174  21.128  53.658  1.00  0.00     0.003 A 
HETATM   22  C   UNL     1       7.973  22.289  52.918  1.00  0.00     0.002 A 
HETATM   23  C   UNL     1       7.764  23.508  53.574  1.00  0.00     0.033 A 
ENDBRANCH  14  17
ENDBRANCH   9  13
BRANCH   4  24
HETATM   24  C   UNL     1       7.621  31.012  59.452  1.00  0.00     0.060 A 
HETATM   25  C   UNL     1       8.840  30.472  59.879  1.00  0.00     0.031 A 
HETATM   26  C   UNL     1       9.456  30.957  61.039  1.00  0.00     0.002 A 
HETATM   27  C   UNL     1       8.856  31.974  61.780  1.00  0.00     0.000 A 
HETATM   28  C   UNL     1       7.631  32.499  61.376  1.00  0.00     0.002 A 
HETATM   29  C   UNL     1       7.009  32.015  60.222  1.00  0.00     0.031 A 
ENDBRANCH   4  24
TORSDOF 3
ENDMDL
MODEL 9
REMARK VINA RESULT:      -9.0      2.208      3.435
REMARK  3 active torsions:
REMARK  status: ('A' for Active; 'I' for Inactive)
REMARK    1  A    between atoms: N_4  and  C_5 
REMARK    2  A    between atoms: C_15  and  C_16 
REMARK       I    between atoms: C_16  and  N_17 
REMARK    3  A    between atoms: N_17  and  C_18 
ROOT
HETATM    1  C   UNL     1      10.565  29.690  56.327  1.00  0.00     0.073 C 
HETATM    2  C   UNL     1       9.113  29.432  56.156  1.00  0.00     0.069 A 
HETATM    3  N   UNL     1       8.669  28.716  55.115  1.00  0.00    -0.170 NA
HETATM    4  N   UNL     1       7.315  28.620  55.287  1.00  0.00    -0.216 N 
HETATM    5  C   UNL     1       6.917  29.401  56.362  1.00  0.00     0.145 A 
HETATM    6  C   UNL     1       8.053  29.895  56.956  1.00  0.00     0.087 A 
HETATM    7  N   UNL     1       5.673  29.724  56.791  1.00  0.00    -0.349 N 
HETATM    8  C   UNL     1       5.558  30.578  57.877  1.00  0.00     0.111 A 
HETATM    9  C   UNL     1       6.598  31.095  58.571  1.00  0.00     0.098 A 
HETATM   10  C   UNL     1       7.993  30.750  58.124  1.00  0.00     0.205 A 
HETATM   11  O   UNL     1       8.988  31.177  58.703  1.00  0.00    -0.286 OA
HETATM   12  H   UNL     1       4.826  29.576  56.244  1.00  0.00     0.167 HD
ENDROOT
BRANCH   9  13
HETATM   13  C   UNL     1       6.296  32.001  59.725  1.00  0.00     0.261 C 
HETATM   14  N   UNL     1       6.680  31.504  60.952  1.00  0.00    -0.320 N 
HETATM   15  H   UNL     1       7.033  30.547  60.959  1.00  0.00     0.169 HD
HETATM   16  O   UNL     1       5.722  33.064  59.518  1.00  0.00    -0.267 OA
BRANCH  14  17
HETATM   17  C   UNL     1       6.597  32.115  62.225  1.00  0.00     0.073 A 
HETATM   18  C   UNL     1       5.425  32.429  62.923  1.00  0.00     0.143 A 
HETATM   19  F   UNL     1       4.206  32.225  62.408  1.00  0.00    -0.204 F 
HETATM   20  C   UNL     1       5.476  33.034  64.182  1.00  0.00     0.044 A 
HETATM   21  C   UNL     1       6.701  33.347  64.762  1.00  0.00     0.003 A 
HETATM   22  C   UNL     1       7.878  33.062  64.078  1.00  0.00     0.002 A 
HETATM   23  C   UNL     1       7.825  32.455  62.818  1.00  0.00     0.033 A 
ENDBRANCH  14  17
ENDBRANCH   9  13
BRANCH   4  24
HETATM   24  C   UNL     1       6.547  27.790  54.421  1.00  0.00     0.060 A 
HETATM   25  C   UNL     1       6.045  28.259  53.201  1.00  0.00     0.031 A 
HETATM   26  C   UNL     1       5.298  27.411  52.376  1.00  0.00     0.002 A 
HETATM   27  C   UNL     1       5.041  26.098  52.767  1.00  0.00     0.000 A 
HETATM   28  C   UNL     1       5.515  25.631  53.991  1.00  0.00     0.002 A 
HETATM   29  C   UNL     1       6.257  26.475  54.821  1.00  0.00     0.031 A 
ENDBRANCH   4  24
TORSDOF 3
ENDMDL
MODEL 10
REMARK VINA RESULT:      -8.8      5.709      8.551
REMARK  3 active torsions:
REMARK  status: ('A' for Active; 'I' for Inactive)
REMARK    1  A    between atoms: N_4  and  C_5 
REMARK    2  A    between atoms: C_15  and  C_16 
REMARK       I    between atoms: C_16  and  N_17 
REMARK    3  A    between atoms: N_17  and  C_18 
ROOT
HETATM    1  C   UNL     1       5.406  26.607  56.699  1.00  0.00     0.073 C 
HETATM    2  C   UNL     1       5.823  25.775  55.543  1.00  0.00     0.069 A 
HETATM    3  N   UNL     1       6.551  24.666  55.732  1.00  0.00    -0.170 NA
HETATM    4  N   UNL     1       6.710  24.117  54.489  1.00  0.00    -0.216 N 
HETATM    5  C   UNL     1       6.197  24.970  53.523  1.00  0.00     0.145 A 
HETATM    6  C   UNL     1       5.590  26.015  54.177  1.00  0.00     0.087 A 
HETATM    7  N   UNL     1       6.277  24.906  52.172  1.00  0.00    -0.349 N 
HETATM    8  C   UNL     1       5.712  25.935  51.435  1.00  0.00     0.111 A 
HETATM    9  C   UNL     1       5.052  26.993  51.959  1.00  0.00     0.098 A 
HETATM   10  C   UNL     1       4.940  27.090  53.457  1.00  0.00     0.205 A 
HETATM   11  O   UNL     1       4.354  28.018  54.009  1.00  0.00    -0.286 OA
HETATM   12  H   UNL     1       6.912  24.289  51.668  1.00  0.00     0.167 HD
ENDROOT
BRANCH   9  13
HETATM   13  C   UNL     1       4.497  28.017  51.016  1.00  0.00     0.261 C 
HETATM   14  N   UNL     1       5.452  28.696  50.290  1.00  0.00    -0.320 N 
HETATM   15  H   UNL     1       6.424  28.506  50.537  1.00  0.00     0.169 HD
HETATM   16  O   UNL     1       3.286  28.200  50.976  1.00  0.00    -0.267 OA
BRANCH  14  17
HETATM   17  C   UNL     1       5.276  29.675  49.285  1.00  0.00     0.073 A 
HETATM   18  C   UNL     1       4.731  29.473  48.012  1.00  0.00     0.143 A 
HETATM   19  F   UNL     1       4.354  28.265  47.575  1.00  0.00    -0.204 F 
HETATM   20  C   UNL     1       4.609  30.529  47.104  1.00  0.00     0.044 A 
HETATM   21  C   UNL     1       5.042  31.806  47.449  1.00  0.00     0.003 A 
HETATM   22  C   UNL     1       5.605  32.025  48.702  1.00  0.00     0.002 A 
HETATM   23  C   UNL     1       5.725  30.967  49.609  1.00  0.00     0.033 A 
ENDBRANCH  14  17
ENDBRANCH   9  13
BRANCH   4  24
HETATM   24  C   UNL     1       7.320  22.837  54.352  1.00  0.00     0.060 A 
HETATM   25  C   UNL     1       7.611  22.035  55.462  1.00  0.00     0.031 A 
HETATM   26  C   UNL     1       8.207  20.781  55.286  1.00  0.00     0.002 A 
HETATM   27  C   UNL     1       8.524  20.327  54.006  1.00  0.00     0.000 A 
HETATM   28  C   UNL     1       8.261  21.130  52.899  1.00  0.00     0.002 A 
HETATM   29  C   UNL     1       7.671  22.384  53.069  1.00  0.00     0.031 A 
ENDBRANCH   4  24
TORSDOF 3
ENDMDL
