MODEL 1
REMARK VINA RESULT:      -9.0      0.000      0.000
REMARK  10 active torsions:
REMARK  status: ('A' for Active; 'I' for Inactive)
REMARK    1  A    between atoms: C_3  and  C_4 
REMARK    2  A    between atoms: C_4  and  C_5 
REMARK       I    between atoms: C_5  and  N_6 
REMARK    3  A    between atoms: N_6  and  C_7 
REMARK    4  A    between atoms: C_7  and  C_8 
REMARK    5  A    between atoms: C_18  and  N_19 
REMARK       I    between atoms: N_19  and  C_20 
REMARK    6  A    between atoms: C_20  and  C_21 
REMARK    7  A    between atoms: C_21  and  O_22 
REMARK    8  A    between atoms: C_28  and  C_29 
REMARK    9  A    between atoms: C_29  and  O_30 
REMARK   10  A    between atoms: C_32  and  O_33 
ROOT
HETATM    1  C   UNL     1       4.916  25.636  56.739  1.00  0.00     0.016 C 
HETATM    2  C   UNL     1       6.008  26.696  56.354  1.00  0.00    -0.030 C 
HETATM    3  C   UNL     1       6.131  26.592  54.750  1.00  0.00     0.056 C 
HETATM    4  C   UNL     1       5.243  27.611  54.063  1.00  0.00     0.056 A 
HETATM    5  C   UNL     1       4.402  28.479  54.722  1.00  0.00     0.012 A 
HETATM    6  S   UNL     1       3.539  29.435  53.611  1.00  0.00    -0.055 SA
HETATM    7  C   UNL     1       4.357  28.669  52.329  1.00  0.00     0.174 A 
HETATM    8  N   UNL     1       5.220  27.738  52.680  1.00  0.00    -0.227 NA
HETATM    9  C   UNL     1       4.237  28.603  56.188  1.00  0.00     0.055 C 
HETATM   10  C   UNL     1       5.506  28.100  56.924  1.00  0.00     0.012 C 
HETATM   11  C   UNL     1       6.612  29.212  57.159  1.00  0.00     0.008 C 
HETATM   12  C   UNL     1       6.032  30.333  58.072  1.00  0.00     0.020 C 
HETATM   13  C   UNL     1       7.802  28.577  57.939  1.00  0.00     0.128 C 
HETATM   14  C   UNL     1       8.349  27.322  57.273  1.00  0.00     0.033 C 
HETATM   15  C   UNL     1       7.275  26.254  57.132  1.00  0.00     0.013 C 
ENDROOT
BRANCH   3  16
HETATM   16  C   UNL     1       7.548  26.570  54.148  1.00  0.00     0.114 C 
BRANCH  16  17
HETATM   17  C   UNL     1       7.772  25.349  53.273  1.00  0.00     0.218 C 
HETATM   18  N   UNL     1       7.204  24.202  53.759  1.00  0.00    -0.357 N 
HETATM   19  H   UNL     1       7.096  24.167  54.770  1.00  0.00     0.162 HD
HETATM   20  O   UNL     1       8.394  25.412  52.217  1.00  0.00    -0.274 OA
BRANCH  18  21
HETATM   21  C   UNL     1       7.346  22.942  53.074  1.00  0.00     0.161 C 
BRANCH  21  22
HETATM   22  C   UNL     1       7.816  21.885  54.035  1.00  0.00    -0.041 A 
HETATM   23  C   UNL     1       7.686  22.088  55.418  1.00  0.00     0.009 A 
HETATM   24  C   UNL     1       8.149  21.133  56.324  1.00  0.00     0.001 A 
HETATM   25  C   UNL     1       8.748  19.966  55.857  1.00  0.00     0.000 A 
HETATM   26  C   UNL     1       8.882  19.753  54.486  1.00  0.00     0.001 A 
HETATM   27  C   UNL     1       8.420  20.707  53.578  1.00  0.00     0.009 A 
ENDBRANCH  21  22
ENDBRANCH  18  21
ENDBRANCH  16  17
ENDBRANCH   3  16
BRANCH  11  28
HETATM   28  C   UNL     1       7.090  29.901  55.853  1.00  0.00     0.176 C 
BRANCH  28  29
HETATM   29  O   UNL     1       8.359  29.433  55.408  1.00  0.00    -0.400 OA
HETATM   30  H   UNL     1       8.992  30.169  55.548  1.00  0.00     0.209 HD
ENDBRANCH  28  29
ENDBRANCH  11  28
BRANCH   7  31
HETATM   31  N   UNL     1       4.148  28.998  51.016  1.00  0.00    -0.304 N 
HETATM   32  C   UNL     1       4.979  29.730  50.195  1.00  0.00     0.247 C 
HETATM   33  O   UNL     1       6.062  30.233  50.477  1.00  0.00    -0.271 OA
HETATM   34  H   UNL     1       3.271  28.674  50.626  1.00  0.00     0.171 HD
BRANCH  32  35
HETATM   35  C   UNL     1       4.415  29.840  48.775  1.00  0.00     0.270 C 
BRANCH  35  36
HETATM   36  O   UNL     1       4.225  28.575  48.148  1.00  0.00    -0.387 OA
HETATM   37  C   UNL     1       5.385  28.153  47.438  1.00  0.00     0.202 C 
ENDBRANCH  35  36
ENDBRANCH  32  35
ENDBRANCH   7  31
BRANCH  13  38
HETATM   38  O   UNL     1       8.877  29.509  58.078  1.00  0.00    -0.395 OA
HETATM   39  H   UNL     1       8.570  30.224  58.667  1.00  0.00     0.210 HD
ENDBRANCH  13  38
TORSDOF 10
ENDMDL
MODEL 2
REMARK VINA RESULT:      -8.6      4.342      8.631
REMARK  10 active torsions:
REMARK  status: ('A' for Active; 'I' for Inactive)
REMARK    1  A    between atoms: C_3  and  C_4 
REMARK    2  A    between atoms: C_4  and  C_5 
REMARK       I    between atoms: C_5  and  N_6 
REMARK    3  A    between atoms: N_6  and  C_7 
REMARK    4  A    between atoms: C_7  and  C_8 
REMARK    5  A    between atoms: C_18  and  N_19 
REMARK       I    between atoms: N_19  and  C_20 
REMARK    6  A    between atoms: C_20  and  C_21 
REMARK    7  A    between atoms: C_21  and  O_22 
REMARK    8  A    between atoms: C_28  and  C_29 
REMARK    9  A    between atoms: C_29  and  O_30 
REMARK   10  A    between atoms: C_32  and  O_33 
ROOT
HETATM    1  C   UNL     1       9.150  29.072  54.982  1.00  0.00     0.016 C 
HETATM    2  C   UNL     1       8.177  28.384  56.004  1.00  0.00    -0.030 C 
HETATM    3  C   UNL     1       7.706  29.574  56.983  1.00  0.00     0.056 C 
HETATM    4  C   UNL     1       6.398  30.185  56.517  1.00  0.00     0.056 A 
HETATM    5  C   UNL     1       5.726  29.806  55.377  1.00  0.00     0.012 A 
HETATM    6  S   UNL     1       4.326  30.748  55.167  1.00  0.00    -0.055 SA
HETATM    7  C   UNL     1       4.674  31.573  56.615  1.00  0.00     0.174 A 
HETATM    8  N   UNL     1       5.775  31.198  57.234  1.00  0.00    -0.227 NA
HETATM    9  C   UNL     1       6.124  28.735  54.435  1.00  0.00     0.055 C 
HETATM   10  C   UNL     1       7.024  27.691  55.145  1.00  0.00     0.012 C 
HETATM   11  C   UNL     1       6.231  26.506  55.839  1.00  0.00     0.008 C 
HETATM   12  C   UNL     1       5.453  25.700  54.756  1.00  0.00     0.020 C 
HETATM   13  C   UNL     1       7.258  25.519  56.471  1.00  0.00     0.128 C 
HETATM   14  C   UNL     1       8.245  26.205  57.406  1.00  0.00     0.033 C 
HETATM   15  C   UNL     1       9.036  27.285  56.684  1.00  0.00     0.013 C 
ENDROOT
BRANCH   3  16
HETATM   16  C   UNL     1       7.695  29.285  58.496  1.00  0.00     0.114 C 
BRANCH  16  17
HETATM   17  C   UNL     1       8.611  30.225  59.259  1.00  0.00     0.218 C 
HETATM   18  N   UNL     1       8.214  30.469  60.546  1.00  0.00    -0.357 N 
HETATM   19  H   UNL     1       7.213  30.387  60.713  1.00  0.00     0.162 HD
HETATM   20  O   UNL     1       9.625  30.697  58.753  1.00  0.00    -0.274 OA
BRANCH  18  21
HETATM   21  C   UNL     1       8.947  31.364  61.405  1.00  0.00     0.161 C 
BRANCH  21  22
HETATM   22  C   UNL     1       7.997  32.289  62.116  1.00  0.00    -0.041 A 
HETATM   23  C   UNL     1       8.080  32.441  63.508  1.00  0.00     0.009 A 
HETATM   24  C   UNL     1       7.184  33.267  64.188  1.00  0.00     0.001 A 
HETATM   25  C   UNL     1       6.195  33.949  63.482  1.00  0.00     0.000 A 
HETATM   26  C   UNL     1       6.104  33.805  62.099  1.00  0.00     0.001 A 
HETATM   27  C   UNL     1       7.000  32.979  61.417  1.00  0.00     0.009 A 
ENDBRANCH  21  22
ENDBRANCH  18  21
ENDBRANCH  16  17
ENDBRANCH   3  16
BRANCH  11  28
HETATM   28  C   UNL     1       5.184  26.983  56.880  1.00  0.00     0.176 C 
BRANCH  28  29
HETATM   29  O   UNL     1       4.243  25.972  57.227  1.00  0.00    -0.400 OA
HETATM   30  H   UNL     1       3.362  26.304  56.949  1.00  0.00     0.209 HD
ENDBRANCH  28  29
ENDBRANCH  11  28
BRANCH   7  31
HETATM   31  N   UNL     1       3.865  32.557  57.120  1.00  0.00    -0.304 N 
HETATM   32  C   UNL     1       4.121  33.911  57.160  1.00  0.00     0.247 C 
HETATM   33  O   UNL     1       5.120  34.500  56.760  1.00  0.00    -0.271 OA
HETATM   34  H   UNL     1       2.992  32.233  57.519  1.00  0.00     0.171 HD
BRANCH  32  35
HETATM   35  C   UNL     1       2.945  34.689  57.757  1.00  0.00     0.270 C 
BRANCH  35  36
HETATM   36  O   UNL     1       2.299  33.999  58.823  1.00  0.00    -0.387 OA
HETATM   37  C   UNL     1       2.636  34.546  60.094  1.00  0.00     0.202 C 
ENDBRANCH  35  36
ENDBRANCH  32  35
ENDBRANCH   7  31
BRANCH  13  38
HETATM   38  O   UNL     1       6.592  24.491  57.208  1.00  0.00    -0.395 OA
HETATM   39  H   UNL     1       5.857  24.165  56.655  1.00  0.00     0.210 HD
ENDBRANCH  13  38
TORSDOF 10
ENDMDL
MODEL 3
REMARK VINA RESULT:      -8.3      2.806      6.559
REMARK  10 active torsions:
REMARK  status: ('A' for Active; 'I' for Inactive)
REMARK    1  A    between atoms: C_3  and  C_4 
REMARK    2  A    between atoms: C_4  and  C_5 
REMARK       I    between atoms: C_5  and  N_6 
REMARK    3  A    between atoms: N_6  and  C_7 
REMARK    4  A    between atoms: C_7  and  C_8 
REMARK    5  A    between atoms: C_18  and  N_19 
REMARK       I    between atoms: N_19  and  C_20 
REMARK    6  A    between atoms: C_20  and  C_21 
REMARK    7  A    between atoms: C_21  and  O_22 
REMARK    8  A    between atoms: C_28  and  C_29 
REMARK    9  A    between atoms: C_29  and  O_30 
REMARK   10  A    between atoms: C_32  and  O_33 
ROOT
HETATM    1  C   UNL     1       8.759  29.064  55.300  1.00  0.00     0.016 C 
HETATM    2  C   UNL     1       7.716  27.971  55.727  1.00  0.00    -0.030 C 
HETATM    3  C   UNL     1       6.280  28.667  55.500  1.00  0.00     0.056 C 
HETATM    4  C   UNL     1       5.714  28.330  54.134  1.00  0.00     0.056 A 
HETATM    5  C   UNL     1       6.365  27.569  53.189  1.00  0.00     0.012 A 
HETATM    6  S   UNL     1       5.433  27.448  51.772  1.00  0.00    -0.055 SA
HETATM    7  C   UNL     1       4.210  28.377  52.507  1.00  0.00     0.174 A 
HETATM    8  N   UNL     1       4.463  28.781  53.735  1.00  0.00    -0.227 NA
HETATM    9  C   UNL     1       7.690  26.924  53.339  1.00  0.00     0.055 C 
HETATM   10  C   UNL     1       8.012  26.680  54.836  1.00  0.00     0.012 C 
HETATM   11  C   UNL     1       7.498  25.290  55.400  1.00  0.00     0.008 C 
HETATM   12  C   UNL     1       8.207  24.130  54.639  1.00  0.00     0.020 C 
HETATM   13  C   UNL     1       7.927  25.167  56.893  1.00  0.00     0.128 C 
HETATM   14  C   UNL     1       7.486  26.354  57.738  1.00  0.00     0.033 C 
HETATM   15  C   UNL     1       8.059  27.659  57.207  1.00  0.00     0.013 C 
ENDROOT
BRANCH   3  16
HETATM   16  C   UNL     1       5.227  28.500  56.612  1.00  0.00     0.114 C 
BRANCH  16  17
HETATM   17  C   UNL     1       5.001  29.792  57.377  1.00  0.00     0.218 C 
HETATM   18  N   UNL     1       6.155  30.429  57.748  1.00  0.00    -0.357 N 
HETATM   19  H   UNL     1       6.962  29.824  57.877  1.00  0.00     0.162 HD
HETATM   20  O   UNL     1       3.875  30.218  57.614  1.00  0.00    -0.274 OA
BRANCH  18  21
HETATM   21  C   UNL     1       6.128  31.652  58.511  1.00  0.00     0.161 C 
BRANCH  21  22
HETATM   22  C   UNL     1       7.132  31.583  59.628  1.00  0.00    -0.041 A 
HETATM   23  C   UNL     1       7.045  32.480  60.704  1.00  0.00     0.009 A 
HETATM   24  C   UNL     1       7.988  32.453  61.731  1.00  0.00     0.001 A 
HETATM   25  C   UNL     1       9.031  31.529  61.693  1.00  0.00     0.000 A 
HETATM   26  C   UNL     1       9.127  30.634  60.629  1.00  0.00     0.001 A 
HETATM   27  C   UNL     1       8.184  30.659  59.601  1.00  0.00     0.009 A 
ENDBRANCH  21  22
ENDBRANCH  18  21
ENDBRANCH  16  17
ENDBRANCH   3  16
BRANCH  11  28
HETATM   28  C   UNL     1       5.972  25.073  55.225  1.00  0.00     0.176 C 
BRANCH  28  29
HETATM   29  O   UNL     1       5.644  24.336  54.051  1.00  0.00    -0.400 OA
HETATM   30  H   UNL     1       5.824  24.930  53.290  1.00  0.00     0.209 HD
ENDBRANCH  28  29
ENDBRANCH  11  28
BRANCH   7  31
HETATM   31  N   UNL     1       3.032  28.682  51.877  1.00  0.00    -0.304 N 
HETATM   32  C   UNL     1       2.855  29.519  50.796  1.00  0.00     0.247 C 
HETATM   33  O   UNL     1       3.711  30.156  50.189  1.00  0.00    -0.271 OA
HETATM   34  H   UNL     1       2.207  28.249  52.274  1.00  0.00     0.171 HD
BRANCH  32  35
HETATM   35  C   UNL     1       1.391  29.561  50.349  1.00  0.00     0.270 C 
BRANCH  35  36
HETATM   36  O   UNL     1       1.221  29.306  48.958  1.00  0.00    -0.387 OA
HETATM   37  C   UNL     1       1.457  27.940  48.634  1.00  0.00     0.202 C 
ENDBRANCH  35  36
ENDBRANCH  32  35
ENDBRANCH   7  31
BRANCH  13  38
HETATM   38  O   UNL     1       7.389  23.980  57.482  1.00  0.00    -0.395 OA
HETATM   39  H   UNL     1       7.775  23.896  58.374  1.00  0.00     0.210 HD
ENDBRANCH  13  38
TORSDOF 10
ENDMDL
MODEL 4
REMARK VINA RESULT:      -8.1      2.351      6.833
REMARK  10 active torsions:
REMARK  status: ('A' for Active; 'I' for Inactive)
REMARK    1  A    between atoms: C_3  and  C_4 
REMARK    2  A    between atoms: C_4  and  C_5 
REMARK       I    between atoms: C_5  and  N_6 
REMARK    3  A    between atoms: N_6  and  C_7 
REMARK    4  A    between atoms: C_7  and  C_8 
REMARK    5  A    between atoms: C_18  and  N_19 
REMARK       I    between atoms: N_19  and  C_20 
REMARK    6  A    between atoms: C_20  and  C_21 
REMARK    7  A    between atoms: C_21  and  O_22 
REMARK    8  A    between atoms: C_28  and  C_29 
REMARK    9  A    between atoms: C_29  and  O_30 
REMARK   10  A    between atoms: C_32  and  O_33 
ROOT
HETATM    1  C   UNL     1       6.037  28.199  47.959  1.00  0.00     0.016 C 
HETATM    2  C   UNL     1       4.734  27.729  48.698  1.00  0.00    -0.030 C 
HETATM    3  C   UNL     1       5.202  27.458  50.217  1.00  0.00     0.056 C 
HETATM    4  C   UNL     1       4.969  28.676  51.090  1.00  0.00     0.056 A 
HETATM    5  C   UNL     1       4.470  29.875  50.634  1.00  0.00     0.012 A 
HETATM    6  S   UNL     1       4.394  31.010  51.898  1.00  0.00    -0.055 SA
HETATM    7  C   UNL     1       4.990  29.836  52.977  1.00  0.00     0.174 A 
HETATM    8  N   UNL     1       5.254  28.659  52.449  1.00  0.00    -0.227 NA
HETATM    9  C   UNL     1       4.044  30.183  49.250  1.00  0.00     0.055 C 
HETATM   10  C   UNL     1       3.651  28.884  48.499  1.00  0.00     0.012 C 
HETATM   11  C   UNL     1       2.129  28.470  48.659  1.00  0.00     0.008 C 
HETATM   12  C   UNL     1       1.224  29.581  48.047  1.00  0.00     0.020 C 
HETATM   13  C   UNL     1       1.871  27.180  47.823  1.00  0.00     0.128 C 
HETATM   14  C   UNL     1       2.835  26.051  48.159  1.00  0.00     0.033 C 
HETATM   15  C   UNL     1       4.280  26.464  47.923  1.00  0.00     0.013 C 
ENDROOT
BRANCH   3  16
HETATM   16  C   UNL     1       4.704  26.166  50.892  1.00  0.00     0.114 C 
BRANCH  16  17
HETATM   17  C   UNL     1       5.389  25.923  52.225  1.00  0.00     0.218 C 
HETATM   18  N   UNL     1       6.755  26.016  52.175  1.00  0.00    -0.357 N 
HETATM   19  H   UNL     1       7.171  25.801  51.271  1.00  0.00     0.162 HD
HETATM   20  O   UNL     1       4.755  25.685  53.248  1.00  0.00    -0.274 OA
BRANCH  18  21
HETATM   21  C   UNL     1       7.569  25.781  53.340  1.00  0.00     0.161 C 
BRANCH  21  22
HETATM   22  C   UNL     1       7.642  24.306  53.628  1.00  0.00    -0.041 A 
HETATM   23  C   UNL     1       7.500  23.842  54.944  1.00  0.00     0.009 A 
HETATM   24  C   UNL     1       7.601  22.481  55.233  1.00  0.00     0.001 A 
HETATM   25  C   UNL     1       7.845  21.569  54.209  1.00  0.00     0.000 A 
HETATM   26  C   UNL     1       7.988  22.019  52.897  1.00  0.00     0.001 A 
HETATM   27  C   UNL     1       7.887  23.381  52.606  1.00  0.00     0.009 A 
ENDBRANCH  21  22
ENDBRANCH  18  21
ENDBRANCH  16  17
ENDBRANCH   3  16
BRANCH  11  28
HETATM   28  C   UNL     1       1.683  28.292  50.134  1.00  0.00     0.176 C 
BRANCH  28  29
HETATM   29  O   UNL     1       0.990  29.426  50.648  1.00  0.00    -0.400 OA
HETATM   30  H   UNL     1       0.298  29.079  51.252  1.00  0.00     0.209 HD
ENDBRANCH  28  29
ENDBRANCH  11  28
BRANCH   7  31
HETATM   31  N   UNL     1       5.176  30.084  54.312  1.00  0.00    -0.304 N 
HETATM   32  C   UNL     1       4.801  29.286  55.371  1.00  0.00     0.247 C 
HETATM   33  O   UNL     1       4.225  28.203  55.330  1.00  0.00    -0.271 OA
HETATM   34  H   UNL     1       5.627  30.966  54.527  1.00  0.00     0.171 HD
BRANCH  32  35
HETATM   35  C   UNL     1       5.232  29.888  56.712  1.00  0.00     0.270 C 
BRANCH  35  36
HETATM   36  O   UNL     1       6.646  29.916  56.885  1.00  0.00    -0.387 OA
HETATM   37  C   UNL     1       7.113  28.804  57.642  1.00  0.00     0.202 C 
ENDBRANCH  35  36
ENDBRANCH  32  35
ENDBRANCH   7  31
BRANCH  13  38
HETATM   38  O   UNL     1       0.539  26.700  48.024  1.00  0.00    -0.395 OA
HETATM   39  H   UNL     1      -0.070  27.434  47.821  1.00  0.00     0.210 HD
ENDBRANCH  13  38
TORSDOF 10
ENDMDL
MODEL 5
REMARK VINA RESULT:      -7.8      2.671      7.269
REMARK  10 active torsions:
REMARK  status: ('A' for Active; 'I' for Inactive)
REMARK    1  A    between atoms: C_3  and  C_4 
REMARK    2  A    between atoms: C_4  and  C_5 
REMARK       I    between atoms: C_5  and  N_6 
REMARK    3  A    between atoms: N_6  and  C_7 
REMARK    4  A    between atoms: C_7  and  C_8 
REMARK    5  A    between atoms: C_18  and  N_19 
REMARK       I    between atoms: N_19  and  C_20 
REMARK    6  A    between atoms: C_20  and  C_21 
REMARK    7  A    between atoms: C_21  and  O_22 
REMARK    8  A    between atoms: C_28  and  C_29 
REMARK    9  A    between atoms: C_29  and  O_30 
REMARK   10  A    between atoms: C_32  and  O_33 
ROOT
HETATM    1  C   UNL     1       5.979  27.982  47.708  1.00  0.00     0.016 C 
HETATM    2  C   UNL     1       4.607  27.657  48.397  1.00  0.00    -0.030 C 
HETATM    3  C   UNL     1       4.984  27.347  49.933  1.00  0.00     0.056 C 
HETATM    4  C   UNL     1       4.848  28.588  50.795  1.00  0.00     0.056 A 
HETATM    5  C   UNL     1       4.498  29.831  50.317  1.00  0.00     0.012 A 
HETATM    6  S   UNL     1       4.494  30.975  51.575  1.00  0.00    -0.055 SA
HETATM    7  C   UNL     1       4.919  29.751  52.679  1.00  0.00     0.174 A 
HETATM    8  N   UNL     1       5.077  28.549  52.163  1.00  0.00    -0.227 NA
HETATM    9  C   UNL     1       4.161  30.173  48.916  1.00  0.00     0.055 C 
HETATM   10  C   UNL     1       3.661  28.919  48.153  1.00  0.00     0.012 C 
HETATM   11  C   UNL     1       2.098  28.670  48.255  1.00  0.00     0.008 C 
HETATM   12  C   UNL     1       1.341  29.867  47.606  1.00  0.00     0.020 C 
HETATM   13  C   UNL     1       1.736  27.410  47.412  1.00  0.00     0.128 C 
HETATM   14  C   UNL     1       2.561  26.187  47.788  1.00  0.00     0.033 C 
HETATM   15  C   UNL     1       4.050  26.443  47.608  1.00  0.00     0.013 C 
ENDROOT
BRANCH   3  16
HETATM   16  C   UNL     1       4.325  26.120  50.591  1.00  0.00     0.114 C 
BRANCH  16  17
HETATM   17  C   UNL     1       5.297  25.364  51.480  1.00  0.00     0.218 C 
HETATM   18  N   UNL     1       6.589  25.810  51.399  1.00  0.00    -0.357 N 
HETATM   19  H   UNL     1       6.844  26.241  50.514  1.00  0.00     0.162 HD
HETATM   20  O   UNL     1       4.931  24.451  52.214  1.00  0.00    -0.274 OA
BRANCH  18  21
HETATM   21  C   UNL     1       7.650  25.185  52.149  1.00  0.00     0.161 C 
BRANCH  21  22
HETATM   22  C   UNL     1       7.611  25.649  53.580  1.00  0.00    -0.041 A 
HETATM   23  C   UNL     1       7.611  27.022  53.870  1.00  0.00     0.009 A 
HETATM   24  C   UNL     1       7.610  27.470  55.191  1.00  0.00     0.001 A 
HETATM   25  C   UNL     1       7.611  26.549  56.237  1.00  0.00     0.000 A 
HETATM   26  C   UNL     1       7.610  25.183  55.960  1.00  0.00     0.001 A 
HETATM   27  C   UNL     1       7.611  24.733  54.638  1.00  0.00     0.009 A 
ENDBRANCH  21  22
ENDBRANCH  18  21
ENDBRANCH  16  17
ENDBRANCH   3  16
BRANCH  11  28
HETATM   28  C   UNL     1       1.579  28.550  49.712  1.00  0.00     0.176 C 
BRANCH  28  29
HETATM   29  O   UNL     1       0.957  29.741  50.182  1.00  0.00    -0.400 OA
HETATM   30  H   UNL     1       1.611  30.463  50.062  1.00  0.00     0.209 HD
ENDBRANCH  28  29
ENDBRANCH  11  28
BRANCH   7  31
HETATM   31  N   UNL     1       5.080  29.986  54.019  1.00  0.00    -0.304 N 
HETATM   32  C   UNL     1       4.145  30.494  54.896  1.00  0.00     0.247 C 
HETATM   33  O   UNL     1       2.993  30.837  54.652  1.00  0.00    -0.271 OA
HETATM   34  H   UNL     1       6.000  29.774  54.386  1.00  0.00     0.171 HD
BRANCH  32  35
HETATM   35  C   UNL     1       4.692  30.561  56.326  1.00  0.00     0.270 C 
BRANCH  35  36
HETATM   36  O   UNL     1       6.111  30.450  56.389  1.00  0.00    -0.387 OA
HETATM   37  C   UNL     1       6.557  30.044  57.679  1.00  0.00     0.202 C 
ENDBRANCH  35  36
ENDBRANCH  32  35
ENDBRANCH   7  31
BRANCH  13  38
HETATM   38  O   UNL     1       0.355  27.075  47.562  1.00  0.00    -0.395 OA
HETATM   39  H   UNL     1      -0.157  27.687  47.000  1.00  0.00     0.210 HD
ENDBRANCH  13  38
TORSDOF 10
ENDMDL
MODEL 6
REMARK VINA RESULT:      -7.7      2.814      6.847
REMARK  10 active torsions:
REMARK  status: ('A' for Active; 'I' for Inactive)
REMARK    1  A    between atoms: C_3  and  C_4 
REMARK    2  A    between atoms: C_4  and  C_5 
REMARK       I    between atoms: C_5  and  N_6 
REMARK    3  A    between atoms: N_6  and  C_7 
REMARK    4  A    between atoms: C_7  and  C_8 
REMARK    5  A    between atoms: C_18  and  N_19 
REMARK       I    between atoms: N_19  and  C_20 
REMARK    6  A    between atoms: C_20  and  C_21 
REMARK    7  A    between atoms: C_21  and  O_22 
REMARK    8  A    between atoms: C_28  and  C_29 
REMARK    9  A    between atoms: C_29  and  O_30 
REMARK   10  A    between atoms: C_32  and  O_33 
ROOT
HETATM    1  C   UNL     1       6.155  29.684  49.235  1.00  0.00     0.016 C 
HETATM    2  C   UNL     1       4.871  28.957  49.770  1.00  0.00    -0.030 C 
HETATM    3  C   UNL     1       5.028  28.977  51.374  1.00  0.00     0.056 C 
HETATM    4  C   UNL     1       4.315  30.169  51.983  1.00  0.00     0.056 A 
HETATM    5  C   UNL     1       3.660  31.138  51.255  1.00  0.00     0.012 A 
HETATM    6  S   UNL     1       3.025  32.332  52.286  1.00  0.00    -0.055 SA
HETATM    7  C   UNL     1       3.622  31.477  53.631  1.00  0.00     0.174 A 
HETATM    8  N   UNL     1       4.276  30.367  53.356  1.00  0.00    -0.227 NA
HETATM    9  C   UNL     1       3.502  31.177  49.783  1.00  0.00     0.055 C 
HETATM   10  C   UNL     1       3.616  29.752  49.184  1.00  0.00     0.012 C 
HETATM   11  C   UNL     1       2.243  28.961  49.107  1.00  0.00     0.008 C 
HETATM   12  C   UNL     1       1.263  29.720  48.163  1.00  0.00     0.020 C 
HETATM   13  C   UNL     1       2.502  27.572  48.450  1.00  0.00     0.128 C 
HETATM   14  C   UNL     1       3.607  26.784  49.141  1.00  0.00     0.033 C 
HETATM   15  C   UNL     1       4.924  27.545  49.130  1.00  0.00     0.013 C 
ENDROOT
BRANCH   3  16
HETATM   16  C   UNL     1       4.715  27.674  52.133  1.00  0.00     0.114 C 
BRANCH  16  17
HETATM   17  C   UNL     1       5.805  27.323  53.130  1.00  0.00     0.218 C 
HETATM   18  N   UNL     1       5.559  26.183  53.847  1.00  0.00    -0.357 N 
HETATM   19  H   UNL     1       4.575  25.955  53.974  1.00  0.00     0.162 HD
HETATM   20  O   UNL     1       6.819  28.003  53.250  1.00  0.00    -0.274 OA
BRANCH  18  21
HETATM   21  C   UNL     1       6.472  25.719  54.861  1.00  0.00     0.161 C 
BRANCH  21  22
HETATM   22  C   UNL     1       7.015  24.367  54.485  1.00  0.00    -0.041 A 
HETATM   23  C   UNL     1       7.316  24.082  53.144  1.00  0.00     0.009 A 
HETATM   24  C   UNL     1       7.786  22.822  52.773  1.00  0.00     0.001 A 
HETATM   25  C   UNL     1       7.959  21.833  53.739  1.00  0.00     0.000 A 
HETATM   26  C   UNL     1       7.663  22.105  55.073  1.00  0.00     0.001 A 
HETATM   27  C   UNL     1       7.193  23.365  55.447  1.00  0.00     0.009 A 
ENDBRANCH  21  22
ENDBRANCH  18  21
ENDBRANCH  16  17
ENDBRANCH   3  16
BRANCH  11  28
HETATM   28  C   UNL     1       1.527  28.820  50.476  1.00  0.00     0.176 C 
BRANCH  28  29
HETATM   29  O   UNL     1       0.564  29.843  50.709  1.00  0.00    -0.400 OA
HETATM   30  H   UNL     1       0.646  30.092  51.655  1.00  0.00     0.209 HD
ENDBRANCH  28  29
ENDBRANCH  11  28
BRANCH   7  31
HETATM   31  N   UNL     1       3.432  31.900  54.921  1.00  0.00    -0.304 N 
HETATM   32  C   UNL     1       4.140  32.873  55.594  1.00  0.00     0.247 C 
HETATM   33  O   UNL     1       5.077  33.546  55.176  1.00  0.00    -0.271 OA
HETATM   34  H   UNL     1       2.696  31.421  55.427  1.00  0.00     0.171 HD
BRANCH  32  35
HETATM   35  C   UNL     1       3.591  33.093  57.007  1.00  0.00     0.270 C 
BRANCH  35  36
HETATM   36  O   UNL     1       3.191  31.885  57.647  1.00  0.00    -0.387 OA
HETATM   37  C   UNL     1       3.693  31.796  58.977  1.00  0.00     0.202 C 
ENDBRANCH  35  36
ENDBRANCH  32  35
ENDBRANCH   7  31
BRANCH  13  38
HETATM   38  O   UNL     1       1.316  26.774  48.460  1.00  0.00    -0.395 OA
HETATM   39  H   UNL     1       0.593  27.329  48.805  1.00  0.00     0.210 HD
ENDBRANCH  13  38
TORSDOF 10
ENDMDL
MODEL 7
REMARK VINA RESULT:      -7.6      3.294      7.609
REMARK  10 active torsions:
REMARK  status: ('A' for Active; 'I' for Inactive)
REMARK    1  A    between atoms: C_3  and  C_4 
REMARK    2  A    between atoms: C_4  and  C_5 
REMARK       I    between atoms: C_5  and  N_6 
REMARK    3  A    between atoms: N_6  and  C_7 
REMARK    4  A    between atoms: C_7  and  C_8 
REMARK    5  A    between atoms: C_18  and  N_19 
REMARK       I    between atoms: N_19  and  C_20 
REMARK    6  A    between atoms: C_20  and  C_21 
REMARK    7  A    between atoms: C_21  and  O_22 
REMARK    8  A    between atoms: C_28  and  C_29 
REMARK    9  A    between atoms: C_29  and  O_30 
REMARK   10  A    between atoms: C_32  and  O_33 
ROOT
HETATM    1  C   UNL     1       6.022  27.873  47.191  1.00  0.00     0.016 C 
HETATM    2  C   UNL     1       4.707  27.850  48.047  1.00  0.00    -0.030 C 
HETATM    3  C   UNL     1       5.168  28.320  49.518  1.00  0.00     0.056 C 
HETATM    4  C   UNL     1       4.979  29.813  49.705  1.00  0.00     0.056 A 
HETATM    5  C   UNL     1       4.520  30.666  48.727  1.00  0.00     0.012 A 
HETATM    6  S   UNL     1       4.485  32.267  49.299  1.00  0.00    -0.055 SA
HETATM    7  C   UNL     1       5.043  31.729  50.814  1.00  0.00     0.174 A 
HETATM    8  N   UNL     1       5.266  30.435  50.912  1.00  0.00    -0.227 NA
HETATM    9  C   UNL     1       4.101  30.292  47.357  1.00  0.00     0.055 C 
HETATM   10  C   UNL     1       3.662  28.805  47.307  1.00  0.00     0.012 C 
HETATM   11  C   UNL     1       2.127  28.564  47.624  1.00  0.00     0.008 C 
HETATM   12  C   UNL     1       1.259  29.278  46.545  1.00  0.00     0.020 C 
HETATM   13  C   UNL     1       1.824  27.041  47.498  1.00  0.00     0.128 C 
HETATM   14  C   UNL     1       2.750  26.178  48.343  1.00  0.00     0.033 C 
HETATM   15  C   UNL     1       4.207  26.384  47.959  1.00  0.00     0.013 C 
ENDROOT
BRANCH   3  16
HETATM   16  C   UNL     1       4.628  27.520  50.719  1.00  0.00     0.114 C 
BRANCH  16  17
HETATM   17  C   UNL     1       5.749  26.980  51.590  1.00  0.00     0.218 C 
HETATM   18  N   UNL     1       6.088  27.798  52.634  1.00  0.00    -0.357 N 
HETATM   19  H   UNL     1       5.909  28.789  52.483  1.00  0.00     0.162 HD
HETATM   20  O   UNL     1       6.276  25.894  51.371  1.00  0.00    -0.274 OA
BRANCH  18  21
HETATM   21  C   UNL     1       7.154  27.458  53.542  1.00  0.00     0.161 C 
BRANCH  21  22
HETATM   22  C   UNL     1       6.602  26.712  54.726  1.00  0.00    -0.041 A 
HETATM   23  C   UNL     1       6.992  25.384  54.958  1.00  0.00     0.009 A 
HETATM   24  C   UNL     1       6.463  24.665  56.031  1.00  0.00     0.001 A 
HETATM   25  C   UNL     1       5.539  25.267  56.882  1.00  0.00     0.000 A 
HETATM   26  C   UNL     1       5.145  26.585  56.661  1.00  0.00     0.001 A 
HETATM   27  C   UNL     1       5.673  27.306  55.588  1.00  0.00     0.009 A 
ENDBRANCH  21  22
ENDBRANCH  18  21
ENDBRANCH  16  17
ENDBRANCH   3  16
BRANCH  11  28
HETATM   28  C   UNL     1       1.679  29.123  49.000  1.00  0.00     0.176 C 
BRANCH  28  29
HETATM   29  O   UNL     1       0.895  30.307  48.893  1.00  0.00    -0.400 OA
HETATM   30  H   UNL     1       1.510  31.060  49.022  1.00  0.00     0.209 HD
ENDBRANCH  28  29
ENDBRANCH  11  28
BRANCH   7  31
HETATM   31  N   UNL     1       5.241  32.576  51.873  1.00  0.00    -0.304 N 
HETATM   32  C   UNL     1       4.349  32.880  52.879  1.00  0.00     0.247 C 
HETATM   33  O   UNL     1       3.205  32.459  53.022  1.00  0.00    -0.271 OA
HETATM   34  H   UNL     1       6.145  33.034  51.894  1.00  0.00     0.171 HD
BRANCH  32  35
HETATM   35  C   UNL     1       4.964  33.831  53.910  1.00  0.00     0.270 C 
BRANCH  35  36
HETATM   36  O   UNL     1       4.246  33.865  55.140  1.00  0.00    -0.387 OA
HETATM   37  C   UNL     1       4.807  32.984  56.108  1.00  0.00     0.202 C 
ENDBRANCH  35  36
ENDBRANCH  32  35
ENDBRANCH   7  31
BRANCH  13  38
HETATM   38  O   UNL     1       0.477  26.755  47.884  1.00  0.00    -0.395 OA
HETATM   39  H   UNL     1      -0.070  27.520  47.624  1.00  0.00     0.210 HD
ENDBRANCH  13  38
TORSDOF 10
ENDMDL
MODEL 8
REMARK VINA RESULT:      -7.5      3.785      7.250
REMARK  10 active torsions:
REMARK  status: ('A' for Active; 'I' for Inactive)
REMARK    1  A    between atoms: C_3  and  C_4 
REMARK    2  A    between atoms: C_4  and  C_5 
REMARK       I    between atoms: C_5  and  N_6 
REMARK    3  A    between atoms: N_6  and  C_7 
REMARK    4  A    between atoms: C_7  and  C_8 
REMARK    5  A    between atoms: C_18  and  N_19 
REMARK       I    between atoms: N_19  and  C_20 
REMARK    6  A    between atoms: C_20  and  C_21 
REMARK    7  A    between atoms: C_21  and  O_22 
REMARK    8  A    between atoms: C_28  and  C_29 
REMARK    9  A    between atoms: C_29  and  O_30 
REMARK   10  A    between atoms: C_32  and  O_33 
ROOT
HETATM    1  C   UNL     1       6.051  29.765  49.701  1.00  0.00     0.016 C 
HETATM    2  C   UNL     1       4.781  28.863  49.902  1.00  0.00    -0.030 C 
HETATM    3  C   UNL     1       4.009  29.519  51.156  1.00  0.00     0.056 C 
HETATM    4  C   UNL     1       2.945  30.498  50.697  1.00  0.00     0.056 A 
HETATM    5  C   UNL     1       2.704  30.822  49.381  1.00  0.00     0.012 A 
HETATM    6  S   UNL     1       1.467  31.984  49.269  1.00  0.00    -0.055 SA
HETATM    7  C   UNL     1       1.302  31.959  50.964  1.00  0.00     0.174 A 
HETATM    8  N   UNL     1       2.120  31.150  51.604  1.00  0.00    -0.227 NA
HETATM    9  C   UNL     1       3.394  30.265  48.196  1.00  0.00     0.055 C 
HETATM   10  C   UNL     1       3.989  28.869  48.517  1.00  0.00     0.012 C 
HETATM   11  C   UNL     1       2.998  27.659  48.256  1.00  0.00     0.008 C 
HETATM   12  C   UNL     1       2.635  27.606  46.741  1.00  0.00     0.020 C 
HETATM   13  C   UNL     1       3.740  26.327  48.579  1.00  0.00     0.128 C 
HETATM   14  C   UNL     1       4.349  26.309  49.974  1.00  0.00     0.033 C 
HETATM   15  C   UNL     1       5.348  27.442  50.160  1.00  0.00     0.013 C 
ENDROOT
BRANCH   3  16
HETATM   16  C   UNL     1       3.478  28.563  52.240  1.00  0.00     0.114 C 
BRANCH  16  17
HETATM   17  C   UNL     1       4.544  28.219  53.265  1.00  0.00     0.218 C 
HETATM   18  N   UNL     1       4.549  26.903  53.644  1.00  0.00    -0.357 N 
HETATM   19  H   UNL     1       3.652  26.428  53.573  1.00  0.00     0.162 HD
HETATM   20  O   UNL     1       5.335  29.057  53.687  1.00  0.00    -0.274 OA
BRANCH  18  21
HETATM   21  C   UNL     1       5.473  26.407  54.633  1.00  0.00     0.161 C 
BRANCH  21  22
HETATM   22  C   UNL     1       6.387  25.384  54.016  1.00  0.00    -0.041 A 
HETATM   23  C   UNL     1       6.995  25.644  52.779  1.00  0.00     0.009 A 
HETATM   24  C   UNL     1       7.817  24.691  52.176  1.00  0.00     0.001 A 
HETATM   25  C   UNL     1       8.038  23.468  52.804  1.00  0.00     0.000 A 
HETATM   26  C   UNL     1       7.439  23.198  54.033  1.00  0.00     0.001 A 
HETATM   27  C   UNL     1       6.617  24.151  54.638  1.00  0.00     0.009 A 
ENDBRANCH  21  22
ENDBRANCH  18  21
ENDBRANCH  16  17
ENDBRANCH   3  16
BRANCH  11  28
HETATM   28  C   UNL     1       1.660  27.770  49.033  1.00  0.00     0.176 C 
BRANCH  28  29
HETATM   29  O   UNL     1       0.662  26.874  48.555  1.00  0.00    -0.400 OA
HETATM   30  H   UNL     1       0.340  27.244  47.704  1.00  0.00     0.209 HD
ENDBRANCH  28  29
ENDBRANCH  11  28
BRANCH   7  31
HETATM   31  N   UNL     1       0.374  32.718  51.628  1.00  0.00    -0.304 N 
HETATM   32  C   UNL     1       0.516  34.018  52.064  1.00  0.00     0.247 C 
HETATM   33  O   UNL     1       1.495  34.748  51.948  1.00  0.00    -0.271 OA
HETATM   34  H   UNL     1      -0.502  32.249  51.828  1.00  0.00     0.171 HD
BRANCH  32  35
HETATM   35  C   UNL     1      -0.767  34.535  52.721  1.00  0.00     0.270 C 
BRANCH  35  36
HETATM   36  O   UNL     1      -1.822  33.577  52.722  1.00  0.00    -0.387 OA
HETATM   37  C   UNL     1      -2.248  33.256  54.043  1.00  0.00     0.202 C 
ENDBRANCH  35  36
ENDBRANCH  32  35
ENDBRANCH   7  31
BRANCH  13  38
HETATM   38  O   UNL     1       2.854  25.210  48.469  1.00  0.00    -0.395 OA
HETATM   39  H   UNL     1       3.208  24.625  47.772  1.00  0.00     0.210 HD
ENDBRANCH  13  38
TORSDOF 10
ENDMDL
MODEL 9
REMARK VINA RESULT:      -7.3      5.402      8.234
REMARK  10 active torsions:
REMARK  status: ('A' for Active; 'I' for Inactive)
REMARK    1  A    between atoms: C_3  and  C_4 
REMARK    2  A    between atoms: C_4  and  C_5 
REMARK       I    between atoms: C_5  and  N_6 
REMARK    3  A    between atoms: N_6  and  C_7 
REMARK    4  A    between atoms: C_7  and  C_8 
REMARK    5  A    between atoms: C_18  and  N_19 
REMARK       I    between atoms: N_19  and  C_20 
REMARK    6  A    between atoms: C_20  and  C_21 
REMARK    7  A    between atoms: C_21  and  O_22 
REMARK    8  A    between atoms: C_28  and  C_29 
REMARK    9  A    between atoms: C_29  and  O_30 
REMARK   10  A    between atoms: C_32  and  O_33 
ROOT
HETATM    1  C   UNL     1       3.825  31.270  62.121  1.00  0.00     0.016 C 
HETATM    2  C   UNL     1       4.795  32.504  62.111  1.00  0.00    -0.030 C 
HETATM    3  C   UNL     1       5.574  32.400  60.704  1.00  0.00     0.056 C 
HETATM    4  C   UNL     1       4.892  33.231  59.634  1.00  0.00     0.056 A 
HETATM    5  C   UNL     1       3.729  33.942  59.826  1.00  0.00     0.012 A 
HETATM    6  S   UNL     1       3.252  34.709  58.385  1.00  0.00    -0.055 SA
HETATM    7  C   UNL     1       4.632  34.085  57.606  1.00  0.00     0.174 A 
HETATM    8  N   UNL     1       5.414  33.331  58.351  1.00  0.00    -0.227 NA
HETATM    9  C   UNL     1       2.965  34.056  61.089  1.00  0.00     0.055 C 
HETATM   10  C   UNL     1       3.887  33.802  62.310  1.00  0.00     0.012 C 
HETATM   11  C   UNL     1       4.609  35.100  62.866  1.00  0.00     0.008 C 
HETATM   12  C   UNL     1       3.537  36.111  63.373  1.00  0.00     0.020 C 
HETATM   13  C   UNL     1       5.463  34.703  64.108  1.00  0.00     0.128 C 
HETATM   14  C   UNL     1       6.427  33.558  63.826  1.00  0.00     0.033 C 
HETATM   15  C   UNL     1       5.689  32.311  63.364  1.00  0.00     0.013 C 
ENDROOT
BRANCH   3  16
HETATM   16  C   UNL     1       7.098  32.626  60.719  1.00  0.00     0.114 C 
BRANCH  16  17
HETATM   17  C   UNL     1       7.859  31.385  60.289  1.00  0.00     0.218 C 
HETATM   18  N   UNL     1       7.372  30.798  59.151  1.00  0.00    -0.357 N 
HETATM   19  H   UNL     1       6.381  30.949  58.976  1.00  0.00     0.162 HD
HETATM   20  O   UNL     1       8.833  30.973  60.910  1.00  0.00    -0.274 OA
BRANCH  18  21
HETATM   21  C   UNL     1       7.952  29.591  58.619  1.00  0.00     0.161 C 
BRANCH  21  22
HETATM   22  C   UNL     1       6.944  28.868  57.767  1.00  0.00    -0.041 A 
HETATM   23  C   UNL     1       5.776  29.527  57.356  1.00  0.00     0.009 A 
HETATM   24  C   UNL     1       4.814  28.861  56.595  1.00  0.00     0.001 A 
HETATM   25  C   UNL     1       5.011  27.528  56.239  1.00  0.00     0.000 A 
HETATM   26  C   UNL     1       6.168  26.864  56.642  1.00  0.00     0.001 A 
HETATM   27  C   UNL     1       7.132  27.529  57.403  1.00  0.00     0.009 A 
ENDBRANCH  21  22
ENDBRANCH  18  21
ENDBRANCH  16  17
ENDBRANCH   3  16
BRANCH  11  28
HETATM   28  C   UNL     1       5.460  35.845  61.804  1.00  0.00     0.176 C 
BRANCH  28  29
HETATM   29  O   UNL     1       5.737  37.196  62.159  1.00  0.00    -0.400 OA
HETATM   30  H   UNL     1       6.695  37.237  62.369  1.00  0.00     0.209 HD
ENDBRANCH  28  29
ENDBRANCH  11  28
BRANCH   7  31
HETATM   31  N   UNL     1       4.925  34.351  56.294  1.00  0.00    -0.304 N 
HETATM   32  C   UNL     1       4.922  33.463  55.240  1.00  0.00     0.247 C 
HETATM   33  O   UNL     1       4.662  32.264  55.268  1.00  0.00    -0.271 OA
HETATM   34  H   UNL     1       5.188  35.310  56.099  1.00  0.00     0.171 HD
BRANCH  32  35
HETATM   35  C   UNL     1       5.257  34.157  53.917  1.00  0.00     0.270 C 
BRANCH  35  36
HETATM   36  O   UNL     1       4.473  33.687  52.823  1.00  0.00    -0.387 OA
HETATM   37  C   UNL     1       3.348  34.524  52.576  1.00  0.00     0.202 C 
ENDBRANCH  35  36
ENDBRANCH  32  35
ENDBRANCH   7  31
BRANCH  13  38
HETATM   38  O   UNL     1       6.225  35.816  64.581  1.00  0.00    -0.395 OA
HETATM   39  H   UNL     1       5.953  35.987  65.502  1.00  0.00     0.210 HD
ENDBRANCH  13  38
TORSDOF 10
ENDMDL
MODEL 10
REMARK VINA RESULT:      -7.1      6.594      9.956
REMARK  10 active torsions:
REMARK  status: ('A' for Active; 'I' for Inactive)
REMARK    1  A    between atoms: C_3  and  C_4 
REMARK    2  A    between atoms: C_4  and  C_5 
REMARK       I    between atoms: C_5  and  N_6 
REMARK    3  A    between atoms: N_6  and  C_7 
REMARK    4  A    between atoms: C_7  and  C_8 
REMARK    5  A    between atoms: C_18  and  N_19 
REMARK       I    between atoms: N_19  and  C_20 
REMARK    6  A    between atoms: C_20  and  C_21 
REMARK    7  A    between atoms: C_21  and  O_22 
REMARK    8  A    between atoms: C_28  and  C_29 
REMARK    9  A    between atoms: C_29  and  O_30 
REMARK   10  A    between atoms: C_32  and  O_33 
ROOT
HETATM    1  C   UNL     1       3.004  34.333  63.664  1.00  0.00     0.016 C 
HETATM    2  C   UNL     1       4.091  35.213  62.951  1.00  0.00    -0.030 C 
HETATM    3  C   UNL     1       4.862  34.195  61.968  1.00  0.00     0.056 C 
HETATM    4  C   UNL     1       4.270  34.223  60.572  1.00  0.00     0.056 A 
HETATM    5  C   UNL     1       3.182  34.983  60.204  1.00  0.00     0.012 A 
HETATM    6  S   UNL     1       2.790  34.714  58.572  1.00  0.00    -0.055 SA
HETATM    7  C   UNL     1       4.103  33.639  58.441  1.00  0.00     0.174 A 
HETATM    8  N   UNL     1       4.804  33.460  59.542  1.00  0.00    -0.227 NA
HETATM    9  C   UNL     1       2.428  35.918  61.070  1.00  0.00     0.055 C 
HETATM   10  C   UNL     1       3.316  36.414  62.241  1.00  0.00     0.012 C 
HETATM   11  C   UNL     1       4.160  37.716  61.916  1.00  0.00     0.008 C 
HETATM   12  C   UNL     1       3.191  38.899  61.614  1.00  0.00     0.020 C 
HETATM   13  C   UNL     1       4.966  38.120  63.188  1.00  0.00     0.128 C 
HETATM   14  C   UNL     1       5.813  36.982  63.741  1.00  0.00     0.033 C 
HETATM   15  C   UNL     1       4.956  35.779  64.108  1.00  0.00     0.013 C 
ENDROOT
BRANCH   3  16
HETATM   16  C   UNL     1       6.400  34.266  61.938  1.00  0.00     0.114 C 
BRANCH  16  17
HETATM   17  C   UNL     1       7.035  32.901  62.138  1.00  0.00     0.218 C 
HETATM   18  N   UNL     1       7.524  32.339  60.989  1.00  0.00    -0.357 N 
HETATM   19  H   UNL     1       7.060  32.633  60.132  1.00  0.00     0.162 HD
HETATM   20  O   UNL     1       7.110  32.375  63.244  1.00  0.00    -0.274 OA
BRANCH  18  21
HETATM   21  C   UNL     1       8.129  31.031  60.988  1.00  0.00     0.161 C 
BRANCH  21  22
HETATM   22  C   UNL     1       8.750  30.753  59.646  1.00  0.00    -0.041 A 
HETATM   23  C   UNL     1       8.254  29.711  58.848  1.00  0.00     0.009 A 
HETATM   24  C   UNL     1       8.841  29.416  57.617  1.00  0.00     0.001 A 
HETATM   25  C   UNL     1       9.931  30.161  57.172  1.00  0.00     0.000 A 
HETATM   26  C   UNL     1      10.431  31.199  57.956  1.00  0.00     0.001 A 
HETATM   27  C   UNL     1       9.845  31.495  59.188  1.00  0.00     0.009 A 
ENDBRANCH  21  22
ENDBRANCH  18  21
ENDBRANCH  16  17
ENDBRANCH   3  16
BRANCH  11  28
HETATM   28  C   UNL     1       5.084  37.568  60.679  1.00  0.00     0.176 C 
BRANCH  28  29
HETATM   29  O   UNL     1       5.281  38.793  59.979  1.00  0.00    -0.400 OA
HETATM   30  H   UNL     1       5.828  39.362  60.563  1.00  0.00     0.209 HD
ENDBRANCH  28  29
ENDBRANCH  11  28
BRANCH   7  31
HETATM   31  N   UNL     1       4.427  33.005  57.271  1.00  0.00    -0.304 N 
HETATM   32  C   UNL     1       3.908  31.822  56.790  1.00  0.00     0.247 C 
HETATM   33  O   UNL     1       3.061  31.104  57.314  1.00  0.00    -0.271 OA
HETATM   34  H   UNL     1       5.142  33.462  56.717  1.00  0.00     0.171 HD
BRANCH  32  35
HETATM   35  C   UNL     1       4.489  31.466  55.419  1.00  0.00     0.270 C 
BRANCH  35  36
HETATM   36  O   UNL     1       4.218  30.124  55.025  1.00  0.00    -0.387 OA
HETATM   37  C   UNL     1       3.847  30.036  53.653  1.00  0.00     0.202 C 
ENDBRANCH  35  36
ENDBRANCH  32  35
ENDBRANCH   7  31
BRANCH  13  38
HETATM   38  O   UNL     1       5.832  39.224  62.914  1.00  0.00    -0.395 OA
HETATM   39  H   UNL     1       6.257  39.477  63.755  1.00  0.00     0.210 HD
ENDBRANCH  13  38
TORSDOF 10
ENDMDL
