MODEL 1
REMARK VINA RESULT:     -10.7      0.000      0.000
REMARK  7 active torsions:
REMARK  status: ('A' for Active; 'I' for Inactive)
REMARK    1  A    between atoms: C_3  and  C_4 
REMARK    2  A    between atoms: C_4  and  S_5 
REMARK    3  A    between atoms: S_5  and  C_6 
REMARK    4  A    between atoms: C_6  and  C_7 
REMARK    5  A    between atoms: C_16  and  C_17 
REMARK       I    between atoms: C_17  and  N_18 
REMARK    6  A    between atoms: N_18  and  C_19 
REMARK    7  A    between atoms: C_19  and  C_20 
ROOT
HETATM    1  C   UNL     1       6.615  27.881  54.251  1.00  0.00     0.162 C 
HETATM    2  N   UNL     1       7.928  28.534  54.507  1.00  0.00    -0.277 NA
HETATM    3  C   UNL     1       8.078  29.051  55.808  1.00  0.00     0.036 A 
HETATM    4  C   UNL     1       6.962  29.476  56.556  1.00  0.00     0.057 A 
HETATM    5  N   UNL     1       5.675  29.336  56.020  1.00  0.00    -0.324 N 
HETATM    6  C   UNL     1       5.448  28.707  54.820  1.00  0.00     0.240 C 
HETATM    7  O   UNL     1       4.339  28.754  54.289  1.00  0.00    -0.271 OA
HETATM    8  C   UNL     1       9.356  29.305  56.313  1.00  0.00     0.027 A 
HETATM    9  C   UNL     1       9.517  29.886  57.574  1.00  0.00     0.019 A 
HETATM   10  C   UNL     1       8.398  30.244  58.336  1.00  0.00     0.034 A 
HETATM   11  C   UNL     1       7.113  30.068  57.810  1.00  0.00     0.048 A 
HETATM   12  H   UNL     1       8.729  27.988  54.201  1.00  0.00     0.128 HD
HETATM   13  H   UNL     1       4.881  29.792  56.447  1.00  0.00     0.169 HD
ENDROOT
BRANCH  10  14
HETATM   14  C   UNL     1       8.611  30.844  59.680  1.00  0.00     0.252 C 
HETATM   15  N   UNL     1       7.541  30.784  60.541  1.00  0.00    -0.353 N 
HETATM   16  H   UNL     1       6.705  30.276  60.290  1.00  0.00     0.163 HD
HETATM   17  O   UNL     1       9.697  31.326  59.978  1.00  0.00    -0.268 OA
BRANCH  15  18
HETATM   18  C   UNL     1       7.602  31.399  61.846  1.00  0.00     0.163 C 
BRANCH  18  19
HETATM   19  C   UNL     1       6.707  32.609  61.926  1.00  0.00    -0.019 A 
HETATM   20  C   UNL     1       6.751  33.512  63.000  1.00  0.00     0.042 A 
HETATM   21 CL   UNL     1       7.846  33.304  64.321  1.00  0.00    -0.084 Cl
HETATM   22  C   UNL     1       5.914  34.631  63.025  1.00  0.00     0.024 A 
HETATM   23  C   UNL     1       5.025  34.866  61.977  1.00  0.00     0.002 A 
HETATM   24  C   UNL     1       4.974  33.982  60.902  1.00  0.00     0.001 A 
HETATM   25  C   UNL     1       5.810  32.865  60.874  1.00  0.00     0.010 A 
ENDBRANCH  18  19
ENDBRANCH  15  18
ENDBRANCH  10  14
BRANCH   1  26
HETATM   26  C   UNL     1       6.632  26.450  54.828  1.00  0.00     0.103 C 
BRANCH  26  27
HETATM   27  S   UNL     1       6.290  25.064  53.688  1.00  0.00    -0.162 SA
BRANCH  27  28
HETATM   28  C   UNL     1       7.980  24.442  53.416  1.00  0.00     0.112 C 
BRANCH  28  29
HETATM   29  C   UNL     1       8.113  23.005  53.866  1.00  0.00    -0.043 A 
HETATM   30  C   UNL     1       8.516  22.656  55.174  1.00  0.00    -0.055 A 
HETATM   31  C   UNL     1       8.821  23.695  56.219  1.00  0.00     0.049 C 
HETATM   32  C   UNL     1       8.623  21.297  55.519  1.00  0.00     0.007 A 
HETATM   33  C   UNL     1       8.356  20.297  54.586  1.00  0.00     0.001 A 
HETATM   34  C   UNL     1       7.977  20.637  53.293  1.00  0.00     0.001 A 
HETATM   35  C   UNL     1       7.856  21.980  52.935  1.00  0.00     0.008 A 
ENDBRANCH  28  29
ENDBRANCH  27  28
ENDBRANCH  26  27
ENDBRANCH   1  26
TORSDOF 7
ENDMDL
MODEL 2
REMARK VINA RESULT:     -10.5      1.655      2.161
REMARK  7 active torsions:
REMARK  status: ('A' for Active; 'I' for Inactive)
REMARK    1  A    between atoms: C_3  and  C_4 
REMARK    2  A    between atoms: C_4  and  S_5 
REMARK    3  A    between atoms: S_5  and  C_6 
REMARK    4  A    between atoms: C_6  and  C_7 
REMARK    5  A    between atoms: C_16  and  C_17 
REMARK       I    between atoms: C_17  and  N_18 
REMARK    6  A    between atoms: N_18  and  C_19 
REMARK    7  A    between atoms: C_19  and  C_20 
ROOT
HETATM    1  C   UNL     1       7.531  27.239  55.139  1.00  0.00     0.162 C 
HETATM    2  N   UNL     1       8.342  27.842  56.232  1.00  0.00    -0.277 NA
HETATM    3  C   UNL     1       7.700  28.883  56.929  1.00  0.00     0.036 A 
HETATM    4  C   UNL     1       6.719  29.679  56.307  1.00  0.00     0.057 A 
HETATM    5  N   UNL     1       6.336  29.402  54.988  1.00  0.00    -0.324 N 
HETATM    6  C   UNL     1       6.817  28.314  54.300  1.00  0.00     0.240 C 
HETATM    7  O   UNL     1       6.607  28.192  53.094  1.00  0.00    -0.271 OA
HETATM    8  C   UNL     1       8.148  29.247  58.202  1.00  0.00     0.027 A 
HETATM    9  C   UNL     1       7.566  30.325  58.875  1.00  0.00     0.019 A 
HETATM   10  C   UNL     1       6.545  31.069  58.270  1.00  0.00     0.034 A 
HETATM   11  C   UNL     1       6.141  30.765  56.966  1.00  0.00     0.048 A 
HETATM   12  H   UNL     1       8.780  27.161  56.846  1.00  0.00     0.128 HD
HETATM   13  H   UNL     1       5.777  30.057  54.459  1.00  0.00     0.169 HD
ENDROOT
BRANCH  10  14
HETATM   14  C   UNL     1       5.941  32.199  59.026  1.00  0.00     0.252 C 
HETATM   15  N   UNL     1       5.786  32.001  60.378  1.00  0.00    -0.353 N 
HETATM   16  H   UNL     1       6.153  31.172  60.824  1.00  0.00     0.163 HD
HETATM   17  O   UNL     1       5.640  33.238  58.452  1.00  0.00    -0.268 OA
BRANCH  15  18
HETATM   18  C   UNL     1       5.143  32.994  61.205  1.00  0.00     0.163 C 
BRANCH  18  19
HETATM   19  C   UNL     1       5.902  33.214  62.490  1.00  0.00    -0.019 A 
HETATM   20  C   UNL     1       5.373  33.949  63.563  1.00  0.00     0.042 A 
HETATM   21 CL   UNL     1       3.800  34.661  63.493  1.00  0.00    -0.084 Cl
HETATM   22  C   UNL     1       6.105  34.113  64.743  1.00  0.00     0.024 A 
HETATM   23  C   UNL     1       7.371  33.543  64.868  1.00  0.00     0.002 A 
HETATM   24  C   UNL     1       7.906  32.806  63.815  1.00  0.00     0.001 A 
HETATM   25  C   UNL     1       7.176  32.639  62.637  1.00  0.00     0.010 A 
ENDBRANCH  18  19
ENDBRANCH  15  18
ENDBRANCH  10  14
BRANCH   1  26
HETATM   26  C   UNL     1       6.530  26.230  55.741  1.00  0.00     0.103 C 
BRANCH  26  27
HETATM   27  S   UNL     1       6.063  24.782  54.730  1.00  0.00    -0.162 SA
BRANCH  27  28
HETATM   28  C   UNL     1       7.691  24.316  54.059  1.00  0.00     0.112 C 
BRANCH  28  29
HETATM   29  C   UNL     1       7.969  22.845  54.273  1.00  0.00    -0.043 A 
HETATM   30  C   UNL     1       8.345  22.321  55.529  1.00  0.00    -0.055 A 
HETATM   31  C   UNL     1       8.474  23.191  56.751  1.00  0.00     0.049 C 
HETATM   32  C   UNL     1       8.594  20.943  55.651  1.00  0.00     0.007 A 
HETATM   33  C   UNL     1       8.493  20.095  54.549  1.00  0.00     0.001 A 
HETATM   34  C   UNL     1       8.141  20.611  53.307  1.00  0.00     0.001 A 
HETATM   35  C   UNL     1       7.882  21.975  53.169  1.00  0.00     0.008 A 
ENDBRANCH  28  29
ENDBRANCH  27  28
ENDBRANCH  26  27
ENDBRANCH   1  26
TORSDOF 7
ENDMDL
MODEL 3
REMARK VINA RESULT:     -10.5      3.822     10.902
REMARK  7 active torsions:
REMARK  status: ('A' for Active; 'I' for Inactive)
REMARK    1  A    between atoms: C_3  and  C_4 
REMARK    2  A    between atoms: C_4  and  S_5 
REMARK    3  A    between atoms: S_5  and  C_6 
REMARK    4  A    between atoms: C_6  and  C_7 
REMARK    5  A    between atoms: C_16  and  C_17 
REMARK       I    between atoms: C_17  and  N_18 
REMARK    6  A    between atoms: N_18  and  C_19 
REMARK    7  A    between atoms: C_19  and  C_20 
ROOT
HETATM    1  C   UNL     1       8.779  31.152  58.761  1.00  0.00     0.162 C 
HETATM    2  N   UNL     1       7.405  30.940  58.226  1.00  0.00    -0.277 NA
HETATM    3  C   UNL     1       7.211  29.696  57.595  1.00  0.00     0.036 A 
HETATM    4  C   UNL     1       8.280  29.015  56.981  1.00  0.00     0.057 A 
HETATM    5  N   UNL     1       9.571  29.556  57.041  1.00  0.00    -0.324 N 
HETATM    6  C   UNL     1       9.856  30.690  57.763  1.00  0.00     0.240 C 
HETATM    7  O   UNL     1      10.950  31.242  57.656  1.00  0.00    -0.271 OA
HETATM    8  C   UNL     1       5.916  29.198  57.425  1.00  0.00     0.027 A 
HETATM    9  C   UNL     1       5.703  28.000  56.737  1.00  0.00     0.019 A 
HETATM   10  C   UNL     1       6.784  27.298  56.188  1.00  0.00     0.034 A 
HETATM   11  C   UNL     1       8.076  27.825  56.282  1.00  0.00     0.048 A 
HETATM   12  H   UNL     1       6.665  31.175  58.881  1.00  0.00     0.128 HD
HETATM   13  H   UNL     1      10.316  29.192  56.463  1.00  0.00     0.169 HD
ENDROOT
BRANCH  10  14
HETATM   14  C   UNL     1       6.517  26.019  55.478  1.00  0.00     0.252 C 
HETATM   15  N   UNL     1       7.624  25.340  55.027  1.00  0.00    -0.353 N 
HETATM   16  H   UNL     1       8.555  25.660  55.257  1.00  0.00     0.163 HD
HETATM   17  O   UNL     1       5.369  25.610  55.348  1.00  0.00    -0.268 OA
BRANCH  15  18
HETATM   18  C   UNL     1       7.489  24.125  54.258  1.00  0.00     0.163 C 
BRANCH  18  19
HETATM   19  C   UNL     1       7.835  22.912  55.084  1.00  0.00    -0.019 A 
HETATM   20  C   UNL     1       8.002  21.637  54.520  1.00  0.00     0.042 A 
HETATM   21 CL   UNL     1       7.826  21.361  52.823  1.00  0.00    -0.084 Cl
HETATM   22  C   UNL     1       8.339  20.542  55.322  1.00  0.00     0.024 A 
HETATM   23  C   UNL     1       8.518  20.706  56.695  1.00  0.00     0.002 A 
HETATM   24  C   UNL     1       8.361  21.966  57.268  1.00  0.00     0.001 A 
HETATM   25  C   UNL     1       8.026  23.060  56.469  1.00  0.00     0.010 A 
ENDBRANCH  18  19
ENDBRANCH  15  18
ENDBRANCH  10  14
BRANCH   1  26
HETATM   26  C   UNL     1       8.916  30.431  60.119  1.00  0.00     0.103 C 
BRANCH  26  27
HETATM   27  S   UNL     1       9.276  31.448  61.593  1.00  0.00    -0.162 SA
BRANCH  27  28
HETATM   28  C   UNL     1       7.749  31.184  62.550  1.00  0.00     0.112 C 
BRANCH  28  29
HETATM   29  C   UNL     1       7.191  32.493  63.062  1.00  0.00    -0.043 A 
HETATM   30  C   UNL     1       6.340  33.308  62.284  1.00  0.00    -0.055 A 
HETATM   31  C   UNL     1       5.911  32.917  60.895  1.00  0.00     0.049 C 
HETATM   32  C   UNL     1       5.863  34.515  62.825  1.00  0.00     0.007 A 
HETATM   33  C   UNL     1       6.234  34.924  64.104  1.00  0.00     0.001 A 
HETATM   34  C   UNL     1       7.087  34.132  64.865  1.00  0.00     0.001 A 
HETATM   35  C   UNL     1       7.562  32.927  64.349  1.00  0.00     0.008 A 
ENDBRANCH  28  29
ENDBRANCH  27  28
ENDBRANCH  26  27
ENDBRANCH   1  26
TORSDOF 7
ENDMDL
MODEL 4
REMARK VINA RESULT:     -10.4      5.594      9.543
REMARK  7 active torsions:
REMARK  status: ('A' for Active; 'I' for Inactive)
REMARK    1  A    between atoms: C_3  and  C_4 
REMARK    2  A    between atoms: C_4  and  S_5 
REMARK    3  A    between atoms: S_5  and  C_6 
REMARK    4  A    between atoms: C_6  and  C_7 
REMARK    5  A    between atoms: C_16  and  C_17 
REMARK       I    between atoms: C_17  and  N_18 
REMARK    6  A    between atoms: N_18  and  C_19 
REMARK    7  A    between atoms: C_19  and  C_20 
ROOT
HETATM    1  C   UNL     1       5.647  26.657  56.947  1.00  0.00     0.162 C 
HETATM    2  N   UNL     1       5.032  25.767  55.924  1.00  0.00    -0.277 NA
HETATM    3  C   UNL     1       5.152  26.231  54.600  1.00  0.00     0.036 A 
HETATM    4  C   UNL     1       5.252  27.607  54.316  1.00  0.00     0.057 A 
HETATM    5  N   UNL     1       5.283  28.531  55.370  1.00  0.00    -0.324 N 
HETATM    6  C   UNL     1       5.316  28.138  56.685  1.00  0.00     0.240 C 
HETATM    7  O   UNL     1       5.164  28.959  57.588  1.00  0.00    -0.271 OA
HETATM    8  C   UNL     1       5.007  25.338  53.534  1.00  0.00     0.027 A 
HETATM    9  C   UNL     1       5.052  25.798  52.214  1.00  0.00     0.019 A 
HETATM   10  C   UNL     1       5.217  27.162  51.946  1.00  0.00     0.034 A 
HETATM   11  C   UNL     1       5.284  28.076  53.003  1.00  0.00     0.048 A 
HETATM   12  H   UNL     1       5.278  24.787  56.026  1.00  0.00     0.128 HD
HETATM   13  H   UNL     1       5.171  29.521  55.198  1.00  0.00     0.169 HD
ENDROOT
BRANCH  10  14
HETATM   14  C   UNL     1       5.276  27.608  50.528  1.00  0.00     0.252 C 
HETATM   15  N   UNL     1       4.900  26.676  49.589  1.00  0.00    -0.353 N 
HETATM   16  H   UNL     1       4.521  25.783  49.872  1.00  0.00     0.163 HD
HETATM   17  O   UNL     1       5.614  28.752  50.252  1.00  0.00    -0.268 OA
BRANCH  15  18
HETATM   18  C   UNL     1       4.987  26.966  48.178  1.00  0.00     0.163 C 
BRANCH  18  19
HETATM   19  C   UNL     1       3.650  27.382  47.620  1.00  0.00    -0.019 A 
HETATM   20  C   UNL     1       2.636  26.458  47.322  1.00  0.00     0.042 A 
HETATM   21 CL   UNL     1       2.844  24.762  47.579  1.00  0.00    -0.084 Cl
HETATM   22  C   UNL     1       1.403  26.890  46.822  1.00  0.00     0.024 A 
HETATM   23  C   UNL     1       1.167  28.248  46.615  1.00  0.00     0.002 A 
HETATM   24  C   UNL     1       2.161  29.176  46.911  1.00  0.00     0.001 A 
HETATM   25  C   UNL     1       3.391  28.748  47.413  1.00  0.00     0.010 A 
ENDBRANCH  18  19
ENDBRANCH  15  18
ENDBRANCH  10  14
BRANCH   1  26
HETATM   26  C   UNL     1       7.170  26.414  56.990  1.00  0.00     0.103 C 
BRANCH  26  27
HETATM   27  S   UNL     1       7.759  24.685  56.981  1.00  0.00    -0.162 SA
BRANCH  27  28
HETATM   28  C   UNL     1       8.305  24.537  55.250  1.00  0.00     0.112 C 
BRANCH  28  29
HETATM   29  C   UNL     1       8.149  23.119  54.747  1.00  0.00    -0.043 A 
HETATM   30  C   UNL     1       8.029  22.813  53.374  1.00  0.00    -0.055 A 
HETATM   31  C   UNL     1       8.070  23.879  52.312  1.00  0.00     0.049 C 
HETATM   32  C   UNL     1       7.881  21.472  52.980  1.00  0.00     0.007 A 
HETATM   33  C   UNL     1       7.832  20.448  53.925  1.00  0.00     0.001 A 
HETATM   34  C   UNL     1       7.931  20.748  55.279  1.00  0.00     0.001 A 
HETATM   35  C   UNL     1       8.088  22.073  55.687  1.00  0.00     0.008 A 
ENDBRANCH  28  29
ENDBRANCH  27  28
ENDBRANCH  26  27
ENDBRANCH   1  26
TORSDOF 7
ENDMDL
MODEL 5
REMARK VINA RESULT:     -10.4      4.433      8.231
REMARK  7 active torsions:
REMARK  status: ('A' for Active; 'I' for Inactive)
REMARK    1  A    between atoms: C_3  and  C_4 
REMARK    2  A    between atoms: C_4  and  S_5 
REMARK    3  A    between atoms: S_5  and  C_6 
REMARK    4  A    between atoms: C_6  and  C_7 
REMARK    5  A    between atoms: C_16  and  C_17 
REMARK       I    between atoms: C_17  and  N_18 
REMARK    6  A    between atoms: N_18  and  C_19 
REMARK    7  A    between atoms: C_19  and  C_20 
ROOT
HETATM    1  C   UNL     1       4.259  31.323  56.142  1.00  0.00     0.162 C 
HETATM    2  N   UNL     1       5.655  31.038  55.707  1.00  0.00    -0.277 NA
HETATM    3  C   UNL     1       6.127  29.761  56.066  1.00  0.00     0.036 A 
HETATM    4  C   UNL     1       5.630  29.092  57.201  1.00  0.00     0.057 A 
HETATM    5  N   UNL     1       4.612  29.682  57.961  1.00  0.00    -0.324 N 
HETATM    6  C   UNL     1       4.006  30.856  57.586  1.00  0.00     0.240 C 
HETATM    7  O   UNL     1       3.246  31.442  58.356  1.00  0.00    -0.271 OA
HETATM    8  C   UNL     1       7.219  29.209  55.390  1.00  0.00     0.027 A 
HETATM    9  C   UNL     1       7.744  27.973  55.782  1.00  0.00     0.019 A 
HETATM   10  C   UNL     1       7.197  27.288  56.874  1.00  0.00     0.034 A 
HETATM   11  C   UNL     1       6.156  27.865  57.608  1.00  0.00     0.048 A 
HETATM   12  H   UNL     1       5.843  31.275  54.738  1.00  0.00     0.128 HD
HETATM   13  H   UNL     1       4.365  29.319  58.872  1.00  0.00     0.169 HD
ENDROOT
BRANCH  10  14
HETATM   14  C   UNL     1       7.774  25.969  57.249  1.00  0.00     0.252 C 
HETATM   15  N   UNL     1       8.048  25.115  56.206  1.00  0.00    -0.353 N 
HETATM   16  H   UNL     1       7.947  25.421  55.249  1.00  0.00     0.163 HD
HETATM   17  O   UNL     1       8.005  25.705  58.422  1.00  0.00    -0.268 OA
BRANCH  15  18
HETATM   18  C   UNL     1       8.539  23.780  56.449  1.00  0.00     0.163 C 
BRANCH  18  19
HETATM   19  C   UNL     1       8.313  22.886  55.256  1.00  0.00    -0.019 A 
HETATM   20  C   UNL     1       8.255  21.487  55.361  1.00  0.00     0.042 A 
HETATM   21 CL   UNL     1       8.438  20.678  56.877  1.00  0.00    -0.084 Cl
HETATM   22  C   UNL     1       8.026  20.697  54.230  1.00  0.00     0.024 A 
HETATM   23  C   UNL     1       7.847  21.292  52.983  1.00  0.00     0.002 A 
HETATM   24  C   UNL     1       7.895  22.679  52.864  1.00  0.00     0.001 A 
HETATM   25  C   UNL     1       8.123  23.470  53.992  1.00  0.00     0.010 A 
ENDBRANCH  18  19
ENDBRANCH  15  18
ENDBRANCH  10  14
BRANCH   1  26
HETATM   26  C   UNL     1       3.271  30.670  55.152  1.00  0.00     0.103 C 
BRANCH  26  27
HETATM   27  S   UNL     1       3.937  30.032  53.576  1.00  0.00    -0.162 SA
BRANCH  27  28
HETATM   28  C   UNL     1       3.918  28.243  53.916  1.00  0.00     0.112 C 
BRANCH  28  29
HETATM   29  C   UNL     1       4.452  27.457  52.739  1.00  0.00    -0.043 A 
HETATM   30  C   UNL     1       5.053  26.187  52.887  1.00  0.00    -0.055 A 
HETATM   31  C   UNL     1       5.184  25.518  54.230  1.00  0.00     0.049 C 
HETATM   32  C   UNL     1       5.532  25.518  51.748  1.00  0.00     0.007 A 
HETATM   33  C   UNL     1       5.439  26.096  50.484  1.00  0.00     0.001 A 
HETATM   34  C   UNL     1       4.865  27.354  50.337  1.00  0.00     0.001 A 
HETATM   35  C   UNL     1       4.376  28.029  51.455  1.00  0.00     0.008 A 
ENDBRANCH  28  29
ENDBRANCH  27  28
ENDBRANCH  26  27
ENDBRANCH   1  26
TORSDOF 7
ENDMDL
MODEL 6
REMARK VINA RESULT:     -10.2      4.244     10.607
REMARK  7 active torsions:
REMARK  status: ('A' for Active; 'I' for Inactive)
REMARK    1  A    between atoms: C_3  and  C_4 
REMARK    2  A    between atoms: C_4  and  S_5 
REMARK    3  A    between atoms: S_5  and  C_6 
REMARK    4  A    between atoms: C_6  and  C_7 
REMARK    5  A    between atoms: C_16  and  C_17 
REMARK       I    between atoms: C_17  and  N_18 
REMARK    6  A    between atoms: N_18  and  C_19 
REMARK    7  A    between atoms: C_19  and  C_20 
ROOT
HETATM    1  C   UNL     1       4.428  30.972  56.764  1.00  0.00     0.162 C 
HETATM    2  N   UNL     1       4.119  29.546  57.058  1.00  0.00    -0.277 NA
HETATM    3  C   UNL     1       4.876  28.620  56.316  1.00  0.00     0.036 A 
HETATM    4  C   UNL     1       5.380  28.946  55.042  1.00  0.00     0.057 A 
HETATM    5  N   UNL     1       5.170  30.230  54.522  1.00  0.00    -0.324 N 
HETATM    6  C   UNL     1       4.567  31.224  55.252  1.00  0.00     0.240 C 
HETATM    7  O   UNL     1       4.235  32.281  54.717  1.00  0.00    -0.271 OA
HETATM    8  C   UNL     1       4.997  27.302  56.765  1.00  0.00     0.027 A 
HETATM    9  C   UNL     1       5.686  26.354  56.002  1.00  0.00     0.019 A 
HETATM   10  C   UNL     1       6.239  26.709  54.765  1.00  0.00     0.034 A 
HETATM   11  C   UNL     1       6.057  28.003  54.267  1.00  0.00     0.048 A 
HETATM   12  H   UNL     1       4.081  29.326  58.050  1.00  0.00     0.128 HD
HETATM   13  H   UNL     1       5.357  30.435  53.550  1.00  0.00     0.169 HD
ENDROOT
BRANCH  10  14
HETATM   14  C   UNL     1       6.978  25.676  53.992  1.00  0.00     0.252 C 
HETATM   15  N   UNL     1       6.576  24.375  54.190  1.00  0.00    -0.353 N 
HETATM   16  H   UNL     1       5.766  24.167  54.756  1.00  0.00     0.163 HD
HETATM   17  O   UNL     1       7.865  26.002  53.212  1.00  0.00    -0.268 OA
BRANCH  15  18
HETATM   18  C   UNL     1       7.266  23.279  53.552  1.00  0.00     0.163 C 
BRANCH  18  19
HETATM   19  C   UNL     1       7.772  22.285  54.567  1.00  0.00    -0.019 A 
HETATM   20  C   UNL     1       8.224  21.005  54.208  1.00  0.00     0.042 A 
HETATM   21 CL   UNL     1       8.238  20.469  52.565  1.00  0.00    -0.084 Cl
HETATM   22  C   UNL     1       8.701  20.120  55.181  1.00  0.00     0.024 A 
HETATM   23  C   UNL     1       8.736  20.502  56.521  1.00  0.00     0.002 A 
HETATM   24  C   UNL     1       8.296  21.771  56.890  1.00  0.00     0.001 A 
HETATM   25  C   UNL     1       7.822  22.656  55.922  1.00  0.00     0.010 A 
ENDBRANCH  18  19
ENDBRANCH  15  18
ENDBRANCH  10  14
BRANCH   1  26
HETATM   26  C   UNL     1       5.703  31.388  57.529  1.00  0.00     0.103 C 
BRANCH  26  27
HETATM   27  S   UNL     1       5.499  32.271  59.114  1.00  0.00    -0.162 SA
BRANCH  27  28
HETATM   28  C   UNL     1       7.169  32.075  59.813  1.00  0.00     0.112 C 
BRANCH  28  29
HETATM   29  C   UNL     1       7.221  32.550  61.248  1.00  0.00    -0.043 A 
HETATM   30  C   UNL     1       8.169  32.060  62.173  1.00  0.00    -0.055 A 
HETATM   31  C   UNL     1       9.210  31.044  61.786  1.00  0.00     0.049 C 
HETATM   32  C   UNL     1       8.154  32.545  63.492  1.00  0.00     0.007 A 
HETATM   33  C   UNL     1       7.207  33.483  63.901  1.00  0.00     0.001 A 
HETATM   34  C   UNL     1       6.261  33.953  62.998  1.00  0.00     0.001 A 
HETATM   35  C   UNL     1       6.267  33.490  61.682  1.00  0.00     0.008 A 
ENDBRANCH  28  29
ENDBRANCH  27  28
ENDBRANCH  26  27
ENDBRANCH   1  26
TORSDOF 7
ENDMDL
MODEL 7
REMARK VINA RESULT:      -9.9      2.326      3.263
REMARK  7 active torsions:
REMARK  status: ('A' for Active; 'I' for Inactive)
REMARK    1  A    between atoms: C_3  and  C_4 
REMARK    2  A    between atoms: C_4  and  S_5 
REMARK    3  A    between atoms: S_5  and  C_6 
REMARK    4  A    between atoms: C_6  and  C_7 
REMARK    5  A    between atoms: C_16  and  C_17 
REMARK       I    between atoms: C_17  and  N_18 
REMARK    6  A    between atoms: N_18  and  C_19 
REMARK    7  A    between atoms: C_19  and  C_20 
ROOT
HETATM    1  C   UNL     1       6.283  25.566  55.793  1.00  0.00     0.162 C 
HETATM    2  N   UNL     1       5.031  26.356  55.953  1.00  0.00    -0.277 NA
HETATM    3  C   UNL     1       5.224  27.663  56.438  1.00  0.00     0.036 A 
HETATM    4  C   UNL     1       6.325  27.982  57.257  1.00  0.00     0.057 A 
HETATM    5  N   UNL     1       7.274  26.995  57.555  1.00  0.00    -0.324 N 
HETATM    6  C   UNL     1       7.223  25.740  56.999  1.00  0.00     0.240 C 
HETATM    7  O   UNL     1       7.958  24.842  57.410  1.00  0.00    -0.271 OA
HETATM    8  C   UNL     1       4.232  28.629  56.247  1.00  0.00     0.027 A 
HETATM    9  C   UNL     1       4.379  29.911  56.785  1.00  0.00     0.019 A 
HETATM   10  C   UNL     1       5.511  30.234  57.544  1.00  0.00     0.034 A 
HETATM   11  C   UNL     1       6.474  29.254  57.809  1.00  0.00     0.048 A 
HETATM   12  H   UNL     1       4.410  26.316  55.149  1.00  0.00     0.128 HD
HETATM   13  H   UNL     1       7.966  27.139  58.278  1.00  0.00     0.169 HD
ENDROOT
BRANCH  10  14
HETATM   14  C   UNL     1       5.638  31.613  58.085  1.00  0.00     0.252 C 
HETATM   15  N   UNL     1       5.719  31.717  59.454  1.00  0.00    -0.353 N 
HETATM   16  H   UNL     1       5.783  30.890  60.030  1.00  0.00     0.163 HD
HETATM   17  O   UNL     1       5.694  32.574  57.327  1.00  0.00    -0.268 OA
BRANCH  15  18
HETATM   18  C   UNL     1       5.769  33.007  60.100  1.00  0.00     0.163 C 
BRANCH  18  19
HETATM   19  C   UNL     1       6.426  32.917  61.454  1.00  0.00    -0.019 A 
HETATM   20  C   UNL     1       7.792  32.635  61.614  1.00  0.00     0.042 A 
HETATM   21 CL   UNL     1       8.833  32.371  60.259  1.00  0.00    -0.084 Cl
HETATM   22  C   UNL     1       8.364  32.579  62.889  1.00  0.00     0.024 A 
HETATM   23  C   UNL     1       7.581  32.807  64.019  1.00  0.00     0.002 A 
HETATM   24  C   UNL     1       6.226  33.093  63.876  1.00  0.00     0.001 A 
HETATM   25  C   UNL     1       5.653  33.152  62.605  1.00  0.00     0.010 A 
ENDBRANCH  18  19
ENDBRANCH  15  18
ENDBRANCH  10  14
BRANCH   1  26
HETATM   26  C   UNL     1       6.974  25.963  54.471  1.00  0.00     0.103 C 
BRANCH  26  27
HETATM   27  S   UNL     1       8.027  24.718  53.649  1.00  0.00    -0.162 SA
BRANCH  27  28
HETATM   28  C   UNL     1       6.972  23.242  53.812  1.00  0.00     0.112 C 
BRANCH  28  29
HETATM   29  C   UNL     1       7.681  22.146  54.576  1.00  0.00    -0.043 A 
HETATM   30  C   UNL     1       8.181  20.986  53.945  1.00  0.00    -0.055 A 
HETATM   31  C   UNL     1       8.061  20.771  52.459  1.00  0.00     0.049 C 
HETATM   32  C   UNL     1       8.824  20.005  54.720  1.00  0.00     0.007 A 
HETATM   33  C   UNL     1       8.956  20.155  56.100  1.00  0.00     0.001 A 
HETATM   34  C   UNL     1       8.447  21.287  56.727  1.00  0.00     0.001 A 
HETATM   35  C   UNL     1       7.815  22.274  55.971  1.00  0.00     0.008 A 
ENDBRANCH  28  29
ENDBRANCH  27  28
ENDBRANCH  26  27
ENDBRANCH   1  26
TORSDOF 7
ENDMDL
MODEL 8
REMARK VINA RESULT:      -9.7      3.577     10.069
REMARK  7 active torsions:
REMARK  status: ('A' for Active; 'I' for Inactive)
REMARK    1  A    between atoms: C_3  and  C_4 
REMARK    2  A    between atoms: C_4  and  S_5 
REMARK    3  A    between atoms: S_5  and  C_6 
REMARK    4  A    between atoms: C_6  and  C_7 
REMARK    5  A    between atoms: C_16  and  C_17 
REMARK       I    between atoms: C_17  and  N_18 
REMARK    6  A    between atoms: N_18  and  C_19 
REMARK    7  A    between atoms: C_19  and  C_20 
ROOT
HETATM    1  C   UNL     1       3.409  31.209  57.490  1.00  0.00     0.162 C 
HETATM    2  N   UNL     1       3.996  29.927  57.967  1.00  0.00    -0.277 NA
HETATM    3  C   UNL     1       4.839  29.289  57.037  1.00  0.00     0.036 A 
HETATM    4  C   UNL     1       4.662  29.468  55.651  1.00  0.00     0.057 A 
HETATM    5  N   UNL     1       3.665  30.336  55.187  1.00  0.00    -0.324 N 
HETATM    6  C   UNL     1       2.904  31.098  56.040  1.00  0.00     0.240 C 
HETATM    7  O   UNL     1       1.923  31.712  55.624  1.00  0.00    -0.271 OA
HETATM    8  C   UNL     1       5.761  28.334  57.475  1.00  0.00     0.027 A 
HETATM    9  C   UNL     1       6.554  27.642  56.555  1.00  0.00     0.019 A 
HETATM   10  C   UNL     1       6.414  27.878  55.182  1.00  0.00     0.034 A 
HETATM   11  C   UNL     1       5.440  28.772  54.726  1.00  0.00     0.048 A 
HETATM   12  H   UNL     1       4.397  29.977  58.900  1.00  0.00     0.128 HD
HETATM   13  H   UNL     1       3.395  30.346  54.213  1.00  0.00     0.169 HD
ENDROOT
BRANCH  10  14
HETATM   14  C   UNL     1       7.288  27.132  54.237  1.00  0.00     0.252 C 
HETATM   15  N   UNL     1       7.107  25.769  54.201  1.00  0.00    -0.353 N 
HETATM   16  H   UNL     1       6.359  25.334  54.721  1.00  0.00     0.163 HD
HETATM   17  O   UNL     1       8.087  27.731  53.528  1.00  0.00    -0.268 OA
BRANCH  15  18
HETATM   18  C   UNL     1       7.947  24.931  53.379  1.00  0.00     0.163 C 
BRANCH  18  19
HETATM   19  C   UNL     1       7.995  23.519  53.905  1.00  0.00    -0.019 A 
HETATM   20  C   UNL     1       8.257  23.223  55.252  1.00  0.00     0.042 A 
HETATM   21 CL   UNL     1       8.543  24.465  56.419  1.00  0.00    -0.084 Cl
HETATM   22  C   UNL     1       8.275  21.898  55.700  1.00  0.00     0.024 A 
HETATM   23  C   UNL     1       8.028  20.853  54.811  1.00  0.00     0.002 A 
HETATM   24  C   UNL     1       7.761  21.131  53.474  1.00  0.00     0.001 A 
HETATM   25  C   UNL     1       7.741  22.453  53.024  1.00  0.00     0.010 A 
ENDBRANCH  18  19
ENDBRANCH  15  18
ENDBRANCH  10  14
BRANCH   1  26
HETATM   26  C   UNL     1       4.450  32.338  57.645  1.00  0.00     0.103 C 
BRANCH  26  27
HETATM   27  S   UNL     1       4.844  32.910  59.334  1.00  0.00    -0.162 SA
BRANCH  27  28
HETATM   28  C   UNL     1       6.540  32.270  59.506  1.00  0.00     0.112 C 
BRANCH  28  29
HETATM   29  C   UNL     1       7.027  32.389  60.933  1.00  0.00    -0.043 A 
HETATM   30  C   UNL     1       8.365  32.124  61.300  1.00  0.00    -0.055 A 
HETATM   31  C   UNL     1       9.406  31.726  60.288  1.00  0.00     0.049 C 
HETATM   32  C   UNL     1       8.745  32.251  62.647  1.00  0.00     0.007 A 
HETATM   33  C   UNL     1       7.817  32.613  63.623  1.00  0.00     0.001 A 
HETATM   34  C   UNL     1       6.495  32.856  63.268  1.00  0.00     0.001 A 
HETATM   35  C   UNL     1       6.103  32.744  61.934  1.00  0.00     0.008 A 
ENDBRANCH  28  29
ENDBRANCH  27  28
ENDBRANCH  26  27
ENDBRANCH   1  26
TORSDOF 7
ENDMDL
MODEL 9
REMARK VINA RESULT:      -9.7      6.168      9.938
REMARK  7 active torsions:
REMARK  status: ('A' for Active; 'I' for Inactive)
REMARK    1  A    between atoms: C_3  and  C_4 
REMARK    2  A    between atoms: C_4  and  S_5 
REMARK    3  A    between atoms: S_5  and  C_6 
REMARK    4  A    between atoms: C_6  and  C_7 
REMARK    5  A    between atoms: C_16  and  C_17 
REMARK       I    between atoms: C_17  and  N_18 
REMARK    6  A    between atoms: N_18  and  C_19 
REMARK    7  A    between atoms: C_19  and  C_20 
ROOT
HETATM    1  C   UNL     1       5.785  26.048  55.529  1.00  0.00     0.162 C 
HETATM    2  N   UNL     1       5.254  25.298  54.357  1.00  0.00    -0.277 NA
HETATM    3  C   UNL     1       5.237  26.031  53.155  1.00  0.00     0.036 A 
HETATM    4  C   UNL     1       5.120  27.435  53.159  1.00  0.00     0.057 A 
HETATM    5  N   UNL     1       5.071  28.121  54.380  1.00  0.00    -0.324 N 
HETATM    6  C   UNL     1       5.229  27.482  55.585  1.00  0.00     0.240 C 
HETATM    7  O   UNL     1       5.006  28.073  56.641  1.00  0.00    -0.271 OA
HETATM    8  C   UNL     1       5.168  25.359  51.932  1.00  0.00     0.027 A 
HETATM    9  C   UNL     1       5.078  26.075  50.734  1.00  0.00     0.019 A 
HETATM   10  C   UNL     1       5.028  27.474  50.750  1.00  0.00     0.034 A 
HETATM   11  C   UNL     1       5.016  28.157  51.971  1.00  0.00     0.048 A 
HETATM   12  H   UNL     1       5.646  24.366  54.250  1.00  0.00     0.128 HD
HETATM   13  H   UNL     1       4.806  29.097  54.418  1.00  0.00     0.169 HD
ENDROOT
BRANCH  10  14
HETATM   14  C   UNL     1       4.948  28.199  49.453  1.00  0.00     0.252 C 
HETATM   15  N   UNL     1       3.709  28.231  48.858  1.00  0.00    -0.353 N 
HETATM   16  H   UNL     1       2.898  27.861  49.335  1.00  0.00     0.163 HD
HETATM   17  O   UNL     1       5.939  28.749  48.989  1.00  0.00    -0.268 OA
BRANCH  15  18
HETATM   18  C   UNL     1       3.522  28.839  47.563  1.00  0.00     0.163 C 
BRANCH  18  19
HETATM   19  C   UNL     1       2.108  28.664  47.072  1.00  0.00    -0.019 A 
HETATM   20  C   UNL     1       1.573  27.407  46.743  1.00  0.00     0.042 A 
HETATM   21 CL   UNL     1       2.502  25.957  46.880  1.00  0.00    -0.084 Cl
HETATM   22  C   UNL     1       0.249  27.289  46.308  1.00  0.00     0.024 A 
HETATM   23  C   UNL     1      -0.558  28.420  46.200  1.00  0.00     0.002 A 
HETATM   24  C   UNL     1      -0.044  29.671  46.528  1.00  0.00     0.001 A 
HETATM   25  C   UNL     1       1.276  29.792  46.964  1.00  0.00     0.010 A 
ENDBRANCH  18  19
ENDBRANCH  15  18
ENDBRANCH  10  14
BRANCH   1  26
HETATM   26  C   UNL     1       7.327  26.037  55.489  1.00  0.00     0.103 C 
BRANCH  26  27
HETATM   27  S   UNL     1       8.198  24.752  56.452  1.00  0.00    -0.162 SA
BRANCH  27  28
HETATM   28  C   UNL     1       7.072  23.343  56.206  1.00  0.00     0.112 C 
BRANCH  28  29
HETATM   29  C   UNL     1       7.611  22.387  55.165  1.00  0.00    -0.043 A 
HETATM   30  C   UNL     1       8.247  21.174  55.509  1.00  0.00    -0.055 A 
HETATM   31  C   UNL     1       8.413  20.739  56.940  1.00  0.00     0.049 C 
HETATM   32  C   UNL     1       8.728  20.338  54.487  1.00  0.00     0.007 A 
HETATM   33  C   UNL     1       8.603  20.698  53.146  1.00  0.00     0.001 A 
HETATM   34  C   UNL     1       7.993  21.901  52.805  1.00  0.00     0.001 A 
HETATM   35  C   UNL     1       7.502  22.738  53.806  1.00  0.00     0.008 A 
ENDBRANCH  28  29
ENDBRANCH  27  28
ENDBRANCH  26  27
ENDBRANCH   1  26
TORSDOF 7
ENDMDL
MODEL 10
REMARK VINA RESULT:      -9.5      2.511      3.205
REMARK  7 active torsions:
REMARK  status: ('A' for Active; 'I' for Inactive)
REMARK    1  A    between atoms: C_3  and  C_4 
REMARK    2  A    between atoms: C_4  and  S_5 
REMARK    3  A    between atoms: S_5  and  C_6 
REMARK    4  A    between atoms: C_6  and  C_7 
REMARK    5  A    between atoms: C_16  and  C_17 
REMARK       I    between atoms: C_17  and  N_18 
REMARK    6  A    between atoms: N_18  and  C_19 
REMARK    7  A    between atoms: C_19  and  C_20 
ROOT
HETATM    1  C   UNL     1       5.254  26.530  54.634  1.00  0.00     0.162 C 
HETATM    2  N   UNL     1       4.314  27.645  54.332  1.00  0.00    -0.277 NA
HETATM    3  C   UNL     1       4.355  28.708  55.253  1.00  0.00     0.036 A 
HETATM    4  C   UNL     1       4.733  28.497  56.594  1.00  0.00     0.057 A 
HETATM    5  N   UNL     1       5.124  27.217  57.009  1.00  0.00    -0.324 N 
HETATM    6  C   UNL     1       5.245  26.168  56.130  1.00  0.00     0.240 C 
HETATM    7  O   UNL     1       5.415  25.022  56.543  1.00  0.00    -0.271 OA
HETATM    8  C   UNL     1       3.860  29.964  54.889  1.00  0.00     0.027 A 
HETATM    9  C   UNL     1       3.829  31.009  55.817  1.00  0.00     0.019 A 
HETATM   10  C   UNL     1       4.269  30.802  57.130  1.00  0.00     0.034 A 
HETATM   11  C   UNL     1       4.693  29.530  57.530  1.00  0.00     0.048 A 
HETATM   12  H   UNL     1       4.337  27.954  53.364  1.00  0.00     0.128 HD
HETATM   13  H   UNL     1       5.222  26.995  57.991  1.00  0.00     0.169 HD
ENDROOT
BRANCH  10  14
HETATM   14  C   UNL     1       4.234  31.944  58.082  1.00  0.00     0.252 C 
HETATM   15  N   UNL     1       5.391  32.171  58.791  1.00  0.00    -0.353 N 
HETATM   16  H   UNL     1       6.229  31.643  58.592  1.00  0.00     0.163 HD
HETATM   17  O   UNL     1       3.230  32.638  58.181  1.00  0.00    -0.268 OA
BRANCH  15  18
HETATM   18  C   UNL     1       5.455  33.203  59.798  1.00  0.00     0.163 C 
BRANCH  18  19
HETATM   19  C   UNL     1       6.468  32.868  60.863  1.00  0.00    -0.019 A 
HETATM   20  C   UNL     1       6.261  33.162  62.221  1.00  0.00     0.042 A 
HETATM   21 CL   UNL     1       4.819  33.933  62.777  1.00  0.00    -0.084 Cl
HETATM   22  C   UNL     1       7.221  32.817  63.178  1.00  0.00     0.024 A 
HETATM   23  C   UNL     1       8.395  32.172  62.794  1.00  0.00     0.002 A 
HETATM   24  C   UNL     1       8.611  31.868  61.453  1.00  0.00     0.001 A 
HETATM   25  C   UNL     1       7.654  32.210  60.495  1.00  0.00     0.010 A 
ENDBRANCH  18  19
ENDBRANCH  15  18
ENDBRANCH  10  14
BRANCH   1  26
HETATM   26  C   UNL     1       6.670  26.908  54.149  1.00  0.00     0.103 C 
BRANCH  26  27
HETATM   27  S   UNL     1       7.647  25.629  53.286  1.00  0.00    -0.162 SA
BRANCH  27  28
HETATM   28  C   UNL     1       8.229  24.650  54.707  1.00  0.00     0.112 C 
BRANCH  28  29
HETATM   29  C   UNL     1       8.104  23.167  54.438  1.00  0.00    -0.043 A 
HETATM   30  C   UNL     1       8.156  22.204  55.470  1.00  0.00    -0.055 A 
HETATM   31  C   UNL     1       8.316  22.592  56.915  1.00  0.00     0.049 C 
HETATM   32  C   UNL     1       8.038  20.842  55.143  1.00  0.00     0.007 A 
HETATM   33  C   UNL     1       7.892  20.432  53.819  1.00  0.00     0.001 A 
HETATM   34  C   UNL     1       7.860  21.376  52.800  1.00  0.00     0.001 A 
HETATM   35  C   UNL     1       7.966  22.733  53.106  1.00  0.00     0.008 A 
ENDBRANCH  28  29
ENDBRANCH  27  28
ENDBRANCH  26  27
ENDBRANCH   1  26
TORSDOF 7
ENDMDL
