MODEL 1
REMARK VINA RESULT:     -12.0      0.000      0.000
REMARK  7 active torsions:
REMARK  status: ('A' for Active; 'I' for Inactive)
REMARK    1  A    between atoms: C_2  and  C_3 
REMARK    2  A    between atoms: C_4  and  N_5 
REMARK    3  A    between atoms: N_5  and  C_6 
REMARK    4  A    between atoms: C_8  and  N_9 
REMARK    5  A    between atoms: C_11  and  C_12 
REMARK    6  A    between atoms: C_12  and  N_13 
REMARK    7  A    between atoms: C_17  and  C_18 
ROOT
HETATM    1  C   UNL     1       8.003  28.511  57.801  1.00  0.00     0.218 C 
ENDROOT
BRANCH   1   2
HETATM    2  C   UNL     1       7.120  29.715  58.075  1.00  0.00     0.166 A 
HETATM    3  N   UNL     1       5.899  29.747  57.533  1.00  0.00    -0.200 NA
HETATM    4  C   UNL     1       5.175  30.807  57.844  1.00  0.00     0.219 A 
HETATM    5  N   UNL     1       5.551  31.766  58.667  1.00  0.00    -0.031 NA
HETATM    6  C   UNL     1       6.777  31.661  59.171  1.00  0.00     0.731 A 
HETATM    7  N   UNL     1       7.603  30.655  58.892  1.00  0.00    -0.045 NA
BRANCH   4   8
HETATM    8  N   UNL     1       3.908  30.891  57.303  1.00  0.00    -0.270 NA
HETATM    9  H   UNL     1       3.653  31.860  57.170  1.00  0.00     0.127 HD
HETATM   10  H   UNL     1       3.263  30.308  57.817  1.00  0.00     0.127 HD
ENDBRANCH   4   8
BRANCH   6  11
HETATM   11  N   UNL     1       7.289  32.644  60.016  1.00  0.00    -0.188 N 
HETATM   12  H   UNL     1       8.052  33.125  59.565  1.00  0.00     0.184 HD
BRANCH  11  13
HETATM   13  C   UNL     1       7.158  32.859  61.398  1.00  0.00     0.055 A 
HETATM   14  C   UNL     1       8.191  32.468  62.282  1.00  0.00    -0.031 A 
HETATM   15  C   UNL     1       8.051  32.698  63.665  1.00  0.00     0.009 A 
HETATM   16  C   UNL     1       6.922  33.331  64.177  1.00  0.00     0.001 A 
HETATM   17  C   UNL     1       5.919  33.748  63.313  1.00  0.00     0.002 A 
HETATM   18  C   UNL     1       6.044  33.522  61.939  1.00  0.00     0.030 A 
BRANCH  14  19
HETATM   19  C   UNL     1       9.464  31.805  61.804  1.00  0.00     0.036 C 
HETATM   20  C   UNL     1       9.401  30.291  61.934  1.00  0.00     0.010 C 
ENDBRANCH  14  19
ENDBRANCH  11  13
ENDBRANCH   6  11
ENDBRANCH   1   2
BRANCH   1  21
HETATM   21  N   UNL     1       7.764  27.909  56.507  1.00  0.00    -0.260 N 
HETATM   22  C   UNL     1       8.217  28.421  55.338  1.00  0.00     0.326 A 
HETATM   23  O   UNL     1       8.973  29.365  55.188  1.00  0.00    -0.247 OA
HETATM   24  N   UNL     1       7.679  27.697  54.305  1.00  0.00    -0.321 N 
HETATM   25  C   UNL     1       6.728  26.698  54.749  1.00  0.00     0.140 A 
HETATM   26  H   UNL     1       7.892  27.928  53.345  1.00  0.00     0.165 HD
HETATM   27  C   UNL     1       5.302  27.095  54.352  1.00  0.00     0.054 C 
HETATM   28  C   UNL     1       6.865  26.905  56.278  1.00  0.00     0.261 A 
HETATM   29  O   UNL     1       6.240  26.303  57.144  1.00  0.00    -0.270 OA
BRANCH  25  30
HETATM   30  C   UNL     1       7.114  25.324  54.217  1.00  0.00    -0.020 A 
HETATM   31  C   UNL     1       7.165  24.225  55.101  1.00  0.00     0.022 A 
HETATM   32  C   UNL     1       7.524  22.935  54.668  1.00  0.00    -0.025 A 
HETATM   33  C   UNL     1       7.842  22.728  53.311  1.00  0.00    -0.026 A 
HETATM   34  C   UNL     1       7.574  21.849  55.558  1.00  0.00     0.012 A 
HETATM   35  C   UNL     1       7.794  23.814  52.427  1.00  0.00     0.013 A 
HETATM   36  C   UNL     1       8.202  21.441  52.875  1.00  0.00     0.012 A 
HETATM   37  C   UNL     1       7.437  25.092  52.872  1.00  0.00     0.011 A 
HETATM   38  C   UNL     1       8.248  20.373  53.771  1.00  0.00     0.001 A 
HETATM   39  C   UNL     1       7.934  20.576  55.112  1.00  0.00     0.001 A 
ENDBRANCH  25  30
ENDBRANCH   1  21
TORSDOF 7
ENDMDL
MODEL 2
REMARK VINA RESULT:     -12.0      1.089      1.729
REMARK  7 active torsions:
REMARK  status: ('A' for Active; 'I' for Inactive)
REMARK    1  A    between atoms: C_2  and  C_3 
REMARK    2  A    between atoms: C_4  and  N_5 
REMARK    3  A    between atoms: N_5  and  C_6 
REMARK    4  A    between atoms: C_8  and  N_9 
REMARK    5  A    between atoms: C_11  and  C_12 
REMARK    6  A    between atoms: C_12  and  N_13 
REMARK    7  A    between atoms: C_17  and  C_18 
ROOT
HETATM    1  C   UNL     1       8.034  29.124  56.616  1.00  0.00     0.218 C 
ENDROOT
BRANCH   1   2
HETATM    2  C   UNL     1       7.057  29.993  57.388  1.00  0.00     0.166 A 
HETATM    3  N   UNL     1       5.749  29.776  57.231  1.00  0.00    -0.200 NA
HETATM    4  C   UNL     1       4.960  30.544  57.960  1.00  0.00     0.219 A 
HETATM    5  N   UNL     1       5.375  31.437  58.839  1.00  0.00    -0.031 NA
HETATM    6  C   UNL     1       6.691  31.591  58.943  1.00  0.00     0.731 A 
HETATM    7  N   UNL     1       7.573  30.896  58.226  1.00  0.00    -0.045 NA
BRANCH   4   8
HETATM    8  N   UNL     1       3.599  30.365  57.828  1.00  0.00    -0.270 NA
HETATM    9  H   UNL     1       3.154  31.245  57.606  1.00  0.00     0.127 HD
HETATM   10  H   UNL     1       3.232  29.845  58.612  1.00  0.00     0.127 HD
ENDBRANCH   4   8
BRANCH   6  11
HETATM   11  N   UNL     1       7.234  32.539  59.808  1.00  0.00    -0.188 N 
HETATM   12  H   UNL     1       8.010  33.007  59.367  1.00  0.00     0.184 HD
BRANCH  11  13
HETATM   13  C   UNL     1       7.109  32.728  61.195  1.00  0.00     0.055 A 
HETATM   14  C   UNL     1       8.152  32.332  62.065  1.00  0.00    -0.031 A 
HETATM   15  C   UNL     1       8.019  32.536  63.453  1.00  0.00     0.009 A 
HETATM   16  C   UNL     1       6.887  33.148  63.983  1.00  0.00     0.001 A 
HETATM   17  C   UNL     1       5.875  33.571  63.133  1.00  0.00     0.002 A 
HETATM   18  C   UNL     1       5.993  33.371  61.755  1.00  0.00     0.030 A 
BRANCH  14  19
HETATM   19  C   UNL     1       9.429  31.690  61.567  1.00  0.00     0.036 C 
HETATM   20  C   UNL     1       9.515  30.221  61.952  1.00  0.00     0.010 C 
ENDBRANCH  14  19
ENDBRANCH  11  13
ENDBRANCH   6  11
ENDBRANCH   1   2
BRANCH   1  21
HETATM   21  N   UNL     1       7.468  27.859  56.199  1.00  0.00    -0.260 N 
HETATM   22  C   UNL     1       6.789  27.678  55.041  1.00  0.00     0.326 A 
HETATM   23  O   UNL     1       6.649  28.480  54.133  1.00  0.00    -0.247 OA
HETATM   24  N   UNL     1       6.259  26.414  55.037  1.00  0.00    -0.321 N 
HETATM   25  C   UNL     1       6.480  25.704  56.280  1.00  0.00     0.140 A 
HETATM   26  H   UNL     1       5.707  26.086  54.256  1.00  0.00     0.165 HD
HETATM   27  C   UNL     1       5.167  25.548  57.056  1.00  0.00     0.054 C 
HETATM   28  C   UNL     1       7.335  26.768  57.011  1.00  0.00     0.261 A 
HETATM   29  O   UNL     1       7.783  26.673  58.148  1.00  0.00    -0.270 OA
BRANCH  25  30
HETATM   30  C   UNL     1       7.155  24.364  56.012  1.00  0.00    -0.020 A 
HETATM   31  C   UNL     1       7.097  23.803  54.719  1.00  0.00     0.022 A 
HETATM   32  C   UNL     1       7.694  22.565  54.414  1.00  0.00    -0.025 A 
HETATM   33  C   UNL     1       8.374  21.861  55.429  1.00  0.00    -0.026 A 
HETATM   34  C   UNL     1       7.627  22.014  53.124  1.00  0.00     0.012 A 
HETATM   35  C   UNL     1       8.436  22.412  56.716  1.00  0.00     0.013 A 
HETATM   36  C   UNL     1       8.970  20.624  55.129  1.00  0.00     0.012 A 
HETATM   37  C   UNL     1       7.836  23.643  57.003  1.00  0.00     0.011 A 
HETATM   38  C   UNL     1       8.894  20.090  53.842  1.00  0.00     0.001 A 
HETATM   39  C   UNL     1       8.223  20.784  52.840  1.00  0.00     0.001 A 
ENDBRANCH  25  30
ENDBRANCH   1  21
TORSDOF 7
ENDMDL
MODEL 3
REMARK VINA RESULT:     -11.6      2.035      9.677
REMARK  7 active torsions:
REMARK  status: ('A' for Active; 'I' for Inactive)
REMARK    1  A    between atoms: C_2  and  C_3 
REMARK    2  A    between atoms: C_4  and  N_5 
REMARK    3  A    between atoms: N_5  and  C_6 
REMARK    4  A    between atoms: C_8  and  N_9 
REMARK    5  A    between atoms: C_11  and  C_12 
REMARK    6  A    between atoms: C_12  and  N_13 
REMARK    7  A    between atoms: C_17  and  C_18 
ROOT
HETATM    1  C   UNL     1       4.873  26.862  55.429  1.00  0.00     0.218 C 
ENDROOT
BRANCH   1   2
HETATM    2  C   UNL     1       5.394  26.190  54.171  1.00  0.00     0.166 A 
HETATM    3  N   UNL     1       4.759  26.416  53.019  1.00  0.00    -0.200 NA
HETATM    4  C   UNL     1       5.288  25.828  51.961  1.00  0.00     0.219 A 
HETATM    5  N   UNL     1       6.394  25.107  51.970  1.00  0.00    -0.031 NA
HETATM    6  C   UNL     1       6.972  24.934  53.154  1.00  0.00     0.731 A 
HETATM    7  N   UNL     1       6.499  25.448  54.287  1.00  0.00    -0.045 NA
BRANCH   4   8
HETATM    8  N   UNL     1       4.664  26.023  50.746  1.00  0.00    -0.270 NA
HETATM    9  H   UNL     1       5.326  25.895  49.993  1.00  0.00     0.127 HD
HETATM   10  H   UNL     1       4.131  26.881  50.755  1.00  0.00     0.127 HD
ENDBRANCH   4   8
BRANCH   6  11
HETATM   11  N   UNL     1       8.119  24.152  53.281  1.00  0.00    -0.188 N 
HETATM   12  H   UNL     1       8.882  24.570  52.770  1.00  0.00     0.184 HD
BRANCH  11  13
HETATM   13  C   UNL     1       8.311  22.823  53.694  1.00  0.00     0.055 A 
HETATM   14  C   UNL     1       8.813  22.543  54.987  1.00  0.00    -0.031 A 
HETATM   15  C   UNL     1       8.991  21.206  55.393  1.00  0.00     0.009 A 
HETATM   16  C   UNL     1       8.655  20.149  54.552  1.00  0.00     0.001 A 
HETATM   17  C   UNL     1       8.130  20.415  53.295  1.00  0.00     0.002 A 
HETATM   18  C   UNL     1       7.952  21.737  52.879  1.00  0.00     0.030 A 
BRANCH  14  19
HETATM   19  C   UNL     1       9.171  23.633  55.975  1.00  0.00     0.036 C 
HETATM   20  C   UNL     1       8.128  23.771  57.073  1.00  0.00     0.010 C 
ENDBRANCH  14  19
ENDBRANCH  11  13
ENDBRANCH   6  11
ENDBRANCH   1   2
BRANCH   1  21
HETATM   21  N   UNL     1       5.606  28.059  55.783  1.00  0.00    -0.260 N 
HETATM   22  C   UNL     1       5.540  29.221  55.089  1.00  0.00     0.326 A 
HETATM   23  O   UNL     1       4.795  29.487  54.162  1.00  0.00    -0.247 OA
HETATM   24  N   UNL     1       6.472  30.089  55.598  1.00  0.00    -0.321 N 
HETATM   25  C   UNL     1       7.301  29.489  56.624  1.00  0.00     0.140 A 
HETATM   26  H   UNL     1       6.585  31.014  55.209  1.00  0.00     0.165 HD
HETATM   27  C   UNL     1       8.731  29.282  56.111  1.00  0.00     0.054 C 
HETATM   28  C   UNL     1       6.621  28.100  56.696  1.00  0.00     0.261 A 
HETATM   29  O   UNL     1       6.961  27.170  57.419  1.00  0.00    -0.270 OA
BRANCH  25  30
HETATM   30  C   UNL     1       7.260  30.328  57.896  1.00  0.00    -0.020 A 
HETATM   31  C   UNL     1       8.201  30.085  58.919  1.00  0.00     0.022 A 
HETATM   32  C   UNL     1       8.206  30.821  60.119  1.00  0.00    -0.025 A 
HETATM   33  C   UNL     1       7.245  31.836  60.308  1.00  0.00    -0.026 A 
HETATM   34  C   UNL     1       9.145  30.568  61.133  1.00  0.00     0.012 A 
HETATM   35  C   UNL     1       6.308  32.083  59.296  1.00  0.00     0.013 A 
HETATM   36  C   UNL     1       7.246  32.572  61.505  1.00  0.00     0.012 A 
HETATM   37  C   UNL     1       6.315  31.341  58.109  1.00  0.00     0.011 A 
HETATM   38  C   UNL     1       8.185  32.308  62.502  1.00  0.00     0.001 A 
HETATM   39  C   UNL     1       9.134  31.307  62.317  1.00  0.00     0.001 A 
ENDBRANCH  25  30
ENDBRANCH   1  21
TORSDOF 7
ENDMDL
MODEL 4
REMARK VINA RESULT:     -11.5      1.419      2.301
REMARK  7 active torsions:
REMARK  status: ('A' for Active; 'I' for Inactive)
REMARK    1  A    between atoms: C_2  and  C_3 
REMARK    2  A    between atoms: C_4  and  N_5 
REMARK    3  A    between atoms: N_5  and  C_6 
REMARK    4  A    between atoms: C_8  and  N_9 
REMARK    5  A    between atoms: C_11  and  C_12 
REMARK    6  A    between atoms: C_12  and  N_13 
REMARK    7  A    between atoms: C_17  and  C_18 
ROOT
HETATM    1  C   UNL     1       5.034  28.585  57.146  1.00  0.00     0.218 C 
ENDROOT
BRANCH   1   2
HETATM    2  C   UNL     1       5.207  30.094  57.114  1.00  0.00     0.166 A 
HETATM    3  N   UNL     1       4.959  30.740  55.972  1.00  0.00    -0.200 NA
HETATM    4  C   UNL     1       5.095  32.052  56.029  1.00  0.00     0.219 A 
HETATM    5  N   UNL     1       5.396  32.736  57.117  1.00  0.00    -0.031 NA
HETATM    6  C   UNL     1       5.622  32.023  58.215  1.00  0.00     0.731 A 
HETATM    7  N   UNL     1       5.551  30.693  58.257  1.00  0.00    -0.045 NA
BRANCH   4   8
HETATM    8  N   UNL     1       4.858  32.766  54.872  1.00  0.00    -0.270 NA
HETATM    9  H   UNL     1       5.566  33.476  54.753  1.00  0.00     0.127 HD
HETATM   10  H   UNL     1       3.893  33.063  54.830  1.00  0.00     0.127 HD
ENDBRANCH   4   8
BRANCH   6  11
HETATM   11  N   UNL     1       5.991  32.644  59.407  1.00  0.00    -0.188 N 
HETATM   12  H   UNL     1       5.531  33.537  59.488  1.00  0.00     0.184 HD
BRANCH  11  13
HETATM   13  C   UNL     1       7.053  32.414  60.298  1.00  0.00     0.055 A 
HETATM   14  C   UNL     1       6.805  32.288  61.685  1.00  0.00    -0.031 A 
HETATM   15  C   UNL     1       7.877  32.048  62.568  1.00  0.00     0.009 A 
HETATM   16  C   UNL     1       9.178  31.905  62.094  1.00  0.00     0.001 A 
HETATM   17  C   UNL     1       9.425  31.994  60.731  1.00  0.00     0.002 A 
HETATM   18  C   UNL     1       8.370  32.236  59.846  1.00  0.00     0.030 A 
BRANCH  14  19
HETATM   19  C   UNL     1       5.416  32.397  62.277  1.00  0.00     0.036 C 
HETATM   20  C   UNL     1       5.456  32.685  63.770  1.00  0.00     0.010 C 
ENDBRANCH  14  19
ENDBRANCH  11  13
ENDBRANCH   6  11
ENDBRANCH   1   2
BRANCH   1  21
HETATM   21  N   UNL     1       6.114  27.873  56.499  1.00  0.00    -0.260 N 
HETATM   22  C   UNL     1       7.337  27.687  57.051  1.00  0.00     0.326 A 
HETATM   23  O   UNL     1       7.687  27.967  58.184  1.00  0.00    -0.247 OA
HETATM   24  N   UNL     1       8.159  27.117  56.112  1.00  0.00    -0.321 N 
HETATM   25  C   UNL     1       7.530  26.987  54.814  1.00  0.00     0.140 A 
HETATM   26  H   UNL     1       9.122  26.904  56.329  1.00  0.00     0.165 HD
HETATM   27  C   UNL     1       8.148  27.968  53.811  1.00  0.00     0.054 C 
HETATM   28  C   UNL     1       6.121  27.514  55.180  1.00  0.00     0.261 A 
HETATM   29  O   UNL     1       5.176  27.636  54.409  1.00  0.00    -0.270 OA
BRANCH  25  30
HETATM   30  C   UNL     1       7.605  25.544  54.331  1.00  0.00    -0.020 A 
HETATM   31  C   UNL     1       7.638  24.495  55.275  1.00  0.00     0.022 A 
HETATM   32  C   UNL     1       7.717  23.144  54.889  1.00  0.00    -0.025 A 
HETATM   33  C   UNL     1       7.762  22.822  53.517  1.00  0.00    -0.026 A 
HETATM   34  C   UNL     1       7.753  22.109  55.838  1.00  0.00     0.012 A 
HETATM   35  C   UNL     1       7.730  23.857  52.573  1.00  0.00     0.013 A 
HETATM   36  C   UNL     1       7.843  21.474  53.128  1.00  0.00     0.012 A 
HETATM   37  C   UNL     1       7.653  25.196  52.973  1.00  0.00     0.011 A 
HETATM   38  C   UNL     1       7.878  20.458  54.083  1.00  0.00     0.001 A 
HETATM   39  C   UNL     1       7.833  20.774  55.437  1.00  0.00     0.001 A 
ENDBRANCH  25  30
ENDBRANCH   1  21
TORSDOF 7
ENDMDL
MODEL 5
REMARK VINA RESULT:     -11.2      1.565      2.877
REMARK  7 active torsions:
REMARK  status: ('A' for Active; 'I' for Inactive)
REMARK    1  A    between atoms: C_2  and  C_3 
REMARK    2  A    between atoms: C_4  and  N_5 
REMARK    3  A    between atoms: N_5  and  C_6 
REMARK    4  A    between atoms: C_8  and  N_9 
REMARK    5  A    between atoms: C_11  and  C_12 
REMARK    6  A    between atoms: C_12  and  N_13 
REMARK    7  A    between atoms: C_17  and  C_18 
ROOT
HETATM    1  C   UNL     1       6.775  29.389  55.928  1.00  0.00     0.218 C 
ENDROOT
BRANCH   1   2
HETATM    2  C   UNL     1       7.804  29.686  57.005  1.00  0.00     0.166 A 
HETATM    3  N   UNL     1       9.077  29.861  56.639  1.00  0.00    -0.200 NA
HETATM    4  C   UNL     1       9.909  30.152  57.623  1.00  0.00     0.219 A 
HETATM    5  N   UNL     1       9.559  30.326  58.883  1.00  0.00    -0.031 NA
HETATM    6  C   UNL     1       8.274  30.141  59.167  1.00  0.00     0.731 A 
HETATM    7  N   UNL     1       7.360  29.807  58.258  1.00  0.00    -0.045 NA
BRANCH   4   8
HETATM    8  N   UNL     1      11.237  30.334  57.298  1.00  0.00    -0.270 NA
HETATM    9  H   UNL     1      11.656  31.008  57.923  1.00  0.00     0.127 HD
HETATM   10  H   UNL     1      11.341  30.494  56.306  1.00  0.00     0.127 HD
ENDBRANCH   4   8
BRANCH   6  11
HETATM   11  N   UNL     1       7.808  30.257  60.476  1.00  0.00    -0.188 N 
HETATM   12  H   UNL     1       7.327  29.413  60.747  1.00  0.00     0.184 HD
BRANCH  11  13
HETATM   13  C   UNL     1       7.621  31.369  61.313  1.00  0.00     0.055 A 
HETATM   14  C   UNL     1       6.654  32.350  60.990  1.00  0.00    -0.031 A 
HETATM   15  C   UNL     1       6.468  33.456  61.844  1.00  0.00     0.009 A 
HETATM   16  C   UNL     1       7.204  33.587  63.018  1.00  0.00     0.001 A 
HETATM   17  C   UNL     1       8.130  32.611  63.360  1.00  0.00     0.002 A 
HETATM   18  C   UNL     1       8.326  31.512  62.519  1.00  0.00     0.030 A 
BRANCH  14  19
HETATM   19  C   UNL     1       5.790  32.266  59.750  1.00  0.00     0.036 C 
HETATM   20  C   UNL     1       4.307  32.258  60.089  1.00  0.00     0.010 C 
ENDBRANCH  14  19
ENDBRANCH  11  13
ENDBRANCH   6  11
ENDBRANCH   1   2
BRANCH   1  21
HETATM   21  N   UNL     1       6.959  28.097  55.303  1.00  0.00    -0.260 N 
HETATM   22  C   UNL     1       7.727  27.889  54.206  1.00  0.00     0.326 A 
HETATM   23  O   UNL     1       8.460  28.692  53.654  1.00  0.00    -0.247 OA
HETATM   24  N   UNL     1       7.553  26.595  53.789  1.00  0.00    -0.321 N 
HETATM   25  C   UNL     1       6.548  25.884  54.553  1.00  0.00     0.140 A 
HETATM   26  H   UNL     1       8.038  26.243  52.975  1.00  0.00     0.165 HD
HETATM   27  C   UNL     1       5.296  25.639  53.703  1.00  0.00     0.054 C 
HETATM   28  C   UNL     1       6.209  26.990  55.582  1.00  0.00     0.261 A 
HETATM   29  O   UNL     1       5.373  26.909  56.475  1.00  0.00    -0.270 OA
BRANCH  25  30
HETATM   30  C   UNL     1       7.125  24.592  55.117  1.00  0.00    -0.020 A 
HETATM   31  C   UNL     1       7.332  23.491  54.259  1.00  0.00     0.022 A 
HETATM   32  C   UNL     1       7.855  22.269  54.724  1.00  0.00    -0.025 A 
HETATM   33  C   UNL     1       8.185  22.137  56.088  1.00  0.00    -0.026 A 
HETATM   34  C   UNL     1       8.052  21.179  53.861  1.00  0.00     0.012 A 
HETATM   35  C   UNL     1       7.982  23.226  56.946  1.00  0.00     0.013 A 
HETATM   36  C   UNL     1       8.705  20.919  56.557  1.00  0.00     0.012 A 
HETATM   37  C   UNL     1       7.461  24.434  56.469  1.00  0.00     0.011 A 
HETATM   38  C   UNL     1       8.896  19.845  55.687  1.00  0.00     0.001 A 
HETATM   39  C   UNL     1       8.570  19.974  54.341  1.00  0.00     0.001 A 
ENDBRANCH  25  30
ENDBRANCH   1  21
TORSDOF 7
ENDMDL
MODEL 6
REMARK VINA RESULT:     -11.0      5.098     11.758
REMARK  7 active torsions:
REMARK  status: ('A' for Active; 'I' for Inactive)
REMARK    1  A    between atoms: C_2  and  C_3 
REMARK    2  A    between atoms: C_4  and  N_5 
REMARK    3  A    between atoms: N_5  and  C_6 
REMARK    4  A    between atoms: C_8  and  N_9 
REMARK    5  A    between atoms: C_11  and  C_12 
REMARK    6  A    between atoms: C_12  and  N_13 
REMARK    7  A    between atoms: C_17  and  C_18 
ROOT
HETATM    1  C   UNL     1       3.812  33.522  61.614  1.00  0.00     0.218 C 
ENDROOT
BRANCH   1   2
HETATM    2  C   UNL     1       4.524  33.208  60.310  1.00  0.00     0.166 A 
HETATM    3  N   UNL     1       4.310  34.005  59.259  1.00  0.00    -0.200 NA
HETATM    4  C   UNL     1       4.991  33.693  58.171  1.00  0.00     0.219 A 
HETATM    5  N   UNL     1       5.872  32.715  58.083  1.00  0.00    -0.031 NA
HETATM    6  C   UNL     1       6.034  31.971  59.172  1.00  0.00     0.731 A 
HETATM    7  N   UNL     1       5.370  32.174  60.308  1.00  0.00    -0.045 NA
BRANCH   4   8
HETATM    8  N   UNL     1       4.799  34.480  57.054  1.00  0.00    -0.270 NA
HETATM    9  H   UNL     1       5.689  34.704  56.632  1.00  0.00     0.127 HD
HETATM   10  H   UNL     1       4.180  35.250  57.265  1.00  0.00     0.127 HD
ENDBRANCH   4   8
BRANCH   6  11
HETATM   11  N   UNL     1       6.908  30.885  59.172  1.00  0.00    -0.188 N 
HETATM   12  H   UNL     1       6.740  30.305  59.980  1.00  0.00     0.184 HD
BRANCH  11  13
HETATM   13  C   UNL     1       8.103  30.638  58.476  1.00  0.00     0.055 A 
HETATM   14  C   UNL     1       9.288  31.326  58.827  1.00  0.00    -0.031 A 
HETATM   15  C   UNL     1      10.483  31.063  58.128  1.00  0.00     0.009 A 
HETATM   16  C   UNL     1      10.524  30.114  57.111  1.00  0.00     0.001 A 
HETATM   17  C   UNL     1       9.373  29.410  56.783  1.00  0.00     0.002 A 
HETATM   18  C   UNL     1       8.182  29.665  57.467  1.00  0.00     0.030 A 
BRANCH  14  19
HETATM   19  C   UNL     1       9.336  32.349  59.942  1.00  0.00     0.036 C 
HETATM   20  C   UNL     1       9.634  31.709  61.289  1.00  0.00     0.010 C 
ENDBRANCH  14  19
ENDBRANCH  11  13
ENDBRANCH   6  11
ENDBRANCH   1   2
BRANCH   1  21
HETATM   21  N   UNL     1       4.710  33.929  62.672  1.00  0.00    -0.260 N 
HETATM   22  C   UNL     1       5.362  35.116  62.698  1.00  0.00     0.326 A 
HETATM   23  O   UNL     1       5.220  36.054  61.934  1.00  0.00    -0.247 OA
HETATM   24  N   UNL     1       6.244  35.108  63.748  1.00  0.00    -0.321 N 
HETATM   25  C   UNL     1       6.296  33.833  64.434  1.00  0.00     0.140 A 
HETATM   26  H   UNL     1       6.834  35.907  63.934  1.00  0.00     0.165 HD
HETATM   27  C   UNL     1       7.628  33.125  64.159  1.00  0.00     0.054 C 
HETATM   28  C   UNL     1       5.196  33.091  63.636  1.00  0.00     0.261 A 
HETATM   29  O   UNL     1       4.845  31.929  63.807  1.00  0.00    -0.270 OA
BRANCH  25  30
HETATM   30  C   UNL     1       6.039  34.022  65.924  1.00  0.00    -0.020 A 
HETATM   31  C   UNL     1       7.122  34.293  66.787  1.00  0.00     0.022 A 
HETATM   32  C   UNL     1       6.947  34.468  68.173  1.00  0.00    -0.025 A 
HETATM   33  C   UNL     1       5.652  34.372  68.720  1.00  0.00    -0.026 A 
HETATM   34  C   UNL     1       8.033  34.734  69.023  1.00  0.00     0.012 A 
HETATM   35  C   UNL     1       4.571  34.103  67.869  1.00  0.00     0.013 A 
HETATM   36  C   UNL     1       5.473  34.545  70.103  1.00  0.00     0.012 A 
HETATM   37  C   UNL     1       4.762  33.930  66.494  1.00  0.00     0.011 A 
HETATM   38  C   UNL     1       6.562  34.808  70.934  1.00  0.00     0.001 A 
HETATM   39  C   UNL     1       7.841  34.903  70.396  1.00  0.00     0.001 A 
ENDBRANCH  25  30
ENDBRANCH   1  21
TORSDOF 7
ENDMDL
MODEL 7
REMARK VINA RESULT:     -10.9      2.066      9.772
REMARK  7 active torsions:
REMARK  status: ('A' for Active; 'I' for Inactive)
REMARK    1  A    between atoms: C_2  and  C_3 
REMARK    2  A    between atoms: C_4  and  N_5 
REMARK    3  A    between atoms: N_5  and  C_6 
REMARK    4  A    between atoms: C_8  and  N_9 
REMARK    5  A    between atoms: C_11  and  C_12 
REMARK    6  A    between atoms: C_12  and  N_13 
REMARK    7  A    between atoms: C_17  and  C_18 
ROOT
HETATM    1  C   UNL     1       4.870  26.959  55.791  1.00  0.00     0.218 C 
ENDROOT
BRANCH   1   2
HETATM    2  C   UNL     1       5.351  26.173  54.583  1.00  0.00     0.166 A 
HETATM    3  N   UNL     1       4.837  26.466  53.386  1.00  0.00    -0.200 NA
HETATM    4  C   UNL     1       5.328  25.767  52.378  1.00  0.00     0.219 A 
HETATM    5  N   UNL     1       6.295  24.874  52.476  1.00  0.00    -0.031 NA
HETATM    6  C   UNL     1       6.759  24.643  53.700  1.00  0.00     0.731 A 
HETATM    7  N   UNL     1       6.306  25.262  54.788  1.00  0.00    -0.045 NA
BRANCH   4   8
HETATM    8  N   UNL     1       4.825  26.027  51.121  1.00  0.00    -0.270 NA
HETATM    9  H   UNL     1       5.548  25.903  50.426  1.00  0.00     0.127 HD
HETATM   10  H   UNL     1       4.321  26.902  51.114  1.00  0.00     0.127 HD
ENDBRANCH   4   8
BRANCH   6  11
HETATM   11  N   UNL     1       7.748  23.686  53.919  1.00  0.00    -0.188 N 
HETATM   12  H   UNL     1       8.268  23.524  53.071  1.00  0.00     0.184 HD
BRANCH  11  13
HETATM   13  C   UNL     1       7.934  22.743  54.944  1.00  0.00     0.055 A 
HETATM   14  C   UNL     1       7.858  21.358  54.662  1.00  0.00    -0.031 A 
HETATM   15  C   UNL     1       8.057  20.422  55.696  1.00  0.00     0.009 A 
HETATM   16  C   UNL     1       8.355  20.836  56.991  1.00  0.00     0.001 A 
HETATM   17  C   UNL     1       8.466  22.192  57.268  1.00  0.00     0.002 A 
HETATM   18  C   UNL     1       8.268  23.130  56.252  1.00  0.00     0.030 A 
BRANCH  14  19
HETATM   19  C   UNL     1       7.570  20.825  53.275  1.00  0.00     0.036 C 
HETATM   20  C   UNL     1       8.830  20.326  52.584  1.00  0.00     0.010 C 
ENDBRANCH  14  19
ENDBRANCH  11  13
ENDBRANCH   6  11
ENDBRANCH   1   2
BRANCH   1  21
HETATM   21  N   UNL     1       5.691  28.114  56.084  1.00  0.00    -0.260 N 
HETATM   22  C   UNL     1       5.569  29.309  55.458  1.00  0.00     0.326 A 
HETATM   23  O   UNL     1       4.708  29.642  54.662  1.00  0.00    -0.247 OA
HETATM   24  N   UNL     1       6.597  30.122  55.862  1.00  0.00    -0.321 N 
HETATM   25  C   UNL     1       7.543  29.449  56.728  1.00  0.00     0.140 A 
HETATM   26  H   UNL     1       6.687  31.061  55.500  1.00  0.00     0.165 HD
HETATM   27  C   UNL     1       8.874  29.222  56.003  1.00  0.00     0.054 C 
HETATM   28  C   UNL     1       6.828  28.080  56.840  1.00  0.00     0.261 A 
HETATM   29  O   UNL     1       7.234  27.107  57.465  1.00  0.00    -0.270 OA
BRANCH  25  30
HETATM   30  C   UNL     1       7.718  30.227  58.027  1.00  0.00    -0.020 A 
HETATM   31  C   UNL     1       6.680  31.071  58.477  1.00  0.00     0.022 A 
HETATM   32  C   UNL     1       6.788  31.821  59.663  1.00  0.00    -0.025 A 
HETATM   33  C   UNL     1       7.967  31.727  60.431  1.00  0.00    -0.026 A 
HETATM   34  C   UNL     1       5.750  32.660  60.099  1.00  0.00     0.012 A 
HETATM   35  C   UNL     1       9.002  30.891  59.991  1.00  0.00     0.013 A 
HETATM   36  C   UNL     1       8.079  32.475  61.615  1.00  0.00     0.012 A 
HETATM   37  C   UNL     1       8.880  30.154  58.808  1.00  0.00     0.011 A 
HETATM   38  C   UNL     1       7.039  33.305  62.035  1.00  0.00     0.001 A 
HETATM   39  C   UNL     1       5.875  33.398  61.278  1.00  0.00     0.001 A 
ENDBRANCH  25  30
ENDBRANCH   1  21
TORSDOF 7
ENDMDL
MODEL 8
REMARK VINA RESULT:     -10.8      2.156      3.841
REMARK  7 active torsions:
REMARK  status: ('A' for Active; 'I' for Inactive)
REMARK    1  A    between atoms: C_2  and  C_3 
REMARK    2  A    between atoms: C_4  and  N_5 
REMARK    3  A    between atoms: N_5  and  C_6 
REMARK    4  A    between atoms: C_8  and  N_9 
REMARK    5  A    between atoms: C_11  and  C_12 
REMARK    6  A    between atoms: C_12  and  N_13 
REMARK    7  A    between atoms: C_17  and  C_18 
ROOT
HETATM    1  C   UNL     1       4.944  28.622  53.893  1.00  0.00     0.218 C 
ENDROOT
BRANCH   1   2
HETATM    2  C   UNL     1       4.917  29.197  55.298  1.00  0.00     0.166 A 
HETATM    3  N   UNL     1       3.798  29.790  55.723  1.00  0.00    -0.200 NA
HETATM    4  C   UNL     1       3.836  30.234  56.966  1.00  0.00     0.219 A 
HETATM    5  N   UNL     1       4.853  30.084  57.794  1.00  0.00    -0.031 NA
HETATM    6  C   UNL     1       5.928  29.479  57.299  1.00  0.00     0.731 A 
HETATM    7  N   UNL     1       6.009  29.028  56.048  1.00  0.00    -0.045 NA
BRANCH   4   8
HETATM    8  N   UNL     1       2.707  30.862  57.451  1.00  0.00    -0.270 NA
HETATM    9  H   UNL     1       2.753  31.853  57.259  1.00  0.00     0.127 HD
HETATM   10  H   UNL     1       2.528  30.582  58.405  1.00  0.00     0.127 HD
ENDBRANCH   4   8
BRANCH   6  11
HETATM   11  N   UNL     1       7.073  29.309  58.075  1.00  0.00    -0.188 N 
HETATM   12  H   UNL     1       6.817  29.083  59.024  1.00  0.00     0.184 HD
BRANCH  11  13
HETATM   13  C   UNL     1       8.412  29.681  57.871  1.00  0.00     0.055 A 
HETATM   14  C   UNL     1       8.947  30.813  58.529  1.00  0.00    -0.031 A 
HETATM   15  C   UNL     1      10.295  31.169  58.324  1.00  0.00     0.009 A 
HETATM   16  C   UNL     1      11.120  30.409  57.501  1.00  0.00     0.001 A 
HETATM   17  C   UNL     1      10.613  29.277  56.878  1.00  0.00     0.002 A 
HETATM   18  C   UNL     1       9.276  28.915  57.071  1.00  0.00     0.030 A 
BRANCH  14  19
HETATM   19  C   UNL     1       8.126  31.674  59.465  1.00  0.00     0.036 C 
HETATM   20  C   UNL     1       8.996  32.402  60.479  1.00  0.00     0.010 C 
ENDBRANCH  14  19
ENDBRANCH  11  13
ENDBRANCH   6  11
ENDBRANCH   1   2
BRANCH   1  21
HETATM   21  N   UNL     1       5.940  27.588  53.718  1.00  0.00    -0.260 N 
HETATM   22  C   UNL     1       7.271  27.825  53.626  1.00  0.00     0.326 A 
HETATM   23  O   UNL     1       7.845  28.888  53.790  1.00  0.00    -0.247 OA
HETATM   24  N   UNL     1       7.904  26.651  53.306  1.00  0.00    -0.321 N 
HETATM   25  C   UNL     1       6.983  25.560  53.061  1.00  0.00     0.140 A 
HETATM   26  H   UNL     1       8.907  26.621  53.186  1.00  0.00     0.165 HD
HETATM   27  C   UNL     1       6.961  25.195  51.573  1.00  0.00     0.054 C 
HETATM   28  C   UNL     1       5.658  26.293  53.385  1.00  0.00     0.261 A 
HETATM   29  O   UNL     1       4.533  25.809  53.314  1.00  0.00    -0.270 OA
BRANCH  25  30
HETATM   30  C   UNL     1       7.328  24.367  53.944  1.00  0.00    -0.020 A 
HETATM   31  C   UNL     1       7.773  23.168  53.349  1.00  0.00     0.022 A 
HETATM   32  C   UNL     1       8.098  22.031  54.112  1.00  0.00    -0.025 A 
HETATM   33  C   UNL     1       7.979  22.087  55.515  1.00  0.00    -0.026 A 
HETATM   34  C   UNL     1       8.537  20.841  53.508  1.00  0.00     0.012 A 
HETATM   35  C   UNL     1       7.537  23.275  56.114  1.00  0.00     0.013 A 
HETATM   36  C   UNL     1       8.301  20.953  56.281  1.00  0.00     0.012 A 
HETATM   37  C   UNL     1       7.217  24.396  55.341  1.00  0.00     0.011 A 
HETATM   38  C   UNL     1       8.735  19.779  55.666  1.00  0.00     0.001 A 
HETATM   39  C   UNL     1       8.853  19.722  54.281  1.00  0.00     0.001 A 
ENDBRANCH  25  30
ENDBRANCH   1  21
TORSDOF 7
ENDMDL
MODEL 9
REMARK VINA RESULT:     -10.4      4.535      8.373
REMARK  7 active torsions:
REMARK  status: ('A' for Active; 'I' for Inactive)
REMARK    1  A    between atoms: C_2  and  C_3 
REMARK    2  A    between atoms: C_4  and  N_5 
REMARK    3  A    between atoms: N_5  and  C_6 
REMARK    4  A    between atoms: C_8  and  N_9 
REMARK    5  A    between atoms: C_11  and  C_12 
REMARK    6  A    between atoms: C_12  and  N_13 
REMARK    7  A    between atoms: C_17  and  C_18 
ROOT
HETATM    1  C   UNL     1       5.721  29.367  55.298  1.00  0.00     0.218 C 
ENDROOT
BRANCH   1   2
HETATM    2  C   UNL     1       4.999  29.509  53.969  1.00  0.00     0.166 A 
HETATM    3  N   UNL     1       3.976  30.364  53.888  1.00  0.00    -0.200 NA
HETATM    4  C   UNL     1       3.420  30.462  52.694  1.00  0.00     0.219 A 
HETATM    5  N   UNL     1       3.835  29.832  51.612  1.00  0.00    -0.031 NA
HETATM    6  C   UNL     1       4.862  29.003  51.772  1.00  0.00     0.731 A 
HETATM    7  N   UNL     1       5.469  28.801  52.940  1.00  0.00    -0.045 NA
BRANCH   4   8
HETATM    8  N   UNL     1       2.353  31.326  52.560  1.00  0.00    -0.270 NA
HETATM    9  H   UNL     1       2.648  32.273  52.755  1.00  0.00     0.127 HD
HETATM   10  H   UNL     1       1.549  30.979  53.062  1.00  0.00     0.127 HD
ENDBRANCH   4   8
BRANCH   6  11
HETATM   11  N   UNL     1       5.349  28.255  50.702  1.00  0.00    -0.188 N 
HETATM   12  H   UNL     1       6.341  28.405  50.598  1.00  0.00     0.184 HD
BRANCH  11  13
HETATM   13  C   UNL     1       4.706  27.625  49.624  1.00  0.00     0.055 A 
HETATM   14  C   UNL     1       4.442  28.341  48.433  1.00  0.00    -0.031 A 
HETATM   15  C   UNL     1       3.805  27.695  47.355  1.00  0.00     0.009 A 
HETATM   16  C   UNL     1       3.454  26.350  47.431  1.00  0.00     0.001 A 
HETATM   17  C   UNL     1       3.740  25.631  48.583  1.00  0.00     0.002 A 
HETATM   18  C   UNL     1       4.368  26.262  49.661  1.00  0.00     0.030 A 
BRANCH  14  19
HETATM   19  C   UNL     1       4.821  29.796  48.257  1.00  0.00     0.036 C 
HETATM   20  C   UNL     1       3.605  30.676  48.013  1.00  0.00     0.010 C 
ENDBRANCH  14  19
ENDBRANCH  11  13
ENDBRANCH   6  11
ENDBRANCH   1   2
BRANCH   1  21
HETATM   21  N   UNL     1       6.046  27.996  55.628  1.00  0.00    -0.260 N 
HETATM   22  C   UNL     1       5.281  27.204  56.417  1.00  0.00     0.326 A 
HETATM   23  O   UNL     1       4.176  27.456  56.867  1.00  0.00    -0.247 OA
HETATM   24  N   UNL     1       5.956  26.034  56.650  1.00  0.00    -0.321 N 
HETATM   25  C   UNL     1       7.293  26.032  56.091  1.00  0.00     0.140 A 
HETATM   26  H   UNL     1       5.553  25.309  57.227  1.00  0.00     0.165 HD
HETATM   27  C   UNL     1       8.345  26.099  57.204  1.00  0.00     0.054 C 
HETATM   28  C   UNL     1       7.259  27.413  55.392  1.00  0.00     0.261 A 
HETATM   29  O   UNL     1       8.181  27.925  54.766  1.00  0.00    -0.270 OA
BRANCH  25  30
HETATM   30  C   UNL     1       7.487  24.822  55.186  1.00  0.00    -0.020 A 
HETATM   31  C   UNL     1       7.887  23.590  55.747  1.00  0.00     0.022 A 
HETATM   32  C   UNL     1       8.090  22.441  54.959  1.00  0.00    -0.025 A 
HETATM   33  C   UNL     1       7.886  22.517  53.567  1.00  0.00    -0.026 A 
HETATM   34  C   UNL     1       8.492  21.222  55.529  1.00  0.00     0.012 A 
HETATM   35  C   UNL     1       7.489  23.736  53.002  1.00  0.00     0.013 A 
HETATM   36  C   UNL     1       8.089  21.372  52.777  1.00  0.00     0.012 A 
HETATM   37  C   UNL     1       7.292  24.870  53.798  1.00  0.00     0.011 A 
HETATM   38  C   UNL     1       8.489  20.168  53.358  1.00  0.00     0.001 A 
HETATM   39  C   UNL     1       8.690  20.092  54.732  1.00  0.00     0.001 A 
ENDBRANCH  25  30
ENDBRANCH   1  21
TORSDOF 7
ENDMDL
MODEL 10
REMARK VINA RESULT:     -10.3      5.003      8.669
REMARK  7 active torsions:
REMARK  status: ('A' for Active; 'I' for Inactive)
REMARK    1  A    between atoms: C_2  and  C_3 
REMARK    2  A    between atoms: C_4  and  N_5 
REMARK    3  A    between atoms: N_5  and  C_6 
REMARK    4  A    between atoms: C_8  and  N_9 
REMARK    5  A    between atoms: C_11  and  C_12 
REMARK    6  A    between atoms: C_12  and  N_13 
REMARK    7  A    between atoms: C_17  and  C_18 
ROOT
HETATM    1  C   UNL     1       4.234  28.234  54.985  1.00  0.00     0.218 C 
ENDROOT
BRANCH   1   2
HETATM    2  C   UNL     1       3.897  29.052  53.751  1.00  0.00     0.166 A 
HETATM    3  N   UNL     1       4.414  30.279  53.639  1.00  0.00    -0.200 NA
HETATM    4  C   UNL     1       4.108  30.917  52.524  1.00  0.00     0.219 A 
HETATM    5  N   UNL     1       3.397  30.412  51.533  1.00  0.00    -0.031 NA
HETATM    6  C   UNL     1       2.923  29.184  51.717  1.00  0.00     0.731 A 
HETATM    7  N   UNL     1       3.139  28.469  52.819  1.00  0.00    -0.045 NA
BRANCH   4   8
HETATM    8  N   UNL     1       4.610  32.191  52.363  1.00  0.00    -0.270 NA
HETATM    9  H   UNL     1       4.244  32.603  51.516  1.00  0.00     0.127 HD
HETATM   10  H   UNL     1       5.613  32.195  52.484  1.00  0.00     0.127 HD
ENDBRANCH   4   8
BRANCH   6  11
HETATM   11  N   UNL     1       2.123  28.575  50.751  1.00  0.00    -0.188 N 
HETATM   12  H   UNL     1       1.825  27.666  51.072  1.00  0.00     0.184 HD
BRANCH  11  13
HETATM   13  C   UNL     1       1.930  28.840  49.385  1.00  0.00     0.055 A 
HETATM   14  C   UNL     1       2.476  27.975  48.407  1.00  0.00    -0.031 A 
HETATM   15  C   UNL     1       2.268  28.246  47.040  1.00  0.00     0.009 A 
HETATM   16  C   UNL     1       1.508  29.339  46.633  1.00  0.00     0.001 A 
HETATM   17  C   UNL     1       0.939  30.172  47.587  1.00  0.00     0.002 A 
HETATM   18  C   UNL     1       1.143  29.916  48.946  1.00  0.00     0.030 A 
BRANCH  14  19
HETATM   19  C   UNL     1       3.287  26.748  48.766  1.00  0.00     0.036 C 
HETATM   20  C   UNL     1       4.610  26.701  48.017  1.00  0.00     0.010 C 
ENDBRANCH  14  19
ENDBRANCH  11  13
ENDBRANCH   6  11
ENDBRANCH   1   2
BRANCH   1  21
HETATM   21  N   UNL     1       5.476  27.501  54.863  1.00  0.00    -0.260 N 
HETATM   22  C   UNL     1       6.686  27.996  55.216  1.00  0.00     0.326 A 
HETATM   23  O   UNL     1       6.917  29.050  55.784  1.00  0.00    -0.247 OA
HETATM   24  N   UNL     1       7.654  27.108  54.823  1.00  0.00    -0.321 N 
HETATM   25  C   UNL     1       7.123  25.988  54.073  1.00  0.00     0.140 A 
HETATM   26  H   UNL     1       8.632  27.300  54.991  1.00  0.00     0.165 HD
HETATM   27  C   UNL     1       7.531  26.082  52.599  1.00  0.00     0.054 C 
HETATM   28  C   UNL     1       5.617  26.333  54.167  1.00  0.00     0.261 A 
HETATM   29  O   UNL     1       4.700  25.694  53.664  1.00  0.00    -0.270 OA
BRANCH  25  30
HETATM   30  C   UNL     1       7.555  24.672  54.709  1.00  0.00    -0.020 A 
HETATM   31  C   UNL     1       7.761  23.540  53.893  1.00  0.00     0.022 A 
HETATM   32  C   UNL     1       8.151  22.296  54.425  1.00  0.00    -0.025 A 
HETATM   33  C   UNL     1       8.346  22.174  55.815  1.00  0.00    -0.026 A 
HETATM   34  C   UNL     1       8.350  21.175  53.602  1.00  0.00     0.012 A 
HETATM   35  C   UNL     1       8.143  23.293  56.633  1.00  0.00     0.013 A 
HETATM   36  C   UNL     1       8.734  20.933  56.350  1.00  0.00     0.012 A 
HETATM   37  C   UNL     1       7.753  24.522  56.089  1.00  0.00     0.011 A 
HETATM   38  C   UNL     1       8.927  19.829  55.520  1.00  0.00     0.001 A 
HETATM   39  C   UNL     1       8.736  19.949  54.147  1.00  0.00     0.001 A 
ENDBRANCH  25  30
ENDBRANCH   1  21
TORSDOF 7
ENDMDL
