MODEL 1
REMARK VINA RESULT:      -8.8      0.000      0.000
REMARK  4 active torsions:
REMARK  status: ('A' for Active; 'I' for Inactive)
REMARK    1  A    between atoms: C_2  and  C_3 
REMARK    2  A    between atoms: C_5  and  C_6 
REMARK       I    between atoms: C_6  and  N_7 
REMARK    3  A    between atoms: N_7  and  C_8 
REMARK    4  A    between atoms: C_10  and  C_11 
ROOT
HETATM    1  C   UNL     1       7.581  25.562  54.459  1.00  0.00     0.035 A 
HETATM    2  C   UNL     1       7.885  24.250  54.837  1.00  0.00     0.042 A 
HETATM    3  C   UNL     1       8.066  23.241  53.874  1.00  0.00    -0.021 A 
HETATM    4  C   UNL     1       7.916  23.564  52.520  1.00  0.00     0.012 A 
HETATM    5  C   UNL     1       7.606  24.868  52.134  1.00  0.00     0.003 A 
HETATM    6  C   UNL     1       7.444  25.862  53.099  1.00  0.00     0.029 A 
ENDROOT
BRANCH   1   7
HETATM    7  N   UNL     1       7.414  26.624  55.367  1.00  0.00    -0.321 N 
HETATM    8  C   UNL     1       7.912  26.746  56.653  1.00  0.00     0.279 C 
HETATM    9  O   UNL     1       8.565  25.897  57.250  1.00  0.00    -0.265 OA
HETATM   10  H   UNL     1       6.860  27.416  55.057  1.00  0.00     0.169 HD
BRANCH   8  11
HETATM   11  C   UNL     1       7.573  28.022  57.261  1.00  0.00     0.143 A 
HETATM   12  O   UNL     1       8.422  28.571  58.191  1.00  0.00    -0.310 OA
HETATM   13  C   UNL     1       7.854  29.736  58.615  1.00  0.00     0.053 A 
HETATM   14  C   UNL     1       6.664  29.953  57.956  1.00  0.00     0.036 A 
HETATM   15  C   UNL     1       6.482  28.850  57.089  1.00  0.00     0.045 A 
BRANCH  13  16
HETATM   16  C   UNL     1       8.592  30.489  59.659  1.00  0.00     0.060 C 
HETATM   17  C   UNL     1       9.439  31.595  59.048  1.00  0.00     0.012 C 
ENDBRANCH  13  16
ENDBRANCH   8  11
ENDBRANCH   1   7
BRANCH   3  18
HETATM   18  C   UNL     1       8.408  21.881  54.264  1.00  0.00     0.010 A 
HETATM   19  C   UNL     1       8.407  20.674  53.525  1.00  0.00     0.152 A 
HETATM   20  N   UNL     1       8.815  19.623  54.244  1.00  0.00    -0.187 NA
HETATM   21  N   UNL     1       9.076  20.152  55.450  1.00  0.00    -0.289 N 
HETATM   22  H   UNL     1       9.408  19.537  56.184  1.00  0.00     0.188 HD
HETATM   23  C   UNL     1       8.855  21.497  55.512  1.00  0.00     0.123 A 
ENDBRANCH   3  18
TORSDOF 4
ENDMDL
MODEL 2
REMARK VINA RESULT:      -8.8      5.512     11.082
REMARK  4 active torsions:
REMARK  status: ('A' for Active; 'I' for Inactive)
REMARK    1  A    between atoms: C_2  and  C_3 
REMARK    2  A    between atoms: C_5  and  C_6 
REMARK       I    between atoms: C_6  and  N_7 
REMARK    3  A    between atoms: N_7  and  C_8 
REMARK    4  A    between atoms: C_10  and  C_11 
ROOT
HETATM    1  C   UNL     1       7.351  31.706  61.755  1.00  0.00     0.035 A 
HETATM    2  C   UNL     1       6.051  32.148  62.021  1.00  0.00     0.042 A 
HETATM    3  C   UNL     1       5.769  32.934  63.152  1.00  0.00    -0.021 A 
HETATM    4  C   UNL     1       6.812  33.255  64.030  1.00  0.00     0.012 A 
HETATM    5  C   UNL     1       8.111  32.813  63.776  1.00  0.00     0.003 A 
HETATM    6  C   UNL     1       8.378  32.047  62.642  1.00  0.00     0.029 A 
ENDROOT
BRANCH   1   7
HETATM    7  N   UNL     1       7.708  30.941  60.629  1.00  0.00    -0.321 N 
HETATM    8  C   UNL     1       8.451  31.324  59.526  1.00  0.00     0.279 C 
HETATM    9  O   UNL     1       8.898  32.448  59.321  1.00  0.00    -0.265 OA
HETATM   10  H   UNL     1       7.388  29.978  60.603  1.00  0.00     0.169 HD
BRANCH   8  11
HETATM   11  C   UNL     1       8.660  30.233  58.590  1.00  0.00     0.143 A 
HETATM   12  O   UNL     1       7.789  29.172  58.588  1.00  0.00    -0.310 OA
HETATM   13  C   UNL     1       8.230  28.290  57.647  1.00  0.00     0.053 A 
HETATM   14  C   UNL     1       9.360  28.779  57.029  1.00  0.00     0.036 A 
HETATM   15  C   UNL     1       9.639  30.025  57.638  1.00  0.00     0.045 A 
BRANCH  13  16
HETATM   16  C   UNL     1       7.449  27.038  57.494  1.00  0.00     0.060 C 
HETATM   17  C   UNL     1       8.362  25.831  57.343  1.00  0.00     0.012 C 
ENDBRANCH  13  16
ENDBRANCH   8  11
ENDBRANCH   1   7
BRANCH   3  18
HETATM   18  C   UNL     1       4.422  33.416  63.417  1.00  0.00     0.010 A 
HETATM   19  C   UNL     1       3.243  33.358  62.635  1.00  0.00     0.152 A 
HETATM   20  N   UNL     1       2.185  33.900  63.247  1.00  0.00    -0.187 NA
HETATM   21  N   UNL     1       2.681  34.311  64.424  1.00  0.00    -0.289 N 
HETATM   22  H   UNL     1       2.055  34.765  65.079  1.00  0.00     0.188 HD
HETATM   23  C   UNL     1       4.010  34.040  64.577  1.00  0.00     0.123 A 
ENDBRANCH   3  18
TORSDOF 4
ENDMDL
MODEL 3
REMARK VINA RESULT:      -8.6      3.857      6.641
REMARK  4 active torsions:
REMARK  status: ('A' for Active; 'I' for Inactive)
REMARK    1  A    between atoms: C_2  and  C_3 
REMARK    2  A    between atoms: C_5  and  C_6 
REMARK       I    between atoms: C_6  and  N_7 
REMARK    3  A    between atoms: N_7  and  C_8 
REMARK    4  A    between atoms: C_10  and  C_11 
ROOT
HETATM    1  C   UNL     1       7.106  25.065  53.453  1.00  0.00     0.035 A 
HETATM    2  C   UNL     1       7.503  23.724  53.461  1.00  0.00     0.042 A 
HETATM    3  C   UNL     1       8.022  23.128  54.624  1.00  0.00    -0.021 A 
HETATM    4  C   UNL     1       8.157  23.906  55.780  1.00  0.00     0.012 A 
HETATM    5  C   UNL     1       7.770  25.246  55.780  1.00  0.00     0.003 A 
HETATM    6  C   UNL     1       7.243  25.820  54.623  1.00  0.00     0.029 A 
ENDROOT
BRANCH   1   7
HETATM    7  N   UNL     1       6.554  25.715  52.334  1.00  0.00    -0.321 N 
HETATM    8  C   UNL     1       5.321  25.511  51.738  1.00  0.00     0.279 C 
HETATM    9  O   UNL     1       4.498  24.665  52.071  1.00  0.00    -0.265 OA
HETATM   10  H   UNL     1       7.117  26.434  51.891  1.00  0.00     0.169 HD
BRANCH   8  11
HETATM   11  C   UNL     1       5.082  26.421  50.630  1.00  0.00     0.143 A 
HETATM   12  O   UNL     1       4.326  26.000  49.564  1.00  0.00    -0.310 OA
HETATM   13  C   UNL     1       4.286  27.027  48.668  1.00  0.00     0.053 A 
HETATM   14  C   UNL     1       4.988  28.108  49.153  1.00  0.00     0.036 A 
HETATM   15  C   UNL     1       5.503  27.718  50.412  1.00  0.00     0.045 A 
BRANCH  13  16
HETATM   16  C   UNL     1       3.542  26.778  47.409  1.00  0.00     0.060 C 
HETATM   17  C   UNL     1       3.011  25.354  47.353  1.00  0.00     0.012 C 
ENDBRANCH  13  16
ENDBRANCH   8  11
ENDBRANCH   1   7
BRANCH   3  18
HETATM   18  C   UNL     1       8.412  21.726  54.642  1.00  0.00     0.010 A 
HETATM   19  C   UNL     1       8.540  20.783  53.593  1.00  0.00     0.152 A 
HETATM   20  N   UNL     1       8.952  19.584  54.018  1.00  0.00    -0.187 NA
HETATM   21  N   UNL     1       9.087  19.752  55.343  1.00  0.00    -0.289 N 
HETATM   22  H   UNL     1       9.396  18.963  55.899  1.00  0.00     0.188 HD
HETATM   23  C   UNL     1       8.783  21.014  55.764  1.00  0.00     0.123 A 
ENDBRANCH   3  18
TORSDOF 4
ENDMDL
MODEL 4
REMARK VINA RESULT:      -8.2      3.060      8.404
REMARK  4 active torsions:
REMARK  status: ('A' for Active; 'I' for Inactive)
REMARK    1  A    between atoms: C_2  and  C_3 
REMARK    2  A    between atoms: C_5  and  C_6 
REMARK       I    between atoms: C_6  and  N_7 
REMARK    3  A    between atoms: N_7  and  C_8 
REMARK    4  A    between atoms: C_10  and  C_11 
ROOT
HETATM    1  C   UNL     1       8.760  28.885  57.144  1.00  0.00     0.035 A 
HETATM    2  C   UNL     1       8.305  29.355  58.380  1.00  0.00     0.042 A 
HETATM    3  C   UNL     1       8.976  30.389  59.055  1.00  0.00    -0.021 A 
HETATM    4  C   UNL     1      10.130  30.935  58.479  1.00  0.00     0.012 A 
HETATM    5  C   UNL     1      10.595  30.468  57.250  1.00  0.00     0.003 A 
HETATM    6  C   UNL     1       9.911  29.451  56.584  1.00  0.00     0.029 A 
ENDROOT
BRANCH   1   7
HETATM    7  N   UNL     1       8.121  27.873  56.403  1.00  0.00    -0.321 N 
HETATM    8  C   UNL     1       7.838  26.572  56.783  1.00  0.00     0.279 C 
HETATM    9  O   UNL     1       8.151  26.056  57.851  1.00  0.00    -0.265 OA
HETATM   10  H   UNL     1       7.819  28.108  55.463  1.00  0.00     0.169 HD
BRANCH   8  11
HETATM   11  C   UNL     1       7.112  25.840  55.759  1.00  0.00     0.143 A 
HETATM   12  O   UNL     1       7.812  25.161  54.792  1.00  0.00    -0.310 OA
HETATM   13  C   UNL     1       6.897  24.596  53.954  1.00  0.00     0.053 A 
HETATM   14  C   UNL     1       5.619  24.884  54.381  1.00  0.00     0.036 A 
HETATM   15  C   UNL     1       5.757  25.686  55.539  1.00  0.00     0.045 A 
BRANCH  13  16
HETATM   16  C   UNL     1       7.437  23.833  52.803  1.00  0.00     0.060 C 
HETATM   17  C   UNL     1       8.161  22.577  53.262  1.00  0.00     0.012 C 
ENDBRANCH  13  16
ENDBRANCH   8  11
ENDBRANCH   1   7
BRANCH   3  18
HETATM   18  C   UNL     1       8.490  30.897  60.329  1.00  0.00     0.010 A 
HETATM   19  C   UNL     1       8.982  30.729  61.646  1.00  0.00     0.152 A 
HETATM   20  N   UNL     1       8.258  31.384  62.560  1.00  0.00    -0.187 NA
HETATM   21  N   UNL     1       7.295  31.973  61.832  1.00  0.00    -0.289 N 
HETATM   22  H   UNL     1       6.606  32.539  62.314  1.00  0.00     0.188 HD
HETATM   23  C   UNL     1       7.393  31.718  60.495  1.00  0.00     0.123 A 
ENDBRANCH   3  18
TORSDOF 4
ENDMDL
MODEL 5
REMARK VINA RESULT:      -8.0      2.142      3.517
REMARK  4 active torsions:
REMARK  status: ('A' for Active; 'I' for Inactive)
REMARK    1  A    between atoms: C_2  and  C_3 
REMARK    2  A    between atoms: C_5  and  C_6 
REMARK       I    between atoms: C_6  and  N_7 
REMARK    3  A    between atoms: N_7  and  C_8 
REMARK    4  A    between atoms: C_10  and  C_11 
ROOT
HETATM    1  C   UNL     1       7.069  27.444  57.312  1.00  0.00     0.035 A 
HETATM    2  C   UNL     1       7.713  26.293  56.847  1.00  0.00     0.042 A 
HETATM    3  C   UNL     1       7.025  25.337  56.079  1.00  0.00    -0.021 A 
HETATM    4  C   UNL     1       5.668  25.543  55.799  1.00  0.00     0.012 A 
HETATM    5  C   UNL     1       5.016  26.685  56.264  1.00  0.00     0.003 A 
HETATM    6  C   UNL     1       5.715  27.632  57.013  1.00  0.00     0.029 A 
ENDROOT
BRANCH   1   7
HETATM    7  N   UNL     1       7.703  28.452  58.061  1.00  0.00    -0.321 N 
HETATM    8  C   UNL     1       8.609  29.406  57.631  1.00  0.00     0.279 C 
HETATM    9  O   UNL     1       9.059  29.502  56.494  1.00  0.00    -0.265 OA
HETATM   10  H   UNL     1       7.479  28.505  59.050  1.00  0.00     0.169 HD
BRANCH   8  11
HETATM   11  C   UNL     1       9.001  30.319  58.692  1.00  0.00     0.143 A 
HETATM   12  O   UNL     1       8.645  30.038  59.987  1.00  0.00    -0.310 OA
HETATM   13  C   UNL     1       9.107  31.060  60.763  1.00  0.00     0.053 A 
HETATM   14  C   UNL     1       9.774  31.982  59.986  1.00  0.00     0.036 A 
HETATM   15  C   UNL     1       9.703  31.508  58.655  1.00  0.00     0.045 A 
BRANCH  13  16
HETATM   16  C   UNL     1       8.803  30.981  62.212  1.00  0.00     0.060 C 
HETATM   17  C   UNL     1       7.359  31.367  62.496  1.00  0.00     0.012 C 
ENDBRANCH  13  16
ENDBRANCH   8  11
ENDBRANCH   1   7
BRANCH   3  18
HETATM   18  C   UNL     1       7.699  24.151  55.573  1.00  0.00     0.010 A 
HETATM   19  C   UNL     1       8.927  23.551  55.942  1.00  0.00     0.152 A 
HETATM   20  N   UNL     1       9.194  22.440  55.247  1.00  0.00    -0.187 NA
HETATM   21  N   UNL     1       8.138  22.325  54.426  1.00  0.00    -0.289 N 
HETATM   22  H   UNL     1       8.111  21.540  53.785  1.00  0.00     0.188 HD
HETATM   23  C   UNL     1       7.215  23.317  54.585  1.00  0.00     0.123 A 
ENDBRANCH   3  18
TORSDOF 4
ENDMDL
MODEL 6
REMARK VINA RESULT:      -8.0      4.869      8.007
REMARK  4 active torsions:
REMARK  status: ('A' for Active; 'I' for Inactive)
REMARK    1  A    between atoms: C_2  and  C_3 
REMARK    2  A    between atoms: C_5  and  C_6 
REMARK       I    between atoms: C_6  and  N_7 
REMARK    3  A    between atoms: N_7  and  C_8 
REMARK    4  A    between atoms: C_10  and  C_11 
ROOT
HETATM    1  C   UNL     1       5.673  26.613  51.458  1.00  0.00     0.035 A 
HETATM    2  C   UNL     1       4.947  26.185  50.342  1.00  0.00     0.042 A 
HETATM    3  C   UNL     1       4.308  27.107  49.494  1.00  0.00    -0.021 A 
HETATM    4  C   UNL     1       4.391  28.472  49.795  1.00  0.00     0.012 A 
HETATM    5  C   UNL     1       5.108  28.908  50.910  1.00  0.00     0.003 A 
HETATM    6  C   UNL     1       5.749  27.983  51.734  1.00  0.00     0.029 A 
ENDROOT
BRANCH   1   7
HETATM    7  N   UNL     1       6.358  25.748  52.331  1.00  0.00    -0.321 N 
HETATM    8  C   UNL     1       5.838  24.922  53.312  1.00  0.00     0.279 C 
HETATM    9  O   UNL     1       4.654  24.841  53.624  1.00  0.00    -0.265 OA
HETATM   10  H   UNL     1       7.369  25.708  52.245  1.00  0.00     0.169 HD
BRANCH   8  11
HETATM   11  C   UNL     1       6.862  24.129  53.973  1.00  0.00     0.143 A 
HETATM   12  O   UNL     1       6.968  22.791  53.684  1.00  0.00    -0.310 OA
HETATM   13  C   UNL     1       7.975  22.291  54.455  1.00  0.00     0.053 A 
HETATM   14  C   UNL     1       8.531  23.294  55.219  1.00  0.00     0.036 A 
HETATM   15  C   UNL     1       7.813  24.474  54.913  1.00  0.00     0.045 A 
BRANCH  13  16
HETATM   16  C   UNL     1       8.247  20.839  54.329  1.00  0.00     0.060 C 
HETATM   17  C   UNL     1       8.593  20.463  52.897  1.00  0.00     0.012 C 
ENDBRANCH  13  16
ENDBRANCH   8  11
ENDBRANCH   1   7
BRANCH   3  18
HETATM   18  C   UNL     1       3.573  26.664  48.319  1.00  0.00     0.010 A 
HETATM   19  C   UNL     1       3.484  25.394  47.702  1.00  0.00     0.152 A 
HETATM   20  N   UNL     1       2.675  25.386  46.637  1.00  0.00    -0.187 NA
HETATM   21  N   UNL     1       2.244  26.656  46.565  1.00  0.00    -0.289 N 
HETATM   22  H   UNL     1       1.603  26.905  45.820  1.00  0.00     0.188 HD
HETATM   23  C   UNL     1       2.745  27.457  47.549  1.00  0.00     0.123 A 
ENDBRANCH   3  18
TORSDOF 4
ENDMDL
MODEL 7
REMARK VINA RESULT:      -8.0      3.973      6.771
REMARK  4 active torsions:
REMARK  status: ('A' for Active; 'I' for Inactive)
REMARK    1  A    between atoms: C_2  and  C_3 
REMARK    2  A    between atoms: C_5  and  C_6 
REMARK       I    between atoms: C_6  and  N_7 
REMARK    3  A    between atoms: N_7  and  C_8 
REMARK    4  A    between atoms: C_10  and  C_11 
ROOT
HETATM    1  C   UNL     1       8.812  30.625  58.908  1.00  0.00     0.035 A 
HETATM    2  C   UNL     1       8.219  29.484  58.360  1.00  0.00     0.042 A 
HETATM    3  C   UNL     1       8.851  28.758  57.335  1.00  0.00    -0.021 A 
HETATM    4  C   UNL     1      10.085  29.208  56.851  1.00  0.00     0.012 A 
HETATM    5  C   UNL     1      10.682  30.349  57.386  1.00  0.00     0.003 A 
HETATM    6  C   UNL     1      10.050  31.051  58.413  1.00  0.00     0.029 A 
ENDROOT
BRANCH   1   7
HETATM    7  N   UNL     1       8.248  31.382  59.952  1.00  0.00    -0.321 N 
HETATM    8  C   UNL     1       8.553  31.351  61.302  1.00  0.00     0.279 C 
HETATM    9  O   UNL     1       9.362  30.598  61.835  1.00  0.00    -0.265 OA
HETATM   10  H   UNL     1       7.521  32.045  59.704  1.00  0.00     0.169 HD
BRANCH   8  11
HETATM   11  C   UNL     1       7.794  32.327  62.066  1.00  0.00     0.143 A 
HETATM   12  O   UNL     1       7.999  32.429  63.420  1.00  0.00    -0.310 OA
HETATM   13  C   UNL     1       7.147  33.386  63.885  1.00  0.00     0.053 A 
HETATM   14  C   UNL     1       6.413  33.915  62.846  1.00  0.00     0.036 A 
HETATM   15  C   UNL     1       6.826  33.232  61.678  1.00  0.00     0.045 A 
BRANCH  13  16
HETATM   16  C   UNL     1       7.173  33.643  65.346  1.00  0.00     0.060 C 
HETATM   17  C   UNL     1       5.782  33.949  65.879  1.00  0.00     0.012 C 
ENDBRANCH  13  16
ENDBRANCH   8  11
ENDBRANCH   1   7
BRANCH   3  18
HETATM   18  C   UNL     1       8.247  27.555  56.782  1.00  0.00     0.010 A 
HETATM   19  C   UNL     1       8.216  26.224  57.262  1.00  0.00     0.152 A 
HETATM   20  N   UNL     1       7.529  25.398  56.466  1.00  0.00    -0.187 NA
HETATM   21  N   UNL     1       7.118  26.197  55.468  1.00  0.00    -0.289 N 
HETATM   22  H   UNL     1       6.565  25.790  54.723  1.00  0.00     0.188 HD
HETATM   23  C   UNL     1       7.515  27.495  55.613  1.00  0.00     0.123 A 
ENDBRANCH   3  18
TORSDOF 4
ENDMDL
MODEL 8
REMARK VINA RESULT:      -8.0      5.260      7.849
REMARK  4 active torsions:
REMARK  status: ('A' for Active; 'I' for Inactive)
REMARK    1  A    between atoms: C_2  and  C_3 
REMARK    2  A    between atoms: C_5  and  C_6 
REMARK       I    between atoms: C_6  and  N_7 
REMARK    3  A    between atoms: N_7  and  C_8 
REMARK    4  A    between atoms: C_10  and  C_11 
ROOT
HETATM    1  C   UNL     1       5.152  25.524  52.225  1.00  0.00     0.035 A 
HETATM    2  C   UNL     1       6.113  24.534  52.456  1.00  0.00     0.042 A 
HETATM    3  C   UNL     1       6.723  24.395  53.715  1.00  0.00    -0.021 A 
HETATM    4  C   UNL     1       6.369  25.281  54.739  1.00  0.00     0.012 A 
HETATM    5  C   UNL     1       5.416  26.275  54.517  1.00  0.00     0.003 A 
HETATM    6  C   UNL     1       4.808  26.392  53.267  1.00  0.00     0.029 A 
ENDROOT
BRANCH   1   7
HETATM    7  N   UNL     1       4.483  25.701  50.999  1.00  0.00    -0.321 N 
HETATM    8  C   UNL     1       4.691  26.672  50.035  1.00  0.00     0.279 C 
HETATM    9  O   UNL     1       5.490  27.598  50.115  1.00  0.00    -0.265 OA
HETATM   10  H   UNL     1       3.748  25.038  50.773  1.00  0.00     0.169 HD
BRANCH   8  11
HETATM   11  C   UNL     1       3.838  26.492  48.872  1.00  0.00     0.143 A 
HETATM   12  O   UNL     1       3.012  27.516  48.478  1.00  0.00    -0.310 OA
HETATM   13  C   UNL     1       2.311  27.074  47.396  1.00  0.00     0.053 A 
HETATM   14  C   UNL     1       2.690  25.788  47.076  1.00  0.00     0.036 A 
HETATM   15  C   UNL     1       3.668  25.413  48.027  1.00  0.00     0.045 A 
BRANCH  13  16
HETATM   16  C   UNL     1       1.322  28.016  46.818  1.00  0.00     0.060 C 
HETATM   17  C   UNL     1       1.873  29.433  46.765  1.00  0.00     0.012 C 
ENDBRANCH  13  16
ENDBRANCH   8  11
ENDBRANCH   1   7
BRANCH   3  18
HETATM   18  C   UNL     1       7.705  23.350  53.964  1.00  0.00     0.010 A 
HETATM   19  C   UNL     1       8.373  22.966  55.151  1.00  0.00     0.152 A 
HETATM   20  N   UNL     1       9.196  21.927  54.974  1.00  0.00    -0.187 NA
HETATM   21  N   UNL     1       9.060  21.642  53.669  1.00  0.00    -0.289 N 
HETATM   22  H   UNL     1       9.597  20.872  53.286  1.00  0.00     0.188 HD
HETATM   23  C   UNL     1       8.177  22.457  53.023  1.00  0.00     0.123 A 
ENDBRANCH   3  18
TORSDOF 4
ENDMDL
MODEL 9
REMARK VINA RESULT:      -7.8      4.112      7.535
REMARK  4 active torsions:
REMARK  status: ('A' for Active; 'I' for Inactive)
REMARK    1  A    between atoms: C_2  and  C_3 
REMARK    2  A    between atoms: C_5  and  C_6 
REMARK       I    between atoms: C_6  and  N_7 
REMARK    3  A    between atoms: N_7  and  C_8 
REMARK    4  A    between atoms: C_10  and  C_11 
ROOT
HETATM    1  C   UNL     1       5.514  26.010  52.899  1.00  0.00     0.035 A 
HETATM    2  C   UNL     1       5.559  26.131  51.506  1.00  0.00     0.042 A 
HETATM    3  C   UNL     1       4.888  27.175  50.846  1.00  0.00    -0.021 A 
HETATM    4  C   UNL     1       4.149  28.091  51.606  1.00  0.00     0.012 A 
HETATM    5  C   UNL     1       4.093  27.974  52.995  1.00  0.00     0.003 A 
HETATM    6  C   UNL     1       4.776  26.941  53.637  1.00  0.00     0.029 A 
ENDROOT
BRANCH   1   7
HETATM    7  N   UNL     1       6.184  25.006  53.624  1.00  0.00    -0.321 N 
HETATM    8  C   UNL     1       7.126  25.150  54.628  1.00  0.00     0.279 C 
HETATM    9  O   UNL     1       7.582  26.215  55.032  1.00  0.00    -0.265 OA
HETATM   10  H   UNL     1       5.960  24.043  53.397  1.00  0.00     0.169 HD
BRANCH   8  11
HETATM   11  C   UNL     1       7.550  23.875  55.180  1.00  0.00     0.143 A 
HETATM   12  O   UNL     1       7.602  22.772  54.363  1.00  0.00    -0.310 OA
HETATM   13  C   UNL     1       7.996  21.719  55.134  1.00  0.00     0.053 A 
HETATM   14  C   UNL     1       8.217  22.133  56.429  1.00  0.00     0.036 A 
HETATM   15  C   UNL     1       7.926  23.518  56.460  1.00  0.00     0.045 A 
BRANCH  13  16
HETATM   16  C   UNL     1       8.090  20.402  54.458  1.00  0.00     0.060 C 
HETATM   17  C   UNL     1       8.069  20.555  52.945  1.00  0.00     0.012 C 
ENDBRANCH  13  16
ENDBRANCH   8  11
ENDBRANCH   1   7
BRANCH   3  18
HETATM   18  C   UNL     1       4.954  27.318  49.400  1.00  0.00     0.010 A 
HETATM   19  C   UNL     1       4.552  26.445  48.360  1.00  0.00     0.152 A 
HETATM   20  N   UNL     1       4.761  26.955  47.142  1.00  0.00    -0.187 NA
HETATM   21  N   UNL     1       5.302  28.157  47.395  1.00  0.00    -0.289 N 
HETATM   22  H   UNL     1       5.553  28.747  46.610  1.00  0.00     0.188 HD
HETATM   23  C   UNL     1       5.432  28.424  48.727  1.00  0.00     0.123 A 
ENDBRANCH   3  18
TORSDOF 4
ENDMDL
MODEL 10
REMARK VINA RESULT:      -7.7      5.031      6.994
REMARK  4 active torsions:
REMARK  status: ('A' for Active; 'I' for Inactive)
REMARK    1  A    between atoms: C_2  and  C_3 
REMARK    2  A    between atoms: C_5  and  C_6 
REMARK       I    between atoms: C_6  and  N_7 
REMARK    3  A    between atoms: N_7  and  C_8 
REMARK    4  A    between atoms: C_10  and  C_11 
ROOT
HETATM    1  C   UNL     1       7.762  29.951  58.437  1.00  0.00     0.035 A 
HETATM    2  C   UNL     1       6.661  29.694  57.614  1.00  0.00     0.042 A 
HETATM    3  C   UNL     1       6.820  29.069  56.364  1.00  0.00    -0.021 A 
HETATM    4  C   UNL     1       8.109  28.722  55.941  1.00  0.00     0.012 A 
HETATM    5  C   UNL     1       9.214  28.980  56.753  1.00  0.00     0.003 A 
HETATM    6  C   UNL     1       9.039  29.587  57.997  1.00  0.00     0.029 A 
ENDROOT
BRANCH   1   7
HETATM    7  N   UNL     1       7.671  30.547  59.709  1.00  0.00    -0.321 N 
HETATM    8  C   UNL     1       8.132  31.787  60.116  1.00  0.00     0.279 C 
HETATM    9  O   UNL     1       8.760  32.579  59.421  1.00  0.00    -0.265 OA
HETATM   10  H   UNL     1       7.208  30.014  60.438  1.00  0.00     0.169 HD
BRANCH   8  11
HETATM   11  C   UNL     1       7.798  32.077  61.500  1.00  0.00     0.143 A 
HETATM   12  O   UNL     1       6.481  32.219  61.860  1.00  0.00    -0.310 OA
HETATM   13  C   UNL     1       6.456  32.514  63.191  1.00  0.00     0.053 A 
HETATM   14  C   UNL     1       7.737  32.543  63.696  1.00  0.00     0.036 A 
HETATM   15  C   UNL     1       8.600  32.267  62.609  1.00  0.00     0.045 A 
BRANCH  13  16
HETATM   16  C   UNL     1       5.120  32.744  63.792  1.00  0.00     0.060 C 
HETATM   17  C   UNL     1       5.213  33.635  65.022  1.00  0.00     0.012 C 
ENDBRANCH  13  16
ENDBRANCH   8  11
ENDBRANCH   1   7
BRANCH   3  18
HETATM   18  C   UNL     1       5.674  28.778  55.517  1.00  0.00     0.010 A 
HETATM   19  C   UNL     1       4.767  29.638  54.852  1.00  0.00     0.152 A 
HETATM   20  N   UNL     1       3.848  28.977  54.140  1.00  0.00    -0.187 NA
HETATM   21  N   UNL     1       4.161  27.688  54.348  1.00  0.00    -0.289 N 
HETATM   22  H   UNL     1       3.593  26.977  53.901  1.00  0.00     0.188 HD
HETATM   23  C   UNL     1       5.246  27.516  55.157  1.00  0.00     0.123 A 
ENDBRANCH   3  18
TORSDOF 4
ENDMDL
