MODEL 1
REMARK VINA RESULT:     -10.8      0.000      0.000
REMARK  4 active torsions:
REMARK  status: ('A' for Active; 'I' for Inactive)
REMARK    1  A    between atoms: C_4  and  C_5 
REMARK    2  A    between atoms: C_9  and  N_10 
REMARK       I    between atoms: N_10  and  C_11 
REMARK    3  A    between atoms: C_11  and  C_12 
REMARK    4  A    between atoms: C_13  and  C_14 
ROOT
HETATM    1  N   UNL     1       7.332  26.426  54.143  1.00  0.00    -0.308 N 
HETATM    2  C   UNL     1       6.628  25.999  55.256  1.00  0.00     0.261 C 
HETATM    3  O   UNL     1       5.416  26.166  55.390  1.00  0.00    -0.267 OA
HETATM    4  H   UNL     1       8.319  26.224  54.051  1.00  0.00     0.170 HD
ENDROOT
BRANCH   1   5
HETATM    5  C   UNL     1       6.708  27.036  53.072  1.00  0.00     0.126 A 
HETATM    6  N   UNL     1       6.359  28.359  53.025  1.00  0.00    -0.262 N 
HETATM    7  N   UNL     1       5.680  28.699  51.917  1.00  0.00    -0.173 NA
HETATM    8  H   UNL     1       6.530  29.059  53.742  1.00  0.00     0.191 HD
HETATM    9  C   UNL     1       5.633  27.567  51.196  1.00  0.00     0.090 A 
HETATM   10  C   UNL     1       6.283  26.501  51.880  1.00  0.00     0.084 A 
BRANCH   9  11
HETATM   11  C   UNL     1       4.947  27.505  49.911  1.00  0.00    -0.005 A 
HETATM   12  C   UNL     1       4.354  26.315  49.472  1.00  0.00     0.020 A 
HETATM   13  C   UNL     1       3.679  26.267  48.244  1.00  0.00    -0.061 A 
HETATM   14  C   UNL     1       3.090  24.984  47.739  1.00  0.00     0.048 C 
HETATM   15  C   UNL     1       3.597  27.428  47.462  1.00  0.00     0.013 A 
HETATM   16  C   UNL     1       4.172  28.629  47.893  1.00  0.00    -0.061 A 
HETATM   17  C   UNL     1       4.865  28.653  49.111  1.00  0.00     0.020 A 
HETATM   18  C   UNL     1       4.093  29.858  47.037  1.00  0.00     0.048 C 
ENDBRANCH   9  11
ENDBRANCH   1   5
BRANCH   2  19
HETATM   19  C   UNL     1       7.401  25.276  56.260  1.00  0.00     0.080 A 
HETATM   20  C   UNL     1       7.962  23.960  56.298  1.00  0.00     0.104 A 
HETATM   21  N   UNL     1       8.537  23.711  57.486  1.00  0.00    -0.174 NA
HETATM   22  N   UNL     1       8.418  24.856  58.167  1.00  0.00    -0.288 N 
HETATM   23  H   UNL     1       8.811  24.905  59.102  1.00  0.00     0.188 HD
HETATM   24  C   UNL     1       7.755  25.822  57.482  1.00  0.00     0.128 A 
BRANCH  20  25
HETATM   25  C   UNL     1       7.984  22.928  55.265  1.00  0.00    -0.004 A 
HETATM   26  C   UNL     1       8.111  23.275  53.912  1.00  0.00     0.017 A 
HETATM   27  C   UNL     1       8.117  22.280  52.932  1.00  0.00     0.043 A 
HETATM   28  C   UNL     1       8.006  20.946  53.308  1.00  0.00     0.116 A 
HETATM   29  F   UNL     1       8.011  19.994  52.365  1.00  0.00    -0.206 F 
HETATM   30  C   UNL     1       7.892  20.584  54.644  1.00  0.00     0.043 A 
HETATM   31  C   UNL     1       7.886  21.576  55.626  1.00  0.00     0.017 A 
ENDBRANCH  20  25
ENDBRANCH   2  19
TORSDOF 4
ENDMDL
MODEL 2
REMARK VINA RESULT:     -10.7      0.070      1.628
REMARK  4 active torsions:
REMARK  status: ('A' for Active; 'I' for Inactive)
REMARK    1  A    between atoms: C_4  and  C_5 
REMARK    2  A    between atoms: C_9  and  N_10 
REMARK       I    between atoms: N_10  and  C_11 
REMARK    3  A    between atoms: C_11  and  C_12 
REMARK    4  A    between atoms: C_13  and  C_14 
ROOT
HETATM    1  N   UNL     1       7.300  26.456  54.139  1.00  0.00    -0.308 N 
HETATM    2  C   UNL     1       6.583  25.959  55.215  1.00  0.00     0.261 C 
HETATM    3  O   UNL     1       5.361  26.060  55.313  1.00  0.00    -0.267 OA
HETATM    4  H   UNL     1       8.298  26.308  54.074  1.00  0.00     0.170 HD
ENDROOT
BRANCH   1   5
HETATM    5  C   UNL     1       6.679  27.068  53.066  1.00  0.00     0.126 A 
HETATM    6  N   UNL     1       6.363  28.399  53.005  1.00  0.00    -0.262 N 
HETATM    7  N   UNL     1       5.680  28.741  51.900  1.00  0.00    -0.173 NA
HETATM    8  H   UNL     1       6.560  29.104  53.711  1.00  0.00     0.191 HD
HETATM    9  C   UNL     1       5.597  27.600  51.196  1.00  0.00     0.090 A 
HETATM   10  C   UNL     1       6.227  26.528  51.887  1.00  0.00     0.084 A 
BRANCH   9  11
HETATM   11  C   UNL     1       4.895  27.540  49.919  1.00  0.00    -0.005 A 
HETATM   12  C   UNL     1       4.792  28.674  49.103  1.00  0.00     0.020 A 
HETATM   13  C   UNL     1       4.133  28.605  47.868  1.00  0.00    -0.061 A 
HETATM   14  C   UNL     1       3.969  29.827  47.015  1.00  0.00     0.048 C 
HETATM   15  C   UNL     1       3.583  27.384  47.453  1.00  0.00     0.013 A 
HETATM   16  C   UNL     1       3.690  26.238  48.250  1.00  0.00    -0.061 A 
HETATM   17  C   UNL     1       4.330  26.331  49.492  1.00  0.00     0.020 A 
HETATM   18  C   UNL     1       3.080  24.944  47.801  1.00  0.00     0.048 C 
ENDBRANCH   9  11
ENDBRANCH   1   5
BRANCH   2  19
HETATM   19  C   UNL     1       7.361  25.244  56.221  1.00  0.00     0.080 A 
HETATM   20  C   UNL     1       7.937  23.935  56.261  1.00  0.00     0.104 A 
HETATM   21  N   UNL     1       8.510  23.692  57.452  1.00  0.00    -0.174 NA
HETATM   22  N   UNL     1       8.375  24.836  58.132  1.00  0.00    -0.288 N 
HETATM   23  H   UNL     1       8.764  24.889  59.069  1.00  0.00     0.188 HD
HETATM   24  C   UNL     1       7.704  25.794  57.445  1.00  0.00     0.128 A 
BRANCH  20  25
HETATM   25  C   UNL     1       7.974  22.904  55.229  1.00  0.00    -0.004 A 
HETATM   26  C   UNL     1       8.025  23.254  53.872  1.00  0.00     0.017 A 
HETATM   27  C   UNL     1       8.047  22.258  52.893  1.00  0.00     0.043 A 
HETATM   28  C   UNL     1       8.026  20.921  53.272  1.00  0.00     0.116 A 
HETATM   29  F   UNL     1       8.046  19.969  52.330  1.00  0.00    -0.206 F 
HETATM   30  C   UNL     1       7.987  20.557  54.613  1.00  0.00     0.043 A 
HETATM   31  C   UNL     1       7.966  21.549  55.594  1.00  0.00     0.017 A 
ENDBRANCH  20  25
ENDBRANCH   2  19
TORSDOF 4
ENDMDL
MODEL 3
REMARK VINA RESULT:     -10.2      4.241      8.031
REMARK  4 active torsions:
REMARK  status: ('A' for Active; 'I' for Inactive)
REMARK    1  A    between atoms: C_4  and  C_5 
REMARK    2  A    between atoms: C_9  and  N_10 
REMARK       I    between atoms: N_10  and  C_11 
REMARK    3  A    between atoms: C_11  and  C_12 
REMARK    4  A    between atoms: C_13  and  C_14 
ROOT
HETATM    1  N   UNL     1       6.310  27.317  55.459  1.00  0.00    -0.308 N 
HETATM    2  C   UNL     1       6.783  27.182  54.165  1.00  0.00     0.261 C 
HETATM    3  O   UNL     1       7.785  27.766  53.751  1.00  0.00    -0.267 OA
HETATM    4  H   UNL     1       5.513  26.781  55.773  1.00  0.00     0.170 HD
ENDROOT
BRANCH   1   5
HETATM    5  C   UNL     1       6.963  28.091  56.401  1.00  0.00     0.126 A 
HETATM    6  N   UNL     1       8.238  27.863  56.846  1.00  0.00    -0.262 N 
HETATM    7  N   UNL     1       8.622  28.694  57.829  1.00  0.00    -0.173 NA
HETATM    8  H   UNL     1       8.869  27.130  56.534  1.00  0.00     0.191 HD
HETATM    9  C   UNL     1       7.577  29.522  57.990  1.00  0.00     0.090 A 
HETATM   10  C   UNL     1       6.519  29.187  57.099  1.00  0.00     0.084 A 
BRANCH   9  11
HETATM   11  C   UNL     1       7.584  30.575  59.000  1.00  0.00    -0.005 A 
HETATM   12  C   UNL     1       8.695  30.760  59.833  1.00  0.00     0.020 A 
HETATM   13  C   UNL     1       8.704  31.785  60.789  1.00  0.00    -0.061 A 
HETATM   14  C   UNL     1       9.864  31.955  61.725  1.00  0.00     0.048 C 
HETATM   15  C   UNL     1       7.590  32.630  60.898  1.00  0.00     0.013 A 
HETATM   16  C   UNL     1       6.479  32.468  60.062  1.00  0.00    -0.061 A 
HETATM   17  C   UNL     1       6.476  31.422  59.129  1.00  0.00     0.020 A 
HETATM   18  C   UNL     1       5.287  33.367  60.202  1.00  0.00     0.048 C 
ENDBRANCH   9  11
ENDBRANCH   1   5
BRANCH   2  19
HETATM   19  C   UNL     1       6.053  26.249  53.315  1.00  0.00     0.080 A 
HETATM   20  C   UNL     1       6.164  24.840  53.090  1.00  0.00     0.104 A 
HETATM   21  N   UNL     1       5.304  24.430  52.143  1.00  0.00    -0.174 NA
HETATM   22  N   UNL     1       4.607  25.524  51.821  1.00  0.00    -0.288 N 
HETATM   23  H   UNL     1       3.870  25.440  51.127  1.00  0.00     0.188 HD
HETATM   24  C   UNL     1       5.007  26.634  52.492  1.00  0.00     0.128 A 
BRANCH  20  25
HETATM   25  C   UNL     1       7.041  23.864  53.728  1.00  0.00    -0.004 A 
HETATM   26  C   UNL     1       7.921  23.085  52.961  1.00  0.00     0.017 A 
HETATM   27  C   UNL     1       8.745  22.145  53.583  1.00  0.00     0.043 A 
HETATM   28  C   UNL     1       8.695  21.993  54.964  1.00  0.00     0.116 A 
HETATM   29  F   UNL     1       9.488  21.089  55.555  1.00  0.00    -0.206 F 
HETATM   30  C   UNL     1       7.839  22.764  55.739  1.00  0.00     0.043 A 
HETATM   31  C   UNL     1       7.013  23.705  55.122  1.00  0.00     0.017 A 
ENDBRANCH  20  25
ENDBRANCH   2  19
TORSDOF 4
ENDMDL
MODEL 4
REMARK VINA RESULT:     -10.1      2.811      8.354
REMARK  4 active torsions:
REMARK  status: ('A' for Active; 'I' for Inactive)
REMARK    1  A    between atoms: C_4  and  C_5 
REMARK    2  A    between atoms: C_9  and  N_10 
REMARK       I    between atoms: N_10  and  C_11 
REMARK    3  A    between atoms: C_11  and  C_12 
REMARK    4  A    between atoms: C_13  and  C_14 
ROOT
HETATM    1  N   UNL     1       4.371  27.359  52.698  1.00  0.00    -0.308 N 
HETATM    2  C   UNL     1       4.618  28.356  51.769  1.00  0.00     0.261 C 
HETATM    3  O   UNL     1       5.742  28.610  51.338  1.00  0.00    -0.267 OA
HETATM    4  H   UNL     1       3.425  27.151  52.988  1.00  0.00     0.170 HD
ENDROOT
BRANCH   1   5
HETATM    5  C   UNL     1       5.376  26.539  53.176  1.00  0.00     0.126 A 
HETATM    6  N   UNL     1       6.658  26.947  53.431  1.00  0.00    -0.262 N 
HETATM    7  N   UNL     1       7.477  25.950  53.800  1.00  0.00    -0.173 NA
HETATM    8  H   UNL     1       7.027  27.889  53.330  1.00  0.00     0.191 HD
HETATM    9  C   UNL     1       6.685  24.866  53.837  1.00  0.00     0.090 A 
HETATM   10  C   UNL     1       5.352  25.197  53.467  1.00  0.00     0.084 A 
BRANCH   9  11
HETATM   11  C   UNL     1       7.208  23.548  54.177  1.00  0.00    -0.005 A 
HETATM   12  C   UNL     1       7.519  22.620  53.174  1.00  0.00     0.020 A 
HETATM   13  C   UNL     1       8.040  21.362  53.505  1.00  0.00    -0.061 A 
HETATM   14  C   UNL     1       8.321  20.341  52.442  1.00  0.00     0.048 C 
HETATM   15  C   UNL     1       8.254  21.043  54.854  1.00  0.00     0.013 A 
HETATM   16  C   UNL     1       7.963  21.964  55.867  1.00  0.00    -0.061 A 
HETATM   17  C   UNL     1       7.420  23.207  55.520  1.00  0.00     0.020 A 
HETATM   18  C   UNL     1       8.180  21.601  57.306  1.00  0.00     0.048 C 
ENDBRANCH   9  11
ENDBRANCH   1   5
BRANCH   2  19
HETATM   19  C   UNL     1       3.445  29.070  51.275  1.00  0.00     0.080 A 
HETATM   20  C   UNL     1       2.603  28.890  50.132  1.00  0.00     0.104 A 
HETATM   21  N   UNL     1       1.674  29.858  50.056  1.00  0.00    -0.174 NA
HETATM   22  N   UNL     1       1.863  30.596  51.155  1.00  0.00    -0.288 N 
HETATM   23  H   UNL     1       1.245  31.385  51.318  1.00  0.00     0.188 HD
HETATM   24  C   UNL     1       2.900  30.168  51.918  1.00  0.00     0.128 A 
BRANCH  20  25
HETATM   25  C   UNL     1       2.631  27.847  49.112  1.00  0.00    -0.004 A 
HETATM   26  C   UNL     1       3.794  27.094  48.892  1.00  0.00     0.017 A 
HETATM   27  C   UNL     1       3.812  26.108  47.903  1.00  0.00     0.043 A 
HETATM   28  C   UNL     1       2.670  25.872  47.146  1.00  0.00     0.116 A 
HETATM   29  F   UNL     1       2.692  24.926  46.198  1.00  0.00    -0.206 F 
HETATM   30  C   UNL     1       1.506  26.601  47.359  1.00  0.00     0.043 A 
HETATM   31  C   UNL     1       1.484  27.587  48.347  1.00  0.00     0.017 A 
ENDBRANCH  20  25
ENDBRANCH   2  19
TORSDOF 4
ENDMDL
MODEL 5
REMARK VINA RESULT:     -10.1      3.116      8.517
REMARK  4 active torsions:
REMARK  status: ('A' for Active; 'I' for Inactive)
REMARK    1  A    between atoms: C_4  and  C_5 
REMARK    2  A    between atoms: C_9  and  N_10 
REMARK       I    between atoms: N_10  and  C_11 
REMARK    3  A    between atoms: C_11  and  C_12 
REMARK    4  A    between atoms: C_13  and  C_14 
ROOT
HETATM    1  N   UNL     1       4.452  27.133  51.868  1.00  0.00    -0.308 N 
HETATM    2  C   UNL     1       4.683  28.476  51.623  1.00  0.00     0.261 C 
HETATM    3  O   UNL     1       5.803  28.985  51.671  1.00  0.00    -0.267 OA
HETATM    4  H   UNL     1       3.523  26.745  51.770  1.00  0.00     0.170 HD
ENDROOT
BRANCH   1   5
HETATM    5  C   UNL     1       5.481  26.251  52.141  1.00  0.00     0.126 A 
HETATM    6  N   UNL     1       6.598  26.095  51.366  1.00  0.00    -0.262 N 
HETATM    7  N   UNL     1       7.412  25.112  51.785  1.00  0.00    -0.173 NA
HETATM    8  H   UNL     1       6.828  26.610  50.521  1.00  0.00     0.191 HD
HETATM    9  C   UNL     1       6.827  24.650  52.902  1.00  0.00     0.090 A 
HETATM   10  C   UNL     1       5.618  25.351  53.170  1.00  0.00     0.084 A 
BRANCH   9  11
HETATM   11  C   UNL     1       7.394  23.541  53.660  1.00  0.00    -0.005 A 
HETATM   12  C   UNL     1       7.550  23.629  55.049  1.00  0.00     0.020 A 
HETATM   13  C   UNL     1       8.078  22.552  55.775  1.00  0.00    -0.061 A 
HETATM   14  C   UNL     1       8.302  22.658  57.255  1.00  0.00     0.048 C 
HETATM   15  C   UNL     1       8.442  21.381  55.096  1.00  0.00     0.013 A 
HETATM   16  C   UNL     1       8.278  21.272  53.710  1.00  0.00    -0.061 A 
HETATM   17  C   UNL     1       7.773  22.366  52.996  1.00  0.00     0.020 A 
HETATM   18  C   UNL     1       8.690  20.020  52.994  1.00  0.00     0.048 C 
ENDBRANCH   9  11
ENDBRANCH   1   5
BRANCH   2  19
HETATM   19  C   UNL     1       3.516  29.264  51.243  1.00  0.00     0.080 A 
HETATM   20  C   UNL     1       2.602  29.186  50.145  1.00  0.00     0.104 A 
HETATM   21  N   UNL     1       1.713  30.193  50.181  1.00  0.00    -0.174 NA
HETATM   22  N   UNL     1       1.997  30.855  51.307  1.00  0.00    -0.288 N 
HETATM   23  H   UNL     1       1.424  31.658  51.553  1.00  0.00     0.188 HD
HETATM   24  C   UNL     1       3.057  30.342  51.981  1.00  0.00     0.128 A 
BRANCH  20  25
HETATM   25  C   UNL     1       2.525  28.206  49.066  1.00  0.00    -0.004 A 
HETATM   26  C   UNL     1       1.283  27.753  48.600  1.00  0.00     0.017 A 
HETATM   27  C   UNL     1       1.223  26.805  47.576  1.00  0.00     0.043 A 
HETATM   28  C   UNL     1       2.401  26.321  47.018  1.00  0.00     0.116 A 
HETATM   29  F   UNL     1       2.339  25.411  46.037  1.00  0.00    -0.206 F 
HETATM   30  C   UNL     1       3.640  26.768  47.461  1.00  0.00     0.043 A 
HETATM   31  C   UNL     1       3.704  27.716  48.483  1.00  0.00     0.017 A 
ENDBRANCH  20  25
ENDBRANCH   2  19
TORSDOF 4
ENDMDL
MODEL 6
REMARK VINA RESULT:     -10.0      4.350      7.995
REMARK  4 active torsions:
REMARK  status: ('A' for Active; 'I' for Inactive)
REMARK    1  A    between atoms: C_4  and  C_5 
REMARK    2  A    between atoms: C_9  and  N_10 
REMARK       I    between atoms: N_10  and  C_11 
REMARK    3  A    between atoms: C_11  and  C_12 
REMARK    4  A    between atoms: C_13  and  C_14 
ROOT
HETATM    1  N   UNL     1       6.999  27.566  55.278  1.00  0.00    -0.308 N 
HETATM    2  C   UNL     1       6.022  26.591  55.390  1.00  0.00     0.261 C 
HETATM    3  O   UNL     1       5.453  26.329  56.449  1.00  0.00    -0.267 OA
HETATM    4  H   UNL     1       7.406  27.784  54.378  1.00  0.00     0.170 HD
ENDROOT
BRANCH   1   5
HETATM    5  C   UNL     1       7.374  28.353  56.350  1.00  0.00     0.126 A 
HETATM    6  N   UNL     1       8.511  28.169  57.090  1.00  0.00    -0.262 N 
HETATM    7  N   UNL     1       8.613  29.002  58.139  1.00  0.00    -0.173 NA
HETATM    8  H   UNL     1       9.227  27.463  56.939  1.00  0.00     0.191 HD
HETATM    9  C   UNL     1       7.529  29.788  58.044  1.00  0.00     0.090 A 
HETATM   10  C   UNL     1       6.732  29.423  56.923  1.00  0.00     0.084 A 
BRANCH   9  11
HETATM   11  C   UNL     1       7.250  30.829  59.028  1.00  0.00    -0.005 A 
HETATM   12  C   UNL     1       6.161  31.695  58.865  1.00  0.00     0.020 A 
HETATM   13  C   UNL     1       5.887  32.680  59.823  1.00  0.00    -0.061 A 
HETATM   14  C   UNL     1       4.758  33.649  59.629  1.00  0.00     0.048 C 
HETATM   15  C   UNL     1       6.710  32.785  60.953  1.00  0.00     0.013 A 
HETATM   16  C   UNL     1       7.793  31.917  61.138  1.00  0.00    -0.061 A 
HETATM   17  C   UNL     1       8.069  30.955  60.158  1.00  0.00     0.020 A 
HETATM   18  C   UNL     1       8.677  32.054  62.341  1.00  0.00     0.048 C 
ENDBRANCH   9  11
ENDBRANCH   1   5
BRANCH   2  19
HETATM   19  C   UNL     1       5.654  25.914  54.151  1.00  0.00     0.080 A 
HETATM   20  C   UNL     1       6.085  24.694  53.540  1.00  0.00     0.104 A 
HETATM   21  N   UNL     1       5.503  24.519  52.341  1.00  0.00    -0.174 NA
HETATM   22  N   UNL     1       4.666  25.555  52.217  1.00  0.00    -0.288 N 
HETATM   23  H   UNL     1       4.093  25.614  51.380  1.00  0.00     0.188 HD
HETATM   24  C   UNL     1       4.711  26.413  53.267  1.00  0.00     0.128 A 
BRANCH  20  25
HETATM   25  C   UNL     1       7.016  23.686  54.034  1.00  0.00    -0.004 A 
HETATM   26  C   UNL     1       7.074  23.376  55.401  1.00  0.00     0.017 A 
HETATM   27  C   UNL     1       7.979  22.418  55.863  1.00  0.00     0.043 A 
HETATM   28  C   UNL     1       8.815  21.770  54.960  1.00  0.00     0.116 A 
HETATM   29  F   UNL     1       9.682  20.852  55.408  1.00  0.00    -0.206 F 
HETATM   30  C   UNL     1       8.762  22.056  53.602  1.00  0.00     0.043 A 
HETATM   31  C   UNL     1       7.858  23.012  53.136  1.00  0.00     0.017 A 
ENDBRANCH  20  25
ENDBRANCH   2  19
TORSDOF 4
ENDMDL
MODEL 7
REMARK VINA RESULT:      -9.6      2.954      8.525
REMARK  4 active torsions:
REMARK  status: ('A' for Active; 'I' for Inactive)
REMARK    1  A    between atoms: C_4  and  C_5 
REMARK    2  A    between atoms: C_9  and  N_10 
REMARK       I    between atoms: N_10  and  C_11 
REMARK    3  A    between atoms: C_11  and  C_12 
REMARK    4  A    between atoms: C_13  and  C_14 
ROOT
HETATM    1  N   UNL     1       5.277  27.351  50.962  1.00  0.00    -0.308 N 
HETATM    2  C   UNL     1       5.266  28.683  51.340  1.00  0.00     0.261 C 
HETATM    3  O   UNL     1       5.357  29.050  52.511  1.00  0.00    -0.267 OA
HETATM    4  H   UNL     1       5.250  27.093  49.985  1.00  0.00     0.170 HD
ENDROOT
BRANCH   1   5
HETATM    5  C   UNL     1       5.440  26.331  51.881  1.00  0.00     0.126 A 
HETATM    6  N   UNL     1       4.539  26.017  52.863  1.00  0.00    -0.262 N 
HETATM    7  N   UNL     1       4.960  25.047  53.692  1.00  0.00    -0.173 NA
HETATM    8  H   UNL     1       3.640  26.463  53.029  1.00  0.00     0.191 HD
HETATM    9  C   UNL     1       6.154  24.684  53.197  1.00  0.00     0.090 A 
HETATM   10  C   UNL     1       6.486  25.456  52.049  1.00  0.00     0.084 A 
BRANCH   9  11
HETATM   11  C   UNL     1       6.967  23.656  53.838  1.00  0.00    -0.005 A 
HETATM   12  C   UNL     1       7.293  23.745  55.197  1.00  0.00     0.020 A 
HETATM   13  C   UNL     1       8.058  22.745  55.812  1.00  0.00    -0.061 A 
HETATM   14  C   UNL     1       8.461  22.860  57.253  1.00  0.00     0.048 C 
HETATM   15  C   UNL     1       8.488  21.648  55.053  1.00  0.00     0.013 A 
HETATM   16  C   UNL     1       8.158  21.536  53.697  1.00  0.00    -0.061 A 
HETATM   17  C   UNL     1       7.414  22.558  53.092  1.00  0.00     0.020 A 
HETATM   18  C   UNL     1       8.641  20.367  52.893  1.00  0.00     0.048 C 
ENDBRANCH   9  11
ENDBRANCH   1   5
BRANCH   2  19
HETATM   19  C   UNL     1       5.195  29.652  50.252  1.00  0.00     0.080 A 
HETATM   20  C   UNL     1       4.693  29.582  48.914  1.00  0.00     0.104 A 
HETATM   21  N   UNL     1       4.918  30.729  48.250  1.00  0.00    -0.174 NA
HETATM   22  N   UNL     1       5.478  31.539  49.155  1.00  0.00    -0.288 N 
HETATM   23  H   UNL     1       5.716  32.485  48.873  1.00  0.00     0.188 HD
HETATM   24  C   UNL     1       5.661  30.951  50.364  1.00  0.00     0.128 A 
BRANCH  20  25
HETATM   25  C   UNL     1       4.010  28.487  48.233  1.00  0.00    -0.004 A 
HETATM   26  C   UNL     1       4.699  27.310  47.903  1.00  0.00     0.017 A 
HETATM   27  C   UNL     1       4.038  26.275  47.240  1.00  0.00     0.043 A 
HETATM   28  C   UNL     1       2.692  26.414  46.918  1.00  0.00     0.116 A 
HETATM   29  F   UNL     1       2.062  25.418  46.281  1.00  0.00    -0.206 F 
HETATM   30  C   UNL     1       1.991  27.567  47.248  1.00  0.00     0.043 A 
HETATM   31  C   UNL     1       2.649  28.604  47.912  1.00  0.00     0.017 A 
ENDBRANCH  20  25
ENDBRANCH   2  19
TORSDOF 4
ENDMDL
MODEL 8
REMARK VINA RESULT:      -9.6      4.242      7.828
REMARK  4 active torsions:
REMARK  status: ('A' for Active; 'I' for Inactive)
REMARK    1  A    between atoms: C_4  and  C_5 
REMARK    2  A    between atoms: C_9  and  N_10 
REMARK       I    between atoms: N_10  and  C_11 
REMARK    3  A    between atoms: C_11  and  C_12 
REMARK    4  A    between atoms: C_13  and  C_14 
ROOT
HETATM    1  N   UNL     1       7.768  26.249  56.096  1.00  0.00    -0.308 N 
HETATM    2  C   UNL     1       8.087  25.220  56.965  1.00  0.00     0.261 C 
HETATM    3  O   UNL     1       8.395  25.405  58.142  1.00  0.00    -0.267 OA
HETATM    4  H   UNL     1       7.472  26.050  55.150  1.00  0.00     0.170 HD
ENDROOT
BRANCH   1   5
HETATM    5  C   UNL     1       7.729  27.569  56.507  1.00  0.00     0.126 A 
HETATM    6  N   UNL     1       7.996  28.643  55.701  1.00  0.00    -0.262 N 
HETATM    7  N   UNL     1       7.984  29.819  56.349  1.00  0.00    -0.173 NA
HETATM    8  H   UNL     1       8.228  28.618  54.711  1.00  0.00     0.191 HD
HETATM    9  C   UNL     1       7.646  29.500  57.609  1.00  0.00     0.090 A 
HETATM   10  C   UNL     1       7.461  28.096  57.746  1.00  0.00     0.084 A 
BRANCH   9  11
HETATM   11  C   UNL     1       7.549  30.513  58.654  1.00  0.00    -0.005 A 
HETATM   12  C   UNL     1       6.415  31.329  58.756  1.00  0.00     0.020 A 
HETATM   13  C   UNL     1       6.318  32.287  59.775  1.00  0.00    -0.061 A 
HETATM   14  C   UNL     1       5.134  33.205  59.858  1.00  0.00     0.048 C 
HETATM   15  C   UNL     1       7.366  32.415  60.697  1.00  0.00     0.013 A 
HETATM   16  C   UNL     1       8.499  31.596  60.618  1.00  0.00    -0.061 A 
HETATM   17  C   UNL     1       8.591  30.661  59.579  1.00  0.00     0.020 A 
HETATM   18  C   UNL     1       9.620  31.757  61.600  1.00  0.00     0.048 C 
ENDBRANCH   9  11
ENDBRANCH   1   5
BRANCH   2  19
HETATM   19  C   UNL     1       7.982  23.871  56.419  1.00  0.00     0.080 A 
HETATM   20  C   UNL     1       7.517  23.358  55.167  1.00  0.00     0.104 A 
HETATM   21  N   UNL     1       7.545  22.015  55.151  1.00  0.00    -0.174 NA
HETATM   22  N   UNL     1       8.084  21.674  56.327  1.00  0.00    -0.288 N 
HETATM   23  H   UNL     1       8.225  20.688  56.525  1.00  0.00     0.188 HD
HETATM   24  C   UNL     1       8.368  22.739  57.118  1.00  0.00     0.128 A 
BRANCH  20  25
HETATM   25  C   UNL     1       7.049  24.075  53.985  1.00  0.00    -0.004 A 
HETATM   26  C   UNL     1       7.901  24.279  52.890  1.00  0.00     0.017 A 
HETATM   27  C   UNL     1       7.446  24.978  51.770  1.00  0.00     0.043 A 
HETATM   28  C   UNL     1       6.143  25.462  51.745  1.00  0.00     0.116 A 
HETATM   29  F   UNL     1       5.711  26.133  50.669  1.00  0.00    -0.206 F 
HETATM   30  C   UNL     1       5.282  25.259  52.816  1.00  0.00     0.043 A 
HETATM   31  C   UNL     1       5.733  24.560  53.937  1.00  0.00     0.017 A 
ENDBRANCH  20  25
ENDBRANCH   2  19
TORSDOF 4
ENDMDL
MODEL 9
REMARK VINA RESULT:      -9.3      6.350      9.044
REMARK  4 active torsions:
REMARK  status: ('A' for Active; 'I' for Inactive)
REMARK    1  A    between atoms: C_4  and  C_5 
REMARK    2  A    between atoms: C_9  and  N_10 
REMARK       I    between atoms: N_10  and  C_11 
REMARK    3  A    between atoms: C_11  and  C_12 
REMARK    4  A    between atoms: C_13  and  C_14 
ROOT
HETATM    1  N   UNL     1       4.987  30.656  58.549  1.00  0.00    -0.308 N 
HETATM    2  C   UNL     1       5.275  31.980  58.268  1.00  0.00     0.261 C 
HETATM    3  O   UNL     1       5.506  32.391  57.131  1.00  0.00    -0.267 OA
HETATM    4  H   UNL     1       4.754  30.369  59.491  1.00  0.00     0.170 HD
ENDROOT
BRANCH   1   5
HETATM    5  C   UNL     1       4.892  29.700  57.555  1.00  0.00     0.126 A 
HETATM    6  N   UNL     1       3.853  29.600  56.669  1.00  0.00    -0.262 N 
HETATM    7  N   UNL     1       3.939  28.535  55.855  1.00  0.00    -0.173 NA
HETATM    8  H   UNL     1       3.045  30.214  56.607  1.00  0.00     0.191 HD
HETATM    9  C   UNL     1       5.102  27.954  56.191  1.00  0.00     0.090 A 
HETATM   10  C   UNL     1       5.740  28.665  57.245  1.00  0.00     0.084 A 
BRANCH   9  11
HETATM   11  C   UNL     1       5.560  26.729  55.545  1.00  0.00    -0.005 A 
HETATM   12  C   UNL     1       5.119  26.390  54.260  1.00  0.00     0.020 A 
HETATM   13  C   UNL     1       5.577  25.221  53.636  1.00  0.00    -0.061 A 
HETATM   14  C   UNL     1       5.067  24.819  52.284  1.00  0.00     0.048 C 
HETATM   15  C   UNL     1       6.490  24.397  54.310  1.00  0.00     0.013 A 
HETATM   16  C   UNL     1       6.952  24.731  55.589  1.00  0.00    -0.061 A 
HETATM   17  C   UNL     1       6.464  25.889  56.208  1.00  0.00     0.020 A 
HETATM   18  C   UNL     1       7.913  23.831  56.306  1.00  0.00     0.048 C 
ENDBRANCH   9  11
ENDBRANCH   1   5
BRANCH   2  19
HETATM   19  C   UNL     1       5.236  32.895  59.404  1.00  0.00     0.080 A 
HETATM   20  C   UNL     1       6.010  32.996  60.603  1.00  0.00     0.104 A 
HETATM   21  N   UNL     1       5.547  33.973  61.400  1.00  0.00    -0.174 NA
HETATM   22  N   UNL     1       4.553  34.536  60.703  1.00  0.00    -0.288 N 
HETATM   23  H   UNL     1       4.065  35.327  61.112  1.00  0.00     0.188 HD
HETATM   24  C   UNL     1       4.329  33.937  59.506  1.00  0.00     0.128 A 
BRANCH  20  25
HETATM   25  C   UNL     1       7.167  32.215  61.031  1.00  0.00    -0.004 A 
HETATM   26  C   UNL     1       8.318  32.149  60.233  1.00  0.00     0.017 A 
HETATM   27  C   UNL     1       9.413  31.388  60.647  1.00  0.00     0.043 A 
HETATM   28  C   UNL     1       9.358  30.706  61.858  1.00  0.00     0.116 A 
HETATM   29  F   UNL     1      10.411  29.977  62.251  1.00  0.00    -0.206 F 
HETATM   30  C   UNL     1       8.230  30.771  62.666  1.00  0.00     0.043 A 
HETATM   31  C   UNL     1       7.133  31.531  62.256  1.00  0.00     0.017 A 
ENDBRANCH  20  25
ENDBRANCH   2  19
TORSDOF 4
ENDMDL
MODEL 10
REMARK VINA RESULT:      -9.3      3.818      9.668
REMARK  4 active torsions:
REMARK  status: ('A' for Active; 'I' for Inactive)
REMARK    1  A    between atoms: C_4  and  C_5 
REMARK    2  A    between atoms: C_9  and  N_10 
REMARK       I    between atoms: N_10  and  C_11 
REMARK    3  A    between atoms: C_11  and  C_12 
REMARK    4  A    between atoms: C_13  and  C_14 
ROOT
HETATM    1  N   UNL     1       4.239  26.243  50.299  1.00  0.00    -0.308 N 
HETATM    2  C   UNL     1       4.404  27.326  49.452  1.00  0.00     0.261 C 
HETATM    3  O   UNL     1       5.364  28.092  49.520  1.00  0.00    -0.267 OA
HETATM    4  H   UNL     1       3.461  25.609  50.176  1.00  0.00     0.170 HD
ENDROOT
BRANCH   1   5
HETATM    5  C   UNL     1       5.176  25.917  51.261  1.00  0.00     0.126 A 
HETATM    6  N   UNL     1       6.083  26.795  51.793  1.00  0.00    -0.262 N 
HETATM    7  N   UNL     1       6.951  26.223  52.644  1.00  0.00    -0.173 NA
HETATM    8  H   UNL     1       6.170  27.784  51.576  1.00  0.00     0.191 HD
HETATM    9  C   UNL     1       6.559  24.941  52.705  1.00  0.00     0.090 A 
HETATM   10  C   UNL     1       5.436  24.710  51.863  1.00  0.00     0.084 A 
BRANCH   9  11
HETATM   11  C   UNL     1       7.273  23.961  53.517  1.00  0.00    -0.005 A 
HETATM   12  C   UNL     1       7.617  22.710  52.991  1.00  0.00     0.020 A 
HETATM   13  C   UNL     1       8.320  21.780  53.769  1.00  0.00    -0.061 A 
HETATM   14  C   UNL     1       8.643  20.416  53.234  1.00  0.00     0.048 C 
HETATM   15  C   UNL     1       8.682  22.119  55.081  1.00  0.00     0.013 A 
HETATM   16  C   UNL     1       8.359  23.371  55.616  1.00  0.00    -0.061 A 
HETATM   17  C   UNL     1       7.634  24.279  54.833  1.00  0.00     0.020 A 
HETATM   18  C   UNL     1       8.736  23.712  57.027  1.00  0.00     0.048 C 
ENDBRANCH   9  11
ENDBRANCH   1   5
BRANCH   2  19
HETATM   19  C   UNL     1       3.389  27.483  48.416  1.00  0.00     0.080 A 
HETATM   20  C   UNL     1       2.967  28.598  47.624  1.00  0.00     0.104 A 
HETATM   21  N   UNL     1       1.927  28.271  46.840  1.00  0.00    -0.174 NA
HETATM   22  N   UNL     1       1.732  26.967  47.062  1.00  0.00    -0.288 N 
HETATM   23  H   UNL     1       0.995  26.495  46.547  1.00  0.00     0.188 HD
HETATM   24  C   UNL     1       2.577  26.447  47.987  1.00  0.00     0.128 A 
BRANCH  20  25
HETATM   25  C   UNL     1       3.501  29.955  47.571  1.00  0.00    -0.004 A 
HETATM   26  C   UNL     1       3.107  30.916  48.514  1.00  0.00     0.017 A 
HETATM   27  C   UNL     1       3.615  32.215  48.444  1.00  0.00     0.043 A 
HETATM   28  C   UNL     1       4.519  32.546  47.441  1.00  0.00     0.116 A 
HETATM   29  F   UNL     1       5.003  33.794  47.378  1.00  0.00    -0.206 F 
HETATM   30  C   UNL     1       4.929  31.604  46.506  1.00  0.00     0.043 A 
HETATM   31  C   UNL     1       4.424  30.305  46.573  1.00  0.00     0.017 A 
ENDBRANCH  20  25
ENDBRANCH   2  19
TORSDOF 4
ENDMDL
