MODEL 1
REMARK VINA RESULT:      -8.5      0.000      0.000
REMARK  3 active torsions:
REMARK  status: ('A' for Active; 'I' for Inactive)
REMARK    1  A    between atoms: C_2  and  C_3 
REMARK    2  A    between atoms: C_9  and  C_10 
REMARK    3  A    between atoms: C_23  and  N_24 
ROOT
HETATM    1  C   UNL     1       4.692  28.438  55.611  1.00  0.00     0.066 A 
HETATM    2  N   UNL     1       3.645  29.013  56.229  1.00  0.00    -0.177 NA
HETATM    3  N   UNL     1       4.200  29.763  57.201  1.00  0.00    -0.256 N 
HETATM    4  H   UNL     1       3.596  30.308  57.805  1.00  0.00     0.191 HD
HETATM    5  C   UNL     1       5.555  29.683  57.216  1.00  0.00     0.175 A 
HETATM    6  C   UNL     1       5.917  28.829  56.207  1.00  0.00     0.035 A 
HETATM    7  C   UNL     1       7.361  28.557  55.946  1.00  0.00     0.106 A 
HETATM    8  C   UNL     1       8.240  29.365  56.906  1.00  0.00     0.081 A 
HETATM    9  C   UNL     1       9.649  29.272  56.714  1.00  0.00     0.100 C 
HETATM   10  N   UNL     1      10.798  29.203  56.564  1.00  0.00    -0.191 NA
HETATM   11  C   UNL     1       7.728  30.180  57.871  1.00  0.00     0.140 A 
HETATM   12  O   UNL     1       6.343  30.336  58.059  1.00  0.00    -0.279 OA
ENDROOT
BRANCH   7  13
HETATM   13  C   UNL     1       7.556  27.045  56.083  1.00  0.00    -0.033 A 
HETATM   14  C   UNL     1       7.666  26.186  54.941  1.00  0.00    -0.019 A 
HETATM   15  C   UNL     1       7.836  24.791  55.156  1.00  0.00    -0.025 A 
HETATM   16  C   UNL     1       7.624  26.621  53.593  1.00  0.00     0.013 A 
HETATM   17  C   UNL     1       7.935  23.909  54.067  1.00  0.00     0.012 A 
HETATM   18  C   UNL     1       7.910  24.278  56.457  1.00  0.00     0.012 A 
HETATM   19  C   UNL     1       7.882  24.374  52.756  1.00  0.00     0.001 A 
HETATM   20  C   UNL     1       7.730  25.731  52.519  1.00  0.00     0.001 A 
HETATM   21  C   UNL     1       7.832  25.116  57.561  1.00  0.00     0.001 A 
HETATM   22  C   UNL     1       7.664  26.482  57.377  1.00  0.00     0.009 A 
ENDBRANCH   7  13
BRANCH  11  23
HETATM   23  N   UNL     1       8.470  30.934  58.753  1.00  0.00    -0.282 NA
HETATM   24  H   UNL     1       9.460  30.708  58.801  1.00  0.00     0.126 HD
HETATM   25  H   UNL     1       8.030  30.997  59.668  1.00  0.00     0.126 HD
ENDBRANCH  11  23
BRANCH   1  26
HETATM   26  C   UNL     1       4.461  27.522  54.455  1.00  0.00     0.057 C 
HETATM   27  C   UNL     1       3.795  28.225  53.282  1.00  0.00     0.011 C 
ENDBRANCH   1  26
TORSDOF 3
ENDMDL
MODEL 2
REMARK VINA RESULT:      -8.0      8.899     11.938
REMARK  3 active torsions:
REMARK  status: ('A' for Active; 'I' for Inactive)
REMARK    1  A    between atoms: C_2  and  C_3 
REMARK    2  A    between atoms: C_9  and  C_10 
REMARK    3  A    between atoms: C_23  and  N_24 
ROOT
HETATM    1  C   UNL     1       6.086  32.777  62.972  1.00  0.00     0.066 A 
HETATM    2  N   UNL     1       5.832  31.463  63.102  1.00  0.00    -0.177 NA
HETATM    3  N   UNL     1       4.611  31.300  62.555  1.00  0.00    -0.256 N 
HETATM    4  H   UNL     1       4.206  30.372  62.529  1.00  0.00     0.191 HD
HETATM    5  C   UNL     1       4.089  32.461  62.085  1.00  0.00     0.175 A 
HETATM    6  C   UNL     1       5.008  33.446  62.341  1.00  0.00     0.035 A 
HETATM    7  C   UNL     1       4.733  34.849  61.909  1.00  0.00     0.106 A 
HETATM    8  C   UNL     1       3.389  34.930  61.178  1.00  0.00     0.081 A 
HETATM    9  C   UNL     1       3.036  36.197  60.630  1.00  0.00     0.100 C 
HETATM   10  N   UNL     1       2.741  37.225  60.179  1.00  0.00    -0.191 NA
HETATM   11  C   UNL     1       2.575  33.852  61.002  1.00  0.00     0.140 A 
HETATM   12  O   UNL     1       2.911  32.574  61.485  1.00  0.00    -0.279 OA
ENDROOT
BRANCH   7  13
HETATM   13  C   UNL     1       4.785  35.716  63.169  1.00  0.00    -0.033 A 
HETATM   14  C   UNL     1       5.439  36.990  63.188  1.00  0.00    -0.019 A 
HETATM   15  C   UNL     1       5.450  37.729  64.403  1.00  0.00    -0.025 A 
HETATM   16  C   UNL     1       6.083  37.588  62.076  1.00  0.00     0.013 A 
HETATM   17  C   UNL     1       6.091  38.977  64.473  1.00  0.00     0.012 A 
HETATM   18  C   UNL     1       4.818  37.222  65.546  1.00  0.00     0.012 A 
HETATM   19  C   UNL     1       6.719  39.527  63.360  1.00  0.00     0.001 A 
HETATM   20  C   UNL     1       6.712  38.834  62.160  1.00  0.00     0.001 A 
HETATM   21  C   UNL     1       4.161  36.000  65.516  1.00  0.00     0.001 A 
HETATM   22  C   UNL     1       4.137  35.259  64.342  1.00  0.00     0.009 A 
ENDBRANCH   7  13
BRANCH  11  23
HETATM   23  N   UNL     1       1.363  33.866  60.347  1.00  0.00    -0.282 NA
HETATM   24  H   UNL     1       0.604  33.380  60.818  1.00  0.00     0.126 HD
HETATM   25  H   UNL     1       1.454  33.610  59.367  1.00  0.00     0.126 HD
ENDBRANCH  11  23
BRANCH   1  26
HETATM   26  C   UNL     1       7.376  33.338  63.471  1.00  0.00     0.057 C 
HETATM   27  C   UNL     1       7.334  33.660  64.956  1.00  0.00     0.011 C 
ENDBRANCH   1  26
TORSDOF 3
ENDMDL
MODEL 3
REMARK VINA RESULT:      -7.9      7.624     10.602
REMARK  3 active torsions:
REMARK  status: ('A' for Active; 'I' for Inactive)
REMARK    1  A    between atoms: C_2  and  C_3 
REMARK    2  A    between atoms: C_9  and  C_10 
REMARK    3  A    between atoms: C_23  and  N_24 
ROOT
HETATM    1  C   UNL     1       4.103  35.805  61.439  1.00  0.00     0.066 A 
HETATM    2  N   UNL     1       4.021  36.434  60.253  1.00  0.00    -0.177 NA
HETATM    3  N   UNL     1       3.802  35.446  59.363  1.00  0.00    -0.256 N 
HETATM    4  H   UNL     1       3.694  35.685  58.384  1.00  0.00     0.191 HD
HETATM    5  C   UNL     1       3.740  34.222  59.944  1.00  0.00     0.175 A 
HETATM    6  C   UNL     1       3.938  34.406  61.288  1.00  0.00     0.035 A 
HETATM    7  C   UNL     1       3.895  33.234  62.212  1.00  0.00     0.106 A 
HETATM    8  C   UNL     1       3.586  31.950  61.435  1.00  0.00     0.081 A 
HETATM    9  C   UNL     1       3.427  30.761  62.204  1.00  0.00     0.100 C 
HETATM   10  N   UNL     1       3.295  29.787  62.822  1.00  0.00    -0.191 NA
HETATM   11  C   UNL     1       3.415  31.925  60.083  1.00  0.00     0.140 A 
HETATM   12  O   UNL     1       3.516  33.086  59.296  1.00  0.00    -0.279 OA
ENDROOT
BRANCH   7  13
HETATM   13  C   UNL     1       5.246  33.190  62.930  1.00  0.00    -0.033 A 
HETATM   14  C   UNL     1       5.383  33.538  64.313  1.00  0.00    -0.019 A 
HETATM   15  C   UNL     1       6.676  33.480  64.902  1.00  0.00    -0.025 A 
HETATM   16  C   UNL     1       4.317  33.937  65.158  1.00  0.00     0.013 A 
HETATM   17  C   UNL     1       6.861  33.825  66.251  1.00  0.00     0.012 A 
HETATM   18  C   UNL     1       7.783  33.075  64.145  1.00  0.00     0.012 A 
HETATM   19  C   UNL     1       5.790  34.219  67.047  1.00  0.00     0.001 A 
HETATM   20  C   UNL     1       4.517  34.272  66.501  1.00  0.00     0.001 A 
HETATM   21  C   UNL     1       7.641  32.711  62.812  1.00  0.00     0.001 A 
HETATM   22  C   UNL     1       6.389  32.761  62.214  1.00  0.00     0.009 A 
ENDBRANCH   7  13
BRANCH  11  23
HETATM   23  N   UNL     1       3.128  30.804  59.336  1.00  0.00    -0.282 NA
HETATM   24  H   UNL     1       2.196  30.418  59.464  1.00  0.00     0.126 HD
HETATM   25  H   UNL     1       3.863  30.104  59.398  1.00  0.00     0.126 HD
ENDBRANCH  11  23
BRANCH   1  26
HETATM   26  C   UNL     1       4.341  36.593  62.684  1.00  0.00     0.057 C 
HETATM   27  C   UNL     1       5.819  36.845  62.938  1.00  0.00     0.011 C 
ENDBRANCH   1  26
TORSDOF 3
ENDMDL
MODEL 4
REMARK VINA RESULT:      -7.9      2.635      5.602
REMARK  3 active torsions:
REMARK  status: ('A' for Active; 'I' for Inactive)
REMARK    1  A    between atoms: C_2  and  C_3 
REMARK    2  A    between atoms: C_9  and  C_10 
REMARK    3  A    between atoms: C_23  and  N_24 
ROOT
HETATM    1  C   UNL     1       5.360  30.833  56.181  1.00  0.00     0.066 A 
HETATM    2  N   UNL     1       4.555  31.004  55.118  1.00  0.00    -0.177 NA
HETATM    3  N   UNL     1       4.512  29.791  54.532  1.00  0.00    -0.256 N 
HETATM    4  H   UNL     1       3.947  29.670  53.699  1.00  0.00     0.191 HD
HETATM    5  C   UNL     1       5.256  28.865  55.188  1.00  0.00     0.175 A 
HETATM    6  C   UNL     1       5.830  29.499  56.259  1.00  0.00     0.035 A 
HETATM    7  C   UNL     1       6.693  28.728  57.202  1.00  0.00     0.106 A 
HETATM    8  C   UNL     1       6.759  27.255  56.786  1.00  0.00     0.081 A 
HETATM    9  C   UNL     1       7.480  26.379  57.648  1.00  0.00     0.100 C 
HETATM   10  N   UNL     1       8.063  25.658  58.346  1.00  0.00    -0.191 NA
HETATM   11  C   UNL     1       6.129  26.769  55.680  1.00  0.00     0.140 A 
HETATM   12  O   UNL     1       5.368  27.593  54.830  1.00  0.00    -0.279 OA
ENDROOT
BRANCH   7  13
HETATM   13  C   UNL     1       8.062  29.412  57.206  1.00  0.00    -0.033 A 
HETATM   14  C   UNL     1       8.490  30.248  58.289  1.00  0.00    -0.019 A 
HETATM   15  C   UNL     1       9.773  30.855  58.209  1.00  0.00    -0.025 A 
HETATM   16  C   UNL     1       7.729  30.521  59.453  1.00  0.00     0.013 A 
HETATM   17  C   UNL     1      10.231  31.693  59.240  1.00  0.00     0.012 A 
HETATM   18  C   UNL     1      10.601  30.622  57.103  1.00  0.00     0.012 A 
HETATM   19  C   UNL     1       9.450  31.942  60.365  1.00  0.00     0.001 A 
HETATM   20  C   UNL     1       8.201  31.353  60.473  1.00  0.00     0.001 A 
HETATM   21  C   UNL     1      10.194  29.789  56.070  1.00  0.00     0.001 A 
HETATM   22  C   UNL     1       8.945  29.186  56.123  1.00  0.00     0.009 A 
ENDBRANCH   7  13
BRANCH  11  23
HETATM   23  N   UNL     1       6.148  25.456  55.263  1.00  0.00    -0.282 NA
HETATM   24  H   UNL     1       5.416  24.863  55.647  1.00  0.00     0.126 HD
HETATM   25  H   UNL     1       7.075  25.044  55.335  1.00  0.00     0.126 HD
ENDBRANCH  11  23
BRANCH   1  26
HETATM   26  C   UNL     1       5.645  31.983  57.090  1.00  0.00     0.057 C 
HETATM   27  C   UNL     1       4.677  32.052  58.260  1.00  0.00     0.011 C 
ENDBRANCH   1  26
TORSDOF 3
ENDMDL
MODEL 5
REMARK VINA RESULT:      -7.6      7.361     10.962
REMARK  3 active torsions:
REMARK  status: ('A' for Active; 'I' for Inactive)
REMARK    1  A    between atoms: C_2  and  C_3 
REMARK    2  A    between atoms: C_9  and  C_10 
REMARK    3  A    between atoms: C_23  and  N_24 
ROOT
HETATM    1  C   UNL     1       6.709  32.666  61.669  1.00  0.00     0.066 A 
HETATM    2  N   UNL     1       7.949  32.148  61.718  1.00  0.00    -0.177 NA
HETATM    3  N   UNL     1       8.350  32.355  62.987  1.00  0.00    -0.256 N 
HETATM    4  H   UNL     1       9.268  32.033  63.269  1.00  0.00     0.191 HD
HETATM    5  C   UNL     1       7.409  32.981  63.739  1.00  0.00     0.175 A 
HETATM    6  C   UNL     1       6.331  33.209  62.922  1.00  0.00     0.035 A 
HETATM    7  C   UNL     1       5.108  33.863  63.474  1.00  0.00     0.106 A 
HETATM    8  C   UNL     1       5.283  34.154  64.967  1.00  0.00     0.081 A 
HETATM    9  C   UNL     1       4.156  34.701  65.648  1.00  0.00     0.100 C 
HETATM   10  N   UNL     1       3.243  35.145  66.210  1.00  0.00    -0.191 NA
HETATM   11  C   UNL     1       6.428  33.869  65.649  1.00  0.00     0.140 A 
HETATM   12  O   UNL     1       7.544  33.285  65.023  1.00  0.00    -0.279 OA
ENDROOT
BRANCH   7  13
HETATM   13  C   UNL     1       4.870  35.125  62.640  1.00  0.00    -0.033 A 
HETATM   14  C   UNL     1       3.726  35.269  61.789  1.00  0.00    -0.019 A 
HETATM   15  C   UNL     1       3.585  36.469  61.040  1.00  0.00    -0.025 A 
HETATM   16  C   UNL     1       2.704  34.299  61.633  1.00  0.00     0.013 A 
HETATM   17  C   UNL     1       2.488  36.650  60.182  1.00  0.00     0.012 A 
HETATM   18  C   UNL     1       4.538  37.490  61.151  1.00  0.00     0.012 A 
HETATM   19  C   UNL     1       1.508  35.670  60.050  1.00  0.00     0.001 A 
HETATM   20  C   UNL     1       1.615  34.496  60.779  1.00  0.00     0.001 A 
HETATM   21  C   UNL     1       5.630  37.358  61.998  1.00  0.00     0.001 A 
HETATM   22  C   UNL     1       5.791  36.195  62.739  1.00  0.00     0.009 A 
ENDBRANCH   7  13
BRANCH  11  23
HETATM   23  N   UNL     1       6.637  34.102  66.990  1.00  0.00    -0.282 NA
HETATM   24  H   UNL     1       7.067  34.994  67.220  1.00  0.00     0.126 HD
HETATM   25  H   UNL     1       7.083  33.313  67.451  1.00  0.00     0.126 HD
ENDBRANCH  11  23
BRANCH   1  26
HETATM   26  C   UNL     1       5.931  32.614  60.396  1.00  0.00     0.057 C 
HETATM   27  C   UNL     1       6.701  31.939  59.272  1.00  0.00     0.011 C 
ENDBRANCH   1  26
TORSDOF 3
ENDMDL
MODEL 6
REMARK VINA RESULT:      -7.6      9.745     12.132
REMARK  3 active torsions:
REMARK  status: ('A' for Active; 'I' for Inactive)
REMARK    1  A    between atoms: C_2  and  C_3 
REMARK    2  A    between atoms: C_9  and  C_10 
REMARK    3  A    between atoms: C_23  and  N_24 
ROOT
HETATM    1  C   UNL     1       5.644  37.900  61.897  1.00  0.00     0.066 A 
HETATM    2  N   UNL     1       5.776  38.488  60.695  1.00  0.00    -0.177 NA
HETATM    3  N   UNL     1       4.861  37.874  59.919  1.00  0.00    -0.256 N 
HETATM    4  H   UNL     1       4.767  38.162  58.952  1.00  0.00     0.191 HD
HETATM    5  C   UNL     1       4.159  36.925  60.587  1.00  0.00     0.175 A 
HETATM    6  C   UNL     1       4.639  36.902  61.871  1.00  0.00     0.035 A 
HETATM    7  C   UNL     1       4.038  35.970  62.872  1.00  0.00     0.106 A 
HETATM    8  C   UNL     1       2.891  35.173  62.241  1.00  0.00     0.081 A 
HETATM    9  C   UNL     1       2.166  34.305  63.106  1.00  0.00     0.100 C 
HETATM   10  N   UNL     1       1.568  33.596  63.804  1.00  0.00    -0.191 NA
HETATM   11  C   UNL     1       2.529  35.305  60.934  1.00  0.00     0.140 A 
HETATM   12  O   UNL     1       3.190  36.188  60.060  1.00  0.00    -0.279 OA
ENDROOT
BRANCH   7  13
HETATM   13  C   UNL     1       5.174  35.083  63.385  1.00  0.00    -0.033 A 
HETATM   14  C   UNL     1       5.445  34.928  64.783  1.00  0.00    -0.019 A 
HETATM   15  C   UNL     1       6.527  34.093  65.176  1.00  0.00    -0.025 A 
HETATM   16  C   UNL     1       4.709  35.547  65.825  1.00  0.00     0.013 A 
HETATM   17  C   UNL     1       6.839  33.922  66.535  1.00  0.00     0.012 A 
HETATM   18  C   UNL     1       7.294  33.426  64.212  1.00  0.00     0.012 A 
HETATM   19  C   UNL     1       6.096  34.552  67.529  1.00  0.00     0.001 A 
HETATM   20  C   UNL     1       5.029  35.362  67.174  1.00  0.00     0.001 A 
HETATM   21  C   UNL     1       7.010  33.556  62.859  1.00  0.00     0.001 A 
HETATM   22  C   UNL     1       5.960  34.367  62.451  1.00  0.00     0.009 A 
ENDBRANCH   7  13
BRANCH  11  23
HETATM   23  N   UNL     1       1.504  34.622  60.318  1.00  0.00    -0.282 NA
HETATM   24  H   UNL     1       1.410  33.643  60.577  1.00  0.00     0.126 HD
HETATM   25  H   UNL     1       1.493  34.772  59.312  1.00  0.00     0.126 HD
ENDBRANCH  11  23
BRANCH   1  26
HETATM   26  C   UNL     1       6.507  38.333  63.036  1.00  0.00     0.057 C 
HETATM   27  C   UNL     1       5.697  38.839  64.219  1.00  0.00     0.011 C 
ENDBRANCH   1  26
TORSDOF 3
ENDMDL
MODEL 7
REMARK VINA RESULT:      -7.5      7.202     10.712
REMARK  3 active torsions:
REMARK  status: ('A' for Active; 'I' for Inactive)
REMARK    1  A    between atoms: C_2  and  C_3 
REMARK    2  A    between atoms: C_9  and  C_10 
REMARK    3  A    between atoms: C_23  and  N_24 
ROOT
HETATM    1  C   UNL     1       2.900  34.050  60.507  1.00  0.00     0.066 A 
HETATM    2  N   UNL     1       2.572  34.027  59.202  1.00  0.00    -0.177 NA
HETATM    3  N   UNL     1       3.703  33.641  58.579  1.00  0.00    -0.256 N 
HETATM    4  H   UNL     1       3.696  33.541  57.571  1.00  0.00     0.191 HD
HETATM    5  C   UNL     1       4.727  33.418  59.441  1.00  0.00     0.175 A 
HETATM    6  C   UNL     1       4.253  33.678  60.701  1.00  0.00     0.035 A 
HETATM    7  C   UNL     1       5.146  33.491  61.883  1.00  0.00     0.106 A 
HETATM    8  C   UNL     1       6.520  32.977  61.440  1.00  0.00     0.081 A 
HETATM    9  C   UNL     1       7.450  32.668  62.475  1.00  0.00     0.100 C 
HETATM   10  N   UNL     1       8.213  32.413  63.312  1.00  0.00    -0.191 NA
HETATM   11  C   UNL     1       6.847  32.767  60.134  1.00  0.00     0.140 A 
HETATM   12  O   UNL     1       5.939  33.013  59.088  1.00  0.00    -0.279 OA
ENDROOT
BRANCH   7  13
HETATM   13  C   UNL     1       5.214  34.841  62.601  1.00  0.00    -0.033 A 
HETATM   14  C   UNL     1       4.899  34.978  63.992  1.00  0.00    -0.019 A 
HETATM   15  C   UNL     1       4.977  36.270  64.581  1.00  0.00    -0.025 A 
HETATM   16  C   UNL     1       4.513  33.914  64.845  1.00  0.00     0.013 A 
HETATM   17  C   UNL     1       4.664  36.455  65.938  1.00  0.00     0.012 A 
HETATM   18  C   UNL     1       5.370  37.376  63.815  1.00  0.00     0.012 A 
HETATM   19  C   UNL     1       4.283  35.385  66.742  1.00  0.00     0.001 A 
HETATM   20  C   UNL     1       4.211  34.113  66.196  1.00  0.00     0.001 A 
HETATM   21  C   UNL     1       5.702  37.234  62.475  1.00  0.00     0.001 A 
HETATM   22  C   UNL     1       5.632  35.983  61.877  1.00  0.00     0.009 A 
ENDBRANCH   7  13
BRANCH  11  23
HETATM   23  N   UNL     1       8.060  32.298  59.682  1.00  0.00    -0.282 NA
HETATM   24  H   UNL     1       8.876  32.630  60.190  1.00  0.00     0.126 HD
HETATM   25  H   UNL     1       8.154  32.389  58.673  1.00  0.00     0.126 HD
ENDBRANCH  11  23
BRANCH   1  26
HETATM   26  C   UNL     1       1.877  34.435  61.523  1.00  0.00     0.057 C 
HETATM   27  C   UNL     1       0.510  34.686  60.905  1.00  0.00     0.011 C 
ENDBRANCH   1  26
TORSDOF 3
ENDMDL
MODEL 8
REMARK VINA RESULT:      -7.3      8.118     10.895
REMARK  3 active torsions:
REMARK  status: ('A' for Active; 'I' for Inactive)
REMARK    1  A    between atoms: C_2  and  C_3 
REMARK    2  A    between atoms: C_9  and  C_10 
REMARK    3  A    between atoms: C_23  and  N_24 
ROOT
HETATM    1  C   UNL     1       2.750  34.176  60.784  1.00  0.00     0.066 A 
HETATM    2  N   UNL     1       1.505  34.203  60.277  1.00  0.00    -0.177 NA
HETATM    3  N   UNL     1       1.276  35.505  60.014  1.00  0.00    -0.256 N 
HETATM    4  H   UNL     1       0.387  35.774  59.610  1.00  0.00     0.191 HD
HETATM    5  C   UNL     1       2.331  36.296  60.334  1.00  0.00     0.175 A 
HETATM    6  C   UNL     1       3.306  35.479  60.843  1.00  0.00     0.035 A 
HETATM    7  C   UNL     1       4.617  36.057  61.261  1.00  0.00     0.106 A 
HETATM    8  C   UNL     1       4.645  37.566  60.998  1.00  0.00     0.081 A 
HETATM    9  C   UNL     1       5.871  38.240  61.269  1.00  0.00     0.100 C 
HETATM   10  N   UNL     1       6.867  38.796  61.486  1.00  0.00    -0.191 NA
HETATM   11  C   UNL     1       3.583  38.248  60.484  1.00  0.00     0.140 A 
HETATM   12  O   UNL     1       2.372  37.611  60.158  1.00  0.00    -0.279 OA
ENDROOT
BRANCH   7  13
HETATM   13  C   UNL     1       4.804  35.703  62.739  1.00  0.00    -0.033 A 
HETATM   14  C   UNL     1       5.771  34.739  63.173  1.00  0.00    -0.019 A 
HETATM   15  C   UNL     1       5.873  34.459  64.563  1.00  0.00    -0.025 A 
HETATM   16  C   UNL     1       6.652  34.031  62.316  1.00  0.00     0.013 A 
HETATM   17  C   UNL     1       6.797  33.512  65.034  1.00  0.00     0.012 A 
HETATM   18  C   UNL     1       5.055  35.128  65.483  1.00  0.00     0.012 A 
HETATM   19  C   UNL     1       7.641  32.832  64.160  1.00  0.00     0.001 A 
HETATM   20  C   UNL     1       7.570  33.095  62.801  1.00  0.00     0.001 A 
HETATM   21  C   UNL     1       4.139  36.083  65.061  1.00  0.00     0.001 A 
HETATM   22  C   UNL     1       4.019  36.372  63.709  1.00  0.00     0.009 A 
ENDBRANCH   7  13
BRANCH  11  23
HETATM   23  N   UNL     1       3.556  39.600  60.219  1.00  0.00    -0.282 NA
HETATM   24  H   UNL     1       3.965  40.195  60.935  1.00  0.00     0.126 HD
HETATM   25  H   UNL     1       2.637  39.913  59.916  1.00  0.00     0.126 HD
ENDBRANCH  11  23
BRANCH   1  26
HETATM   26  C   UNL     1       3.358  32.876  61.194  1.00  0.00     0.057 C 
HETATM   27  C   UNL     1       4.278  32.303  60.128  1.00  0.00     0.011 C 
ENDBRANCH   1  26
TORSDOF 3
ENDMDL
MODEL 9
REMARK VINA RESULT:      -7.0      6.894      9.254
REMARK  3 active torsions:
REMARK  status: ('A' for Active; 'I' for Inactive)
REMARK    1  A    between atoms: C_2  and  C_3 
REMARK    2  A    between atoms: C_9  and  C_10 
REMARK    3  A    between atoms: C_23  and  N_24 
ROOT
HETATM    1  C   UNL     1       3.943  35.528  61.631  1.00  0.00     0.066 A 
HETATM    2  N   UNL     1       3.663  36.142  60.468  1.00  0.00    -0.177 NA
HETATM    3  N   UNL     1       3.325  35.142  59.632  1.00  0.00    -0.256 N 
HETATM    4  H   UNL     1       3.060  35.367  58.681  1.00  0.00     0.191 HD
HETATM    5  C   UNL     1       3.379  33.922  60.225  1.00  0.00     0.175 A 
HETATM    6  C   UNL     1       3.783  34.124  61.520  1.00  0.00     0.035 A 
HETATM    7  C   UNL     1       3.909  32.962  62.448  1.00  0.00     0.106 A 
HETATM    8  C   UNL     1       3.506  31.665  61.740  1.00  0.00     0.081 A 
HETATM    9  C   UNL     1       3.494  30.481  62.534  1.00  0.00     0.100 C 
HETATM   10  N   UNL     1       3.479  29.512  63.173  1.00  0.00    -0.191 NA
HETATM   11  C   UNL     1       3.125  31.622  60.433  1.00  0.00     0.140 A 
HETATM   12  O   UNL     1       3.078  32.776  59.630  1.00  0.00    -0.279 OA
ENDROOT
BRANCH   7  13
HETATM   13  C   UNL     1       5.357  32.950  62.944  1.00  0.00    -0.033 A 
HETATM   14  C   UNL     1       6.456  32.655  62.074  1.00  0.00    -0.019 A 
HETATM   15  C   UNL     1       7.770  32.654  62.616  1.00  0.00    -0.025 A 
HETATM   16  C   UNL     1       6.340  32.363  60.691  1.00  0.00     0.013 A 
HETATM   17  C   UNL     1       8.877  32.358  61.804  1.00  0.00     0.012 A 
HETATM   18  C   UNL     1       7.979  32.954  63.969  1.00  0.00     0.012 A 
HETATM   19  C   UNL     1       8.721  32.069  60.452  1.00  0.00     0.001 A 
HETATM   20  C   UNL     1       7.452  32.075  59.895  1.00  0.00     0.001 A 
HETATM   21  C   UNL     1       6.914  33.267  64.803  1.00  0.00     0.001 A 
HETATM   22  C   UNL     1       5.621  33.273  64.297  1.00  0.00     0.009 A 
ENDBRANCH   7  13
BRANCH  11  23
HETATM   23  N   UNL     1       2.745  30.488  59.749  1.00  0.00    -0.282 NA
HETATM   24  H   UNL     1       3.309  30.256  58.936  1.00  0.00     0.126 HD
HETATM   25  H   UNL     1       1.746  30.470  59.561  1.00  0.00     0.126 HD
ENDBRANCH  11  23
BRANCH   1  26
HETATM   26  C   UNL     1       4.360  36.334  62.817  1.00  0.00     0.057 C 
HETATM   27  C   UNL     1       5.824  36.740  62.758  1.00  0.00     0.011 C 
ENDBRANCH   1  26
TORSDOF 3
ENDMDL
MODEL 10
REMARK VINA RESULT:      -6.9     16.054     18.520
REMARK  3 active torsions:
REMARK  status: ('A' for Active; 'I' for Inactive)
REMARK    1  A    between atoms: C_2  and  C_3 
REMARK    2  A    between atoms: C_9  and  C_10 
REMARK    3  A    between atoms: C_23  and  N_24 
ROOT
HETATM    1  C   UNL     1      13.275  10.288  56.191  1.00  0.00     0.066 A 
HETATM    2  N   UNL     1      14.391   9.728  56.692  1.00  0.00    -0.177 NA
HETATM    3  N   UNL     1      15.257   9.724  55.660  1.00  0.00    -0.256 N 
HETATM    4  H   UNL     1      16.188   9.351  55.804  1.00  0.00     0.191 HD
HETATM    5  C   UNL     1      14.730  10.262  54.531  1.00  0.00     0.175 A 
HETATM    6  C   UNL     1      13.444  10.633  54.827  1.00  0.00     0.035 A 
HETATM    7  C   UNL     1      12.602  11.293  53.785  1.00  0.00     0.106 A 
HETATM    8  C   UNL     1      13.399  11.473  52.489  1.00  0.00     0.081 A 
HETATM    9  C   UNL     1      12.747  12.170  51.430  1.00  0.00     0.100 C 
HETATM   10  N   UNL     1      12.225  12.738  50.564  1.00  0.00    -0.191 NA
HETATM   11  C   UNL     1      14.684  11.043  52.343  1.00  0.00     0.140 A 
HETATM   12  O   UNL     1      15.377  10.394  53.381  1.00  0.00    -0.279 OA
ENDROOT
BRANCH   7  13
HETATM   13  C   UNL     1      11.357  10.420  53.608  1.00  0.00    -0.033 A 
HETATM   14  C   UNL     1      10.043  10.898  53.922  1.00  0.00    -0.019 A 
HETATM   15  C   UNL     1       8.941  10.020  53.739  1.00  0.00    -0.025 A 
HETATM   16  C   UNL     1       9.747  12.197  54.405  1.00  0.00     0.013 A 
HETATM   17  C   UNL     1       7.636  10.439  54.046  1.00  0.00     0.012 A 
HETATM   18  C   UNL     1       9.140   8.724  53.245  1.00  0.00     0.012 A 
HETATM   19  C   UNL     1       7.386  11.722  54.525  1.00  0.00     0.001 A 
HETATM   20  C   UNL     1       8.442  12.602  54.701  1.00  0.00     0.001 A 
HETATM   21  C   UNL     1      10.412   8.274  52.914  1.00  0.00     0.001 A 
HETATM   22  C   UNL     1      11.505   9.113  53.086  1.00  0.00     0.009 A 
ENDBRANCH   7  13
BRANCH  11  23
HETATM   23  N   UNL     1      15.448  11.186  51.206  1.00  0.00    -0.282 NA
HETATM   24  H   UNL     1      16.076  10.413  51.000  1.00  0.00     0.126 HD
HETATM   25  H   UNL     1      15.904  12.094  51.162  1.00  0.00     0.126 HD
ENDBRANCH  11  23
BRANCH   1  26
HETATM   26  C   UNL     1      12.077  10.467  57.064  1.00  0.00     0.057 C 
HETATM   27  C   UNL     1      11.155   9.258  57.039  1.00  0.00     0.011 C 
ENDBRANCH   1  26
TORSDOF 3
ENDMDL
