MODEL 1
REMARK VINA RESULT:      -9.6      0.000      0.000
REMARK  5 active torsions:
REMARK  status: ('A' for Active; 'I' for Inactive)
REMARK    1  A    between atoms: C_7  and  C_8 
REMARK    2  A    between atoms: N_9  and  N_10 
REMARK       I    between atoms: N_10  and  C_11 
REMARK    3  A    between atoms: C_11  and  C_12 
REMARK    4  A    between atoms: C_12  and  N_13 
REMARK       I    between atoms: N_13  and  C_14 
REMARK    5  A    between atoms: C_14  and  C_15 
ROOT
HETATM    1  N   UNL     1       8.054  28.861  58.000  1.00  0.00    -0.246 N 
HETATM    2  C   UNL     1       7.702  30.074  58.575  1.00  0.00     0.255 C 
HETATM    3  O   UNL     1       6.845  30.850  58.157  1.00  0.00    -0.270 OA
HETATM    4  H   UNL     1       8.722  28.255  58.487  1.00  0.00     0.192 HD
ENDROOT
BRANCH   1   5
HETATM    5  N   UNL     1       7.486  28.462  56.828  1.00  0.00    -0.184 NA
HETATM    6  C   UNL     1       6.838  27.344  56.876  1.00  0.00     0.153 C 
BRANCH   6   7
HETATM    7  C   UNL     1       6.216  26.804  55.679  1.00  0.00     0.018 A 
HETATM    8  C   UNL     1       5.080  27.283  55.037  1.00  0.00     0.018 A 
HETATM    9  C   UNL     1       4.188  28.432  55.353  1.00  0.00     0.069 C 
HETATM   10  N   UNL     1       4.850  26.487  53.945  1.00  0.00    -0.358 N 
HETATM   11  H   UNL     1       4.088  26.606  53.292  1.00  0.00     0.166 HD
HETATM   12  C   UNL     1       5.803  25.502  53.850  1.00  0.00     0.043 A 
HETATM   13  C   UNL     1       6.675  25.672  54.925  1.00  0.00     0.004 A 
HETATM   14  C   UNL     1       5.954  24.486  52.898  1.00  0.00     0.030 A 
HETATM   15  C   UNL     1       7.758  24.774  55.052  1.00  0.00     0.014 A 
HETATM   16  C   UNL     1       7.925  23.752  54.109  1.00  0.00     0.001 A 
HETATM   17  C   UNL     1       7.034  23.613  53.049  1.00  0.00     0.002 A 
ENDBRANCH   6   7
ENDBRANCH   1   5
BRANCH   2  18
HETATM   18  C   UNL     1       8.547  30.404  59.805  1.00  0.00     0.227 C 
BRANCH  18  19
HETATM   19  N   UNL     1       7.770  30.932  60.916  1.00  0.00    -0.348 N 
HETATM   20  C   UNL     1       8.341  31.731  61.880  1.00  0.00     0.252 C 
HETATM   21  O   UNL     1       9.546  31.954  61.925  1.00  0.00    -0.268 OA
HETATM   22  H   UNL     1       6.841  30.556  61.057  1.00  0.00     0.163 HD
BRANCH  20  23
HETATM   23  C   UNL     1       7.421  32.272  62.915  1.00  0.00     0.032 A 
HETATM   24  C   UNL     1       7.963  32.993  63.986  1.00  0.00     0.018 A 
HETATM   25  C   UNL     1       7.121  33.530  64.965  1.00  0.00     0.025 A 
HETATM   26  C   UNL     1       5.741  33.358  64.862  1.00  0.00     0.034 A 
HETATM   27 CL   UNL     1       4.704  34.027  66.061  1.00  0.00    -0.084 Cl
HETATM   28  C   UNL     1       5.193  32.654  63.790  1.00  0.00     0.025 A 
HETATM   29  C   UNL     1       6.032  32.110  62.812  1.00  0.00     0.018 A 
ENDBRANCH  20  23
ENDBRANCH  18  19
ENDBRANCH   2  18
TORSDOF 5
ENDMDL
MODEL 2
REMARK VINA RESULT:      -9.6      2.253      3.666
REMARK  5 active torsions:
REMARK  status: ('A' for Active; 'I' for Inactive)
REMARK    1  A    between atoms: C_7  and  C_8 
REMARK    2  A    between atoms: N_9  and  N_10 
REMARK       I    between atoms: N_10  and  C_11 
REMARK    3  A    between atoms: C_11  and  C_12 
REMARK    4  A    between atoms: C_12  and  N_13 
REMARK       I    between atoms: N_13  and  C_14 
REMARK    5  A    between atoms: C_14  and  C_15 
ROOT
HETATM    1  N   UNL     1       6.666  27.532  55.859  1.00  0.00    -0.246 N 
HETATM    2  C   UNL     1       7.091  28.092  57.055  1.00  0.00     0.255 C 
HETATM    3  O   UNL     1       7.630  27.491  57.983  1.00  0.00    -0.270 OA
HETATM    4  H   UNL     1       6.310  28.147  55.121  1.00  0.00     0.192 HD
ENDROOT
BRANCH   1   5
HETATM    5  N   UNL     1       6.762  26.188  55.653  1.00  0.00    -0.184 NA
HETATM    6  C   UNL     1       7.588  25.826  54.725  1.00  0.00     0.153 C 
BRANCH   6   7
HETATM    7  C   UNL     1       7.750  24.420  54.396  1.00  0.00     0.018 A 
HETATM    8  C   UNL     1       7.733  23.850  53.129  1.00  0.00     0.018 A 
HETATM    9  C   UNL     1       7.551  24.459  51.783  1.00  0.00     0.069 C 
HETATM   10  N   UNL     1       7.933  22.501  53.275  1.00  0.00    -0.358 N 
HETATM   11  H   UNL     1       7.971  21.836  52.515  1.00  0.00     0.166 HD
HETATM   12  C   UNL     1       8.084  22.171  54.599  1.00  0.00     0.043 A 
HETATM   13  C   UNL     1       7.972  23.353  55.331  1.00  0.00     0.004 A 
HETATM   14  C   UNL     1       8.311  20.924  55.195  1.00  0.00     0.030 A 
HETATM   15  C   UNL     1       8.095  23.281  56.736  1.00  0.00     0.014 A 
HETATM   16  C   UNL     1       8.323  22.043  57.349  1.00  0.00     0.001 A 
HETATM   17  C   UNL     1       8.428  20.882  56.586  1.00  0.00     0.002 A 
ENDBRANCH   6   7
ENDBRANCH   1   5
BRANCH   2  18
HETATM   18  C   UNL     1       6.771  29.584  57.148  1.00  0.00     0.227 C 
BRANCH  18  19
HETATM   19  N   UNL     1       6.878  30.115  58.498  1.00  0.00    -0.348 N 
HETATM   20  C   UNL     1       8.003  30.786  58.921  1.00  0.00     0.252 C 
HETATM   21  O   UNL     1       9.014  30.880  58.234  1.00  0.00    -0.268 OA
HETATM   22  H   UNL     1       6.179  29.828  59.171  1.00  0.00     0.163 HD
BRANCH  20  23
HETATM   23  C   UNL     1       7.953  31.350  60.296  1.00  0.00     0.032 A 
HETATM   24  C   UNL     1       7.019  32.353  60.579  1.00  0.00     0.018 A 
HETATM   25  C   UNL     1       6.936  32.890  61.867  1.00  0.00     0.025 A 
HETATM   26  C   UNL     1       7.778  32.412  62.872  1.00  0.00     0.034 A 
HETATM   27 CL   UNL     1       7.670  33.064  64.460  1.00  0.00    -0.084 Cl
HETATM   28  C   UNL     1       8.701  31.402  62.601  1.00  0.00     0.025 A 
HETATM   29  C   UNL     1       8.790  30.868  61.312  1.00  0.00     0.018 A 
ENDBRANCH  20  23
ENDBRANCH  18  19
ENDBRANCH   2  18
TORSDOF 5
ENDMDL
MODEL 3
REMARK VINA RESULT:      -9.5      1.955      2.932
REMARK  5 active torsions:
REMARK  status: ('A' for Active; 'I' for Inactive)
REMARK    1  A    between atoms: C_7  and  C_8 
REMARK    2  A    between atoms: N_9  and  N_10 
REMARK       I    between atoms: N_10  and  C_11 
REMARK    3  A    between atoms: C_11  and  C_12 
REMARK    4  A    between atoms: C_12  and  N_13 
REMARK       I    between atoms: N_13  and  C_14 
REMARK    5  A    between atoms: C_14  and  C_15 
ROOT
HETATM    1  N   UNL     1       6.775  28.213  57.428  1.00  0.00    -0.246 N 
HETATM    2  C   UNL     1       7.641  29.190  57.897  1.00  0.00     0.255 C 
HETATM    3  O   UNL     1       8.812  29.018  58.228  1.00  0.00    -0.270 OA
HETATM    4  H   UNL     1       5.845  28.489  57.098  1.00  0.00     0.192 HD
ENDROOT
BRANCH   1   5
HETATM    5  N   UNL     1       7.171  26.910  57.367  1.00  0.00    -0.184 NA
HETATM    6  C   UNL     1       7.560  26.502  56.203  1.00  0.00     0.153 C 
BRANCH   6   7
HETATM    7  C   UNL     1       7.976  25.122  56.011  1.00  0.00     0.018 A 
HETATM    8  C   UNL     1       8.548  24.283  56.958  1.00  0.00     0.018 A 
HETATM    9  C   UNL     1       8.901  24.512  58.387  1.00  0.00     0.069 C 
HETATM   10  N   UNL     1       8.774  23.069  56.360  1.00  0.00    -0.358 N 
HETATM   11  H   UNL     1       9.181  22.265  56.816  1.00  0.00     0.166 HD
HETATM   12  C   UNL     1       8.363  23.089  55.049  1.00  0.00     0.043 A 
HETATM   13  C   UNL     1       7.859  24.364  54.798  1.00  0.00     0.004 A 
HETATM   14  C   UNL     1       8.400  22.078  54.080  1.00  0.00     0.030 A 
HETATM   15  C   UNL     1       7.364  24.642  53.504  1.00  0.00     0.014 A 
HETATM   16  C   UNL     1       7.393  23.643  52.523  1.00  0.00     0.001 A 
HETATM   17  C   UNL     1       7.904  22.381  52.810  1.00  0.00     0.002 A 
ENDBRANCH   6   7
ENDBRANCH   1   5
BRANCH   2  18
HETATM   18  C   UNL     1       6.967  30.557  58.021  1.00  0.00     0.227 C 
BRANCH  18  19
HETATM   19  N   UNL     1       6.888  31.040  59.390  1.00  0.00    -0.348 N 
HETATM   20  C   UNL     1       7.739  32.014  59.861  1.00  0.00     0.252 C 
HETATM   21  O   UNL     1       8.676  32.450  59.199  1.00  0.00    -0.268 OA
HETATM   22  H   UNL     1       6.309  30.521  60.038  1.00  0.00     0.163 HD
BRANCH  20  23
HETATM   23  C   UNL     1       7.502  32.479  61.253  1.00  0.00     0.032 A 
HETATM   24  C   UNL     1       6.354  33.233  61.524  1.00  0.00     0.018 A 
HETATM   25  C   UNL     1       6.094  33.668  62.828  1.00  0.00     0.025 A 
HETATM   26  C   UNL     1       6.974  33.336  63.857  1.00  0.00     0.034 A 
HETATM   27 CL   UNL     1       6.650  33.861  65.462  1.00  0.00    -0.084 Cl
HETATM   28  C   UNL     1       8.112  32.572  63.597  1.00  0.00     0.025 A 
HETATM   29  C   UNL     1       8.378  32.140  62.294  1.00  0.00     0.018 A 
ENDBRANCH  20  23
ENDBRANCH  18  19
ENDBRANCH   2  18
TORSDOF 5
ENDMDL
MODEL 4
REMARK VINA RESULT:      -9.4      3.143      4.919
REMARK  5 active torsions:
REMARK  status: ('A' for Active; 'I' for Inactive)
REMARK    1  A    between atoms: C_7  and  C_8 
REMARK    2  A    between atoms: N_9  and  N_10 
REMARK       I    between atoms: N_10  and  C_11 
REMARK    3  A    between atoms: C_11  and  C_12 
REMARK    4  A    between atoms: C_12  and  N_13 
REMARK       I    between atoms: N_13  and  C_14 
REMARK    5  A    between atoms: C_14  and  C_15 
ROOT
HETATM    1  N   UNL     1       4.917  26.326  55.531  1.00  0.00    -0.246 N 
HETATM    2  C   UNL     1       5.161  27.680  55.350  1.00  0.00     0.255 C 
HETATM    3  O   UNL     1       5.814  28.180  54.436  1.00  0.00    -0.270 OA
HETATM    4  H   UNL     1       4.283  26.031  56.280  1.00  0.00     0.192 HD
ENDROOT
BRANCH   1   5
HETATM    5  N   UNL     1       5.479  25.406  54.698  1.00  0.00    -0.184 NA
HETATM    6  C   UNL     1       6.540  24.820  55.150  1.00  0.00     0.153 C 
BRANCH   6   7
HETATM    7  C   UNL     1       7.241  23.842  54.336  1.00  0.00     0.018 A 
HETATM    8  C   UNL     1       7.666  23.998  53.022  1.00  0.00     0.018 A 
HETATM    9  C   UNL     1       7.545  25.147  52.083  1.00  0.00     0.069 C 
HETATM   10  N   UNL     1       8.292  22.838  52.644  1.00  0.00    -0.358 N 
HETATM   11  H   UNL     1       8.703  22.671  51.737  1.00  0.00     0.166 HD
HETATM   12  C   UNL     1       8.292  21.927  53.673  1.00  0.00     0.043 A 
HETATM   13  C   UNL     1       7.638  22.526  54.749  1.00  0.00     0.004 A 
HETATM   14  C   UNL     1       8.820  20.631  53.726  1.00  0.00     0.030 A 
HETATM   15  C   UNL     1       7.507  21.785  55.945  1.00  0.00     0.014 A 
HETATM   16  C   UNL     1       8.029  20.488  56.016  1.00  0.00     0.001 A 
HETATM   17  C   UNL     1       8.676  19.922  54.921  1.00  0.00     0.002 A 
ENDBRANCH   6   7
ENDBRANCH   1   5
BRANCH   2  18
HETATM   18  C   UNL     1       4.559  28.536  56.464  1.00  0.00     0.227 C 
BRANCH  18  19
HETATM   19  N   UNL     1       5.550  29.046  57.399  1.00  0.00    -0.348 N 
HETATM   20  C   UNL     1       5.970  30.356  57.360  1.00  0.00     0.252 C 
HETATM   21  O   UNL     1       5.625  31.135  56.478  1.00  0.00    -0.268 OA
HETATM   22  H   UNL     1       6.049  28.373  57.966  1.00  0.00     0.163 HD
BRANCH  20  23
HETATM   23  C   UNL     1       6.924  30.772  58.422  1.00  0.00     0.032 A 
HETATM   24  C   UNL     1       8.134  30.079  58.550  1.00  0.00     0.018 A 
HETATM   25  C   UNL     1       9.059  30.459  59.527  1.00  0.00     0.025 A 
HETATM   26  C   UNL     1       8.779  31.540  60.362  1.00  0.00     0.034 A 
HETATM   27 CL   UNL     1       9.921  32.015  61.558  1.00  0.00    -0.084 Cl
HETATM   28  C   UNL     1       7.583  32.245  60.231  1.00  0.00     0.025 A 
HETATM   29  C   UNL     1       6.653  31.864  59.259  1.00  0.00     0.018 A 
ENDBRANCH  20  23
ENDBRANCH  18  19
ENDBRANCH   2  18
TORSDOF 5
ENDMDL
MODEL 5
REMARK VINA RESULT:      -9.4      8.074     12.060
REMARK  5 active torsions:
REMARK  status: ('A' for Active; 'I' for Inactive)
REMARK    1  A    between atoms: C_7  and  C_8 
REMARK    2  A    between atoms: N_9  and  N_10 
REMARK       I    between atoms: N_10  and  C_11 
REMARK    3  A    between atoms: C_11  and  C_12 
REMARK    4  A    between atoms: C_12  and  N_13 
REMARK       I    between atoms: N_13  and  C_14 
REMARK    5  A    between atoms: C_14  and  C_15 
ROOT
HETATM    1  N   UNL     1       6.096  26.127  50.865  1.00  0.00    -0.246 N 
HETATM    2  C   UNL     1       5.242  27.200  50.658  1.00  0.00     0.255 C 
HETATM    3  O   UNL     1       4.427  27.641  51.466  1.00  0.00    -0.270 OA
HETATM    4  H   UNL     1       6.796  25.905  50.150  1.00  0.00     0.192 HD
ENDROOT
BRANCH   1   5
HETATM    5  N   UNL     1       6.035  25.407  52.020  1.00  0.00    -0.184 NA
HETATM    6  C   UNL     1       7.175  25.123  52.560  1.00  0.00     0.153 C 
BRANCH   6   7
HETATM    7  C   UNL     1       7.233  24.333  53.778  1.00  0.00     0.018 A 
HETATM    8  C   UNL     1       6.974  24.771  55.071  1.00  0.00     0.018 A 
HETATM    9  C   UNL     1       6.580  26.108  55.593  1.00  0.00     0.069 C 
HETATM   10  N   UNL     1       7.135  23.701  55.915  1.00  0.00    -0.358 N 
HETATM   11  H   UNL     1       7.007  23.729  56.916  1.00  0.00     0.166 HD
HETATM   12  C   UNL     1       7.488  22.575  55.211  1.00  0.00     0.043 A 
HETATM   13  C   UNL     1       7.561  22.938  53.867  1.00  0.00     0.004 A 
HETATM   14  C   UNL     1       7.744  21.275  55.665  1.00  0.00     0.030 A 
HETATM   15  C   UNL     1       7.909  21.944  52.926  1.00  0.00     0.014 A 
HETATM   16  C   UNL     1       8.168  20.638  53.362  1.00  0.00     0.001 A 
HETATM   17  C   UNL     1       8.086  20.312  54.713  1.00  0.00     0.002 A 
ENDBRANCH   6   7
ENDBRANCH   1   5
BRANCH   2  18
HETATM   18  C   UNL     1       5.369  27.787  49.252  1.00  0.00     0.227 C 
BRANCH  18  19
HETATM   19  N   UNL     1       4.095  28.183  48.673  1.00  0.00    -0.348 N 
HETATM   20  C   UNL     1       3.567  27.533  47.581  1.00  0.00     0.252 C 
HETATM   21  O   UNL     1       4.180  26.664  46.968  1.00  0.00    -0.268 OA
HETATM   22  H   UNL     1       3.691  29.057  48.983  1.00  0.00     0.163 HD
BRANCH  20  23
HETATM   23  C   UNL     1       2.221  27.980  47.136  1.00  0.00     0.032 A 
HETATM   24  C   UNL     1       2.009  29.343  46.899  1.00  0.00     0.018 A 
HETATM   25  C   UNL     1       0.759  29.792  46.462  1.00  0.00     0.025 A 
HETATM   26  C   UNL     1      -0.270  28.876  46.250  1.00  0.00     0.034 A 
HETATM   27 CL   UNL     1      -1.806  29.425  45.703  1.00  0.00    -0.084 Cl
HETATM   28  C   UNL     1      -0.063  27.514  46.471  1.00  0.00     0.025 A 
HETATM   29  C   UNL     1       1.185  27.063  46.913  1.00  0.00     0.018 A 
ENDBRANCH  20  23
ENDBRANCH  18  19
ENDBRANCH   2  18
TORSDOF 5
ENDMDL
MODEL 6
REMARK VINA RESULT:      -9.3      8.038     11.446
REMARK  5 active torsions:
REMARK  status: ('A' for Active; 'I' for Inactive)
REMARK    1  A    between atoms: C_7  and  C_8 
REMARK    2  A    between atoms: N_9  and  N_10 
REMARK       I    between atoms: N_10  and  C_11 
REMARK    3  A    between atoms: C_11  and  C_12 
REMARK    4  A    between atoms: C_12  and  N_13 
REMARK       I    between atoms: N_13  and  C_14 
REMARK    5  A    between atoms: C_14  and  C_15 
ROOT
HETATM    1  N   UNL     1       5.723  26.515  53.624  1.00  0.00    -0.246 N 
HETATM    2  C   UNL     1       5.245  26.393  52.327  1.00  0.00     0.255 C 
HETATM    3  O   UNL     1       5.051  25.339  51.725  1.00  0.00    -0.270 OA
HETATM    4  H   UNL     1       5.760  27.444  54.055  1.00  0.00     0.192 HD
ENDROOT
BRANCH   1   5
HETATM    5  N   UNL     1       6.095  25.410  54.329  1.00  0.00    -0.184 NA
HETATM    6  C   UNL     1       7.367  25.181  54.374  1.00  0.00     0.153 C 
BRANCH   6   7
HETATM    7  C   UNL     1       7.878  24.013  55.072  1.00  0.00     0.018 A 
HETATM    8  C   UNL     1       8.261  23.938  56.406  1.00  0.00     0.018 A 
HETATM    9  C   UNL     1       8.272  24.967  57.482  1.00  0.00     0.069 C 
HETATM   10  N   UNL     1       8.670  22.652  56.651  1.00  0.00    -0.358 N 
HETATM   11  H   UNL     1       9.000  22.310  57.543  1.00  0.00     0.166 HD
HETATM   12  C   UNL     1       8.563  21.883  55.518  1.00  0.00     0.043 A 
HETATM   13  C   UNL     1       8.071  22.708  54.508  1.00  0.00     0.004 A 
HETATM   14  C   UNL     1       8.863  20.529  55.320  1.00  0.00     0.030 A 
HETATM   15  C   UNL     1       7.867  22.145  53.228  1.00  0.00     0.014 A 
HETATM   16  C   UNL     1       8.161  20.793  53.012  1.00  0.00     0.001 A 
HETATM   17  C   UNL     1       8.652  19.999  54.045  1.00  0.00     0.002 A 
ENDBRANCH   6   7
ENDBRANCH   1   5
BRANCH   2  18
HETATM   18  C   UNL     1       5.016  27.749  51.659  1.00  0.00     0.227 C 
BRANCH  18  19
HETATM   19  N   UNL     1       3.974  27.725  50.645  1.00  0.00    -0.348 N 
HETATM   20  C   UNL     1       4.235  28.060  49.336  1.00  0.00     0.252 C 
HETATM   21  O   UNL     1       5.321  28.500  48.970  1.00  0.00    -0.268 OA
HETATM   22  H   UNL     1       3.017  27.625  50.958  1.00  0.00     0.163 HD
BRANCH  20  23
HETATM   23  C   UNL     1       3.105  27.915  48.381  1.00  0.00     0.032 A 
HETATM   24  C   UNL     1       2.838  26.652  47.840  1.00  0.00     0.018 A 
HETATM   25  C   UNL     1       1.769  26.481  46.955  1.00  0.00     0.025 A 
HETATM   26  C   UNL     1       0.963  27.569  46.624  1.00  0.00     0.034 A 
HETATM   27 CL   UNL     1      -0.358  27.358  45.543  1.00  0.00    -0.084 Cl
HETATM   28  C   UNL     1       1.213  28.828  47.171  1.00  0.00     0.025 A 
HETATM   29  C   UNL     1       2.285  29.003  48.052  1.00  0.00     0.018 A 
ENDBRANCH  20  23
ENDBRANCH  18  19
ENDBRANCH   2  18
TORSDOF 5
ENDMDL
MODEL 7
REMARK VINA RESULT:      -9.0      4.348     10.449
REMARK  5 active torsions:
REMARK  status: ('A' for Active; 'I' for Inactive)
REMARK    1  A    between atoms: C_7  and  C_8 
REMARK    2  A    between atoms: N_9  and  N_10 
REMARK       I    between atoms: N_10  and  C_11 
REMARK    3  A    between atoms: C_11  and  C_12 
REMARK    4  A    between atoms: C_12  and  N_13 
REMARK       I    between atoms: N_13  and  C_14 
REMARK    5  A    between atoms: C_14  and  C_15 
ROOT
HETATM    1  N   UNL     1       6.282  30.067  56.810  1.00  0.00    -0.246 N 
HETATM    2  C   UNL     1       6.818  28.790  56.735  1.00  0.00     0.255 C 
HETATM    3  O   UNL     1       6.926  27.996  57.667  1.00  0.00    -0.270 OA
HETATM    4  H   UNL     1       6.162  30.607  55.948  1.00  0.00     0.192 HD
ENDROOT
BRANCH   1   5
HETATM    5  N   UNL     1       5.881  30.579  58.007  1.00  0.00    -0.184 NA
HETATM    6  C   UNL     1       6.463  31.677  58.366  1.00  0.00     0.153 C 
BRANCH   6   7
HETATM    7  C   UNL     1       6.137  32.298  59.639  1.00  0.00     0.018 A 
HETATM    8  C   UNL     1       4.984  33.007  59.952  1.00  0.00     0.018 A 
HETATM    9  C   UNL     1       3.785  33.340  59.135  1.00  0.00     0.069 C 
HETATM   10  N   UNL     1       5.082  33.408  61.260  1.00  0.00    -0.358 N 
HETATM   11  H   UNL     1       4.382  33.941  61.757  1.00  0.00     0.166 HD
HETATM   12  C   UNL     1       6.264  32.979  61.813  1.00  0.00     0.043 A 
HETATM   13  C   UNL     1       6.951  32.281  60.821  1.00  0.00     0.004 A 
HETATM   14  C   UNL     1       6.768  33.158  63.108  1.00  0.00     0.030 A 
HETATM   15  C   UNL     1       8.212  31.731  61.144  1.00  0.00     0.014 A 
HETATM   16  C   UNL     1       8.730  31.899  62.434  1.00  0.00     0.001 A 
HETATM   17  C   UNL     1       8.016  32.603  63.399  1.00  0.00     0.002 A 
ENDBRANCH   6   7
ENDBRANCH   1   5
BRANCH   2  18
HETATM   18  C   UNL     1       7.334  28.454  55.335  1.00  0.00     0.227 C 
BRANCH  18  19
HETATM   19  N   UNL     1       7.575  27.034  55.134  1.00  0.00    -0.348 N 
HETATM   20  C   UNL     1       6.648  26.227  54.514  1.00  0.00     0.252 C 
HETATM   21  O   UNL     1       5.532  26.625  54.197  1.00  0.00    -0.268 OA
HETATM   22  H   UNL     1       8.363  26.619  55.614  1.00  0.00     0.163 HD
BRANCH  20  23
HETATM   23  C   UNL     1       7.049  24.812  54.296  1.00  0.00     0.032 A 
HETATM   24  C   UNL     1       7.422  24.409  53.008  1.00  0.00     0.018 A 
HETATM   25  C   UNL     1       7.821  23.089  52.775  1.00  0.00     0.025 A 
HETATM   26  C   UNL     1       7.862  22.181  53.833  1.00  0.00     0.034 A 
HETATM   27 CL   UNL     1       8.364  20.561  53.550  1.00  0.00    -0.084 Cl
HETATM   28  C   UNL     1       7.506  22.580  55.122  1.00  0.00     0.025 A 
HETATM   29  C   UNL     1       7.100  23.897  55.356  1.00  0.00     0.018 A 
ENDBRANCH  20  23
ENDBRANCH  18  19
ENDBRANCH   2  18
TORSDOF 5
ENDMDL
MODEL 8
REMARK VINA RESULT:      -9.0      4.220     10.792
REMARK  5 active torsions:
REMARK  status: ('A' for Active; 'I' for Inactive)
REMARK    1  A    between atoms: C_7  and  C_8 
REMARK    2  A    between atoms: N_9  and  N_10 
REMARK       I    between atoms: N_10  and  C_11 
REMARK    3  A    between atoms: C_11  and  C_12 
REMARK    4  A    between atoms: C_12  and  N_13 
REMARK       I    between atoms: N_13  and  C_14 
REMARK    5  A    between atoms: C_14  and  C_15 
ROOT
HETATM    1  N   UNL     1       7.531  29.960  57.925  1.00  0.00    -0.246 N 
HETATM    2  C   UNL     1       7.641  28.642  57.506  1.00  0.00     0.255 C 
HETATM    3  O   UNL     1       7.780  27.662  58.235  1.00  0.00    -0.270 OA
HETATM    4  H   UNL     1       7.329  30.686  57.231  1.00  0.00     0.192 HD
ENDROOT
BRANCH   1   5
HETATM    5  N   UNL     1       7.646  30.277  59.245  1.00  0.00    -0.184 NA
HETATM    6  C   UNL     1       7.347  31.498  59.551  1.00  0.00     0.153 C 
BRANCH   6   7
HETATM    7  C   UNL     1       7.462  31.958  60.925  1.00  0.00     0.018 A 
HETATM    8  C   UNL     1       8.625  32.058  61.679  1.00  0.00     0.018 A 
HETATM    9  C   UNL     1      10.041  31.743  61.343  1.00  0.00     0.069 C 
HETATM   10  N   UNL     1       8.282  32.545  62.914  1.00  0.00    -0.358 N 
HETATM   11  H   UNL     1       8.931  32.722  63.668  1.00  0.00     0.166 HD
HETATM   12  C   UNL     1       6.929  32.770  62.990  1.00  0.00     0.043 A 
HETATM   13  C   UNL     1       6.384  32.409  61.759  1.00  0.00     0.004 A 
HETATM   14  C   UNL     1       6.158  33.263  64.051  1.00  0.00     0.030 A 
HETATM   15  C   UNL     1       4.990  32.551  61.580  1.00  0.00     0.014 A 
HETATM   16  C   UNL     1       4.204  33.043  62.629  1.00  0.00     0.001 A 
HETATM   17  C   UNL     1       4.782  33.392  63.846  1.00  0.00     0.002 A 
ENDBRANCH   6   7
ENDBRANCH   1   5
BRANCH   2  18
HETATM   18  C   UNL     1       7.624  28.509  55.983  1.00  0.00     0.227 C 
BRANCH  18  19
HETATM   19  N   UNL     1       7.816  27.144  55.520  1.00  0.00    -0.348 N 
HETATM   20  C   UNL     1       6.774  26.401  55.015  1.00  0.00     0.252 C 
HETATM   21  O   UNL     1       5.613  26.798  55.026  1.00  0.00    -0.268 OA
HETATM   22  H   UNL     1       8.696  26.694  55.739  1.00  0.00     0.163 HD
BRANCH  20  23
HETATM   23  C   UNL     1       7.118  25.050  54.500  1.00  0.00     0.032 A 
HETATM   24  C   UNL     1       7.512  24.919  53.163  1.00  0.00     0.018 A 
HETATM   25  C   UNL     1       7.859  23.664  52.655  1.00  0.00     0.025 A 
HETATM   26  C   UNL     1       7.826  22.546  53.488  1.00  0.00     0.034 A 
HETATM   27 CL   UNL     1       8.264  21.003  52.867  1.00  0.00    -0.084 Cl
HETATM   28  C   UNL     1       7.449  22.671  54.825  1.00  0.00     0.025 A 
HETATM   29  C   UNL     1       7.095  23.924  55.335  1.00  0.00     0.018 A 
ENDBRANCH  20  23
ENDBRANCH  18  19
ENDBRANCH   2  18
TORSDOF 5
ENDMDL
MODEL 9
REMARK VINA RESULT:      -8.9      5.044      9.928
REMARK  5 active torsions:
REMARK  status: ('A' for Active; 'I' for Inactive)
REMARK    1  A    between atoms: C_7  and  C_8 
REMARK    2  A    between atoms: N_9  and  N_10 
REMARK       I    between atoms: N_10  and  C_11 
REMARK    3  A    between atoms: C_11  and  C_12 
REMARK    4  A    between atoms: C_12  and  N_13 
REMARK       I    between atoms: N_13  and  C_14 
REMARK    5  A    between atoms: C_14  and  C_15 
ROOT
HETATM    1  N   UNL     1       6.013  28.031  54.022  1.00  0.00    -0.246 N 
HETATM    2  C   UNL     1       4.791  27.641  53.494  1.00  0.00     0.255 C 
HETATM    3  O   UNL     1       3.706  28.178  53.710  1.00  0.00    -0.270 OA
HETATM    4  H   UNL     1       6.865  27.562  53.701  1.00  0.00     0.192 HD
ENDROOT
BRANCH   1   5
HETATM    5  N   UNL     1       6.083  29.052  54.922  1.00  0.00    -0.184 NA
HETATM    6  C   UNL     1       6.394  28.709  56.129  1.00  0.00     0.153 C 
BRANCH   6   7
HETATM    7  C   UNL     1       6.469  29.711  57.180  1.00  0.00     0.018 A 
HETATM    8  C   UNL     1       5.404  30.358  57.795  1.00  0.00     0.018 A 
HETATM    9  C   UNL     1       3.934  30.242  57.587  1.00  0.00     0.069 C 
HETATM   10  N   UNL     1       5.920  31.214  58.734  1.00  0.00    -0.358 N 
HETATM   11  H   UNL     1       5.372  31.813  59.336  1.00  0.00     0.166 HD
HETATM   12  C   UNL     1       7.292  31.144  58.754  1.00  0.00     0.043 A 
HETATM   13  C   UNL     1       7.669  30.211  57.788  1.00  0.00     0.004 A 
HETATM   14  C   UNL     1       8.215  31.832  59.550  1.00  0.00     0.030 A 
HETATM   15  C   UNL     1       9.046  29.954  57.612  1.00  0.00     0.014 A 
HETATM   16  C   UNL     1       9.984  30.632  58.400  1.00  0.00     0.001 A 
HETATM   17  C   UNL     1       9.571  31.558  59.355  1.00  0.00     0.002 A 
ENDBRANCH   6   7
ENDBRANCH   1   5
BRANCH   2  18
HETATM   18  C   UNL     1       4.904  26.394  52.617  1.00  0.00     0.227 C 
BRANCH  18  19
HETATM   19  N   UNL     1       5.542  25.272  53.287  1.00  0.00    -0.348 N 
HETATM   20  C   UNL     1       6.692  24.698  52.796  1.00  0.00     0.252 C 
HETATM   21  O   UNL     1       7.183  25.019  51.719  1.00  0.00    -0.268 OA
HETATM   22  H   UNL     1       5.024  24.812  54.026  1.00  0.00     0.163 HD
BRANCH  20  23
HETATM   23  C   UNL     1       7.289  23.612  53.618  1.00  0.00     0.032 A 
HETATM   24  C   UNL     1       7.194  23.694  55.012  1.00  0.00     0.018 A 
HETATM   25  C   UNL     1       7.729  22.679  55.811  1.00  0.00     0.025 A 
HETATM   26  C   UNL     1       8.344  21.579  55.214  1.00  0.00     0.034 A 
HETATM   27 CL   UNL     1       8.993  20.325  56.196  1.00  0.00    -0.084 Cl
HETATM   28  C   UNL     1       8.429  21.483  53.825  1.00  0.00     0.025 A 
HETATM   29  C   UNL     1       7.900  22.500  53.023  1.00  0.00     0.018 A 
ENDBRANCH  20  23
ENDBRANCH  18  19
ENDBRANCH   2  18
TORSDOF 5
ENDMDL
MODEL 10
REMARK VINA RESULT:      -8.8      2.077      2.762
REMARK  5 active torsions:
REMARK  status: ('A' for Active; 'I' for Inactive)
REMARK    1  A    between atoms: C_7  and  C_8 
REMARK    2  A    between atoms: N_9  and  N_10 
REMARK       I    between atoms: N_10  and  C_11 
REMARK    3  A    between atoms: C_11  and  C_12 
REMARK    4  A    between atoms: C_12  and  N_13 
REMARK       I    between atoms: N_13  and  C_14 
REMARK    5  A    between atoms: C_14  and  C_15 
ROOT
HETATM    1  N   UNL     1       8.562  28.649  56.751  1.00  0.00    -0.246 N 
HETATM    2  C   UNL     1       9.557  29.590  56.530  1.00  0.00     0.255 C 
HETATM    3  O   UNL     1      10.126  29.801  55.461  1.00  0.00    -0.270 OA
HETATM    4  H   UNL     1       8.098  28.623  57.664  1.00  0.00     0.192 HD
ENDROOT
BRANCH   1   5
HETATM    5  N   UNL     1       8.178  27.802  55.756  1.00  0.00    -0.184 NA
HETATM    6  C   UNL     1       7.595  26.714  56.144  1.00  0.00     0.153 C 
BRANCH   6   7
HETATM    7  C   UNL     1       7.170  25.722  55.171  1.00  0.00     0.018 A 
HETATM    8  C   UNL     1       6.132  25.842  54.255  1.00  0.00     0.018 A 
HETATM    9  C   UNL     1       5.178  26.955  53.993  1.00  0.00     0.069 C 
HETATM   10  N   UNL     1       6.082  24.681  53.526  1.00  0.00    -0.358 N 
HETATM   11  H   UNL     1       5.424  24.490  52.784  1.00  0.00     0.166 HD
HETATM   12  C   UNL     1       7.060  23.807  53.936  1.00  0.00     0.043 A 
HETATM   13  C   UNL     1       7.759  24.429  54.969  1.00  0.00     0.004 A 
HETATM   14  C   UNL     1       7.371  22.524  53.469  1.00  0.00     0.030 A 
HETATM   15  C   UNL     1       8.829  23.727  55.567  1.00  0.00     0.014 A 
HETATM   16  C   UNL     1       9.155  22.444  55.112  1.00  0.00     0.001 A 
HETATM   17  C   UNL     1       8.434  21.853  54.078  1.00  0.00     0.002 A 
ENDBRANCH   6   7
ENDBRANCH   1   5
BRANCH   2  18
HETATM   18  C   UNL     1       9.941  30.345  57.802  1.00  0.00     0.227 C 
BRANCH  18  19
HETATM   19  N   UNL     1       8.795  30.796  58.575  1.00  0.00    -0.348 N 
HETATM   20  C   UNL     1       8.893  31.838  59.468  1.00  0.00     0.252 C 
HETATM   21  O   UNL     1       9.961  32.372  59.747  1.00  0.00    -0.268 OA
HETATM   22  H   UNL     1       7.967  30.213  58.568  1.00  0.00     0.163 HD
BRANCH  20  23
HETATM   23  C   UNL     1       7.630  32.255  60.133  1.00  0.00     0.032 A 
HETATM   24  C   UNL     1       6.425  32.126  59.432  1.00  0.00     0.018 A 
HETATM   25  C   UNL     1       5.220  32.492  60.039  1.00  0.00     0.025 A 
HETATM   26  C   UNL     1       5.221  32.972  61.348  1.00  0.00     0.034 A 
HETATM   27 CL   UNL     1       3.737  33.413  62.099  1.00  0.00    -0.084 Cl
HETATM   28  C   UNL     1       6.416  33.090  62.058  1.00  0.00     0.025 A 
HETATM   29  C   UNL     1       7.624  32.730  61.452  1.00  0.00     0.018 A 
ENDBRANCH  20  23
ENDBRANCH  18  19
ENDBRANCH   2  18
TORSDOF 5
ENDMDL
