MODEL 1
REMARK VINA RESULT:      -9.3      0.000      0.000
REMARK  1 active torsions:
REMARK  status: ('A' for Active; 'I' for Inactive)
REMARK    1  A    between atoms: C_5  and  N_6 
ROOT
HETATM    1  N   UNL     1       6.661  26.540  55.457  1.00  0.00    -0.320 N 
HETATM    2  C   UNL     1       5.464  26.604  56.227  1.00  0.00     0.141 C 
HETATM    3  N   UNL     1       4.670  25.585  56.398  1.00  0.00    -0.380 N 
HETATM    4  H   UNL     1       3.839  25.688  56.964  1.00  0.00     0.158 HD
HETATM    5  H   UNL     1       4.895  24.699  55.966  1.00  0.00     0.158 HD
HETATM    6  S   UNL     1       5.188  28.145  56.927  1.00  0.00    -0.086 SA
HETATM    7  C   UNL     1       6.562  28.895  55.947  1.00  0.00     0.093 C 
HETATM    8  C   UNL     1       7.531  27.725  55.646  1.00  0.00     0.121 C 
HETATM    9  C   UNL     1       7.318  29.995  56.663  1.00  0.00     0.158 C 
HETATM   10  S   UNL     1       8.659  29.201  57.513  1.00  0.00     0.147 S 
HETATM   11  O   UNL     1       8.369  29.176  58.930  1.00  0.00    -0.228 OA
HETATM   12  O   UNL     1       9.900  29.721  56.981  1.00  0.00    -0.228 OA
HETATM   13  C   UNL     1       8.435  27.565  56.869  1.00  0.00     0.167 C 
ENDROOT
BRANCH   1  14
HETATM   14  C   UNL     1       7.062  25.538  54.547  1.00  0.00     0.048 A 
HETATM   15  C   UNL     1       7.651  24.307  54.985  1.00  0.00     0.001 A 
HETATM   16  C   UNL     1       8.170  23.405  54.018  1.00  0.00    -0.024 A 
HETATM   17  C   UNL     1       7.728  23.896  56.340  1.00  0.00     0.014 A 
HETATM   18  C   UNL     1       8.797  22.214  54.418  1.00  0.00     0.012 A 
HETATM   19  C   UNL     1       8.048  23.693  52.655  1.00  0.00     0.012 A 
HETATM   20  C   UNL     1       8.898  21.871  55.763  1.00  0.00     0.001 A 
HETATM   21  C   UNL     1       8.351  22.706  56.725  1.00  0.00     0.001 A 
HETATM   22  C   UNL     1       7.421  24.857  52.229  1.00  0.00     0.003 A 
HETATM   23  C   UNL     1       6.939  25.768  53.165  1.00  0.00     0.030 A 
ENDBRANCH   1  14
TORSDOF 1
ENDMDL
MODEL 2
REMARK VINA RESULT:      -8.6      0.907      2.457
REMARK  1 active torsions:
REMARK  status: ('A' for Active; 'I' for Inactive)
REMARK    1  A    between atoms: C_5  and  N_6 
ROOT
HETATM    1  N   UNL     1       6.779  26.682  56.449  1.00  0.00    -0.320 N 
HETATM    2  C   UNL     1       5.409  26.911  56.764  1.00  0.00     0.141 C 
HETATM    3  N   UNL     1       4.565  25.953  57.022  1.00  0.00    -0.380 N 
HETATM    4  H   UNL     1       3.606  26.178  57.250  1.00  0.00     0.158 HD
HETATM    5  H   UNL     1       4.878  24.991  56.997  1.00  0.00     0.158 HD
HETATM    6  S   UNL     1       4.988  28.574  56.796  1.00  0.00    -0.086 SA
HETATM    7  C   UNL     1       6.619  29.055  56.075  1.00  0.00     0.093 C 
HETATM    8  C   UNL     1       7.592  27.920  56.481  1.00  0.00     0.121 C 
HETATM    9  C   UNL     1       7.163  30.378  56.572  1.00  0.00     0.158 C 
HETATM   10  S   UNL     1       8.156  30.001  57.994  1.00  0.00     0.147 S 
HETATM   11  O   UNL     1       7.453  30.422  59.185  1.00  0.00    -0.228 OA
HETATM   12  O   UNL     1       9.517  30.402  57.711  1.00  0.00    -0.228 OA
HETATM   13  C   UNL     1       8.080  28.233  57.896  1.00  0.00     0.167 C 
ENDROOT
BRANCH   1  14
HETATM   14  C   UNL     1       7.401  25.467  56.086  1.00  0.00     0.048 A 
HETATM   15  C   UNL     1       7.530  25.062  54.718  1.00  0.00     0.001 A 
HETATM   16  C   UNL     1       8.028  23.764  54.425  1.00  0.00    -0.024 A 
HETATM   17  C   UNL     1       7.221  25.887  53.607  1.00  0.00     0.014 A 
HETATM   18  C   UNL     1       8.120  23.318  53.097  1.00  0.00     0.012 A 
HETATM   19  C   UNL     1       8.443  22.922  55.462  1.00  0.00     0.012 A 
HETATM   20  C   UNL     1       7.758  24.142  52.035  1.00  0.00     0.001 A 
HETATM   21  C   UNL     1       7.321  25.433  52.289  1.00  0.00     0.001 A 
HETATM   22  C   UNL     1       8.377  23.341  56.785  1.00  0.00     0.003 A 
HETATM   23  C   UNL     1       7.858  24.596  57.090  1.00  0.00     0.030 A 
ENDBRANCH   1  14
TORSDOF 1
ENDMDL
MODEL 3
REMARK VINA RESULT:      -8.0      3.474      6.515
REMARK  1 active torsions:
REMARK  status: ('A' for Active; 'I' for Inactive)
REMARK    1  A    between atoms: C_5  and  N_6 
ROOT
HETATM    1  N   UNL     1       7.179  28.721  56.631  1.00  0.00    -0.320 N 
HETATM    2  C   UNL     1       6.030  29.318  56.037  1.00  0.00     0.141 C 
HETATM    3  N   UNL     1       6.033  30.514  55.521  1.00  0.00    -0.380 N 
HETATM    4  H   UNL     1       5.189  30.881  55.103  1.00  0.00     0.158 HD
HETATM    5  H   UNL     1       6.882  31.064  55.539  1.00  0.00     0.158 HD
HETATM    6  S   UNL     1       4.653  28.295  56.043  1.00  0.00    -0.086 SA
HETATM    7  C   UNL     1       5.496  27.078  57.148  1.00  0.00     0.093 C 
HETATM    8  C   UNL     1       7.009  27.270  56.882  1.00  0.00     0.121 C 
HETATM    9  C   UNL     1       5.125  25.632  56.891  1.00  0.00     0.158 C 
HETATM   10  S   UNL     1       6.296  25.025  55.703  1.00  0.00     0.147 S 
HETATM   11  O   UNL     1       5.639  24.890  54.422  1.00  0.00    -0.228 OA
HETATM   12  O   UNL     1       7.038  23.945  56.315  1.00  0.00    -0.228 OA
HETATM   13  C   UNL     1       7.355  26.445  55.641  1.00  0.00     0.167 C 
ENDROOT
BRANCH   1  14
HETATM   14  C   UNL     1       8.382  29.345  57.027  1.00  0.00     0.048 A 
HETATM   15  C   UNL     1       8.426  30.296  58.098  1.00  0.00     0.001 A 
HETATM   16  C   UNL     1       9.635  30.999  58.350  1.00  0.00    -0.024 A 
HETATM   17  C   UNL     1       7.340  30.571  58.967  1.00  0.00     0.014 A 
HETATM   18  C   UNL     1       9.695  31.973  59.360  1.00  0.00     0.012 A 
HETATM   19  C   UNL     1      10.779  30.717  57.598  1.00  0.00     0.012 A 
HETATM   20  C   UNL     1       8.590  32.251  60.158  1.00  0.00     0.001 A 
HETATM   21  C   UNL     1       7.415  31.540  59.972  1.00  0.00     0.001 A 
HETATM   22  C   UNL     1      10.753  29.749  56.602  1.00  0.00     0.003 A 
HETATM   23  C   UNL     1       9.567  29.076  56.319  1.00  0.00     0.030 A 
ENDBRANCH   1  14
TORSDOF 1
ENDMDL
MODEL 4
REMARK VINA RESULT:      -7.9      2.228      2.920
REMARK  1 active torsions:
REMARK  status: ('A' for Active; 'I' for Inactive)
REMARK    1  A    between atoms: C_5  and  N_6 
ROOT
HETATM    1  N   UNL     1       7.414  24.967  55.636  1.00  0.00    -0.320 N 
HETATM    2  C   UNL     1       8.222  25.304  56.760  1.00  0.00     0.141 C 
HETATM    3  N   UNL     1       9.421  24.830  56.946  1.00  0.00    -0.380 N 
HETATM    4  H   UNL     1       9.952  25.114  57.758  1.00  0.00     0.158 HD
HETATM    5  H   UNL     1       9.812  24.183  56.273  1.00  0.00     0.158 HD
HETATM    6  S   UNL     1       7.471  26.419  57.827  1.00  0.00    -0.086 SA
HETATM    7  C   UNL     1       5.858  26.259  56.943  1.00  0.00     0.093 C 
HETATM    8  C   UNL     1       6.227  25.843  55.497  1.00  0.00     0.121 C 
HETATM    9  C   UNL     1       5.035  27.529  56.900  1.00  0.00     0.158 C 
HETATM   10  S   UNL     1       5.509  28.376  55.414  1.00  0.00     0.147 S 
HETATM   11  O   UNL     1       6.323  29.519  55.763  1.00  0.00    -0.228 OA
HETATM   12  O   UNL     1       4.343  28.481  54.564  1.00  0.00    -0.228 OA
HETATM   13  C   UNL     1       6.565  27.125  54.734  1.00  0.00     0.167 C 
ENDROOT
BRANCH   1  14
HETATM   14  C   UNL     1       7.594  23.912  54.716  1.00  0.00     0.048 A 
HETATM   15  C   UNL     1       7.870  22.572  55.144  1.00  0.00     0.001 A 
HETATM   16  C   UNL     1       8.189  21.587  54.171  1.00  0.00    -0.024 A 
HETATM   17  C   UNL     1       7.816  22.137  56.492  1.00  0.00     0.014 A 
HETATM   18  C   UNL     1       8.512  20.278  54.562  1.00  0.00     0.012 A 
HETATM   19  C   UNL     1       8.172  21.913  52.811  1.00  0.00     0.012 A 
HETATM   20  C   UNL     1       8.498  19.903  55.902  1.00  0.00     0.001 A 
HETATM   21  C   UNL     1       8.135  20.829  56.868  1.00  0.00     0.001 A 
HETATM   22  C   UNL     1       7.842  23.197  52.394  1.00  0.00     0.003 A 
HETATM   23  C   UNL     1       7.562  24.183  53.337  1.00  0.00     0.030 A 
ENDBRANCH   1  14
TORSDOF 1
ENDMDL
MODEL 5
REMARK VINA RESULT:      -7.7     10.173     12.258
REMARK  1 active torsions:
REMARK  status: ('A' for Active; 'I' for Inactive)
REMARK    1  A    between atoms: C_5  and  N_6 
ROOT
HETATM    1  N   UNL     1       4.613  33.489  62.058  1.00  0.00    -0.320 N 
HETATM    2  C   UNL     1       3.800  32.437  61.545  1.00  0.00     0.141 C 
HETATM    3  N   UNL     1       3.516  31.360  62.220  1.00  0.00    -0.380 N 
HETATM    4  H   UNL     1       2.925  30.652  61.807  1.00  0.00     0.158 HD
HETATM    5  H   UNL     1       3.887  31.243  63.154  1.00  0.00     0.158 HD
HETATM    6  S   UNL     1       3.212  32.744  59.963  1.00  0.00    -0.086 SA
HETATM    7  C   UNL     1       4.305  34.221  59.785  1.00  0.00     0.093 C 
HETATM    8  C   UNL     1       4.555  34.717  61.231  1.00  0.00     0.121 C 
HETATM    9  C   UNL     1       3.711  35.350  58.969  1.00  0.00     0.158 C 
HETATM   10  S   UNL     1       2.859  36.399  60.120  1.00  0.00     0.147 S 
HETATM   11  O   UNL     1       1.434  36.212  59.961  1.00  0.00    -0.228 OA
HETATM   12  O   UNL     1       3.482  37.703  60.086  1.00  0.00    -0.228 OA
HETATM   13  C   UNL     1       3.363  35.594  61.617  1.00  0.00     0.167 C 
ENDROOT
BRANCH   1  14
HETATM   14  C   UNL     1       5.459  33.467  63.189  1.00  0.00     0.048 A 
HETATM   15  C   UNL     1       5.028  33.954  64.466  1.00  0.00     0.001 A 
HETATM   16  C   UNL     1       5.971  34.045  65.525  1.00  0.00    -0.024 A 
HETATM   17  C   UNL     1       3.696  34.331  64.770  1.00  0.00     0.014 A 
HETATM   18  C   UNL     1       5.593  34.564  66.774  1.00  0.00     0.012 A 
HETATM   19  C   UNL     1       7.285  33.604  65.334  1.00  0.00     0.012 A 
HETATM   20  C   UNL     1       4.285  34.972  67.017  1.00  0.00     0.001 A 
HETATM   21  C   UNL     1       3.331  34.843  66.019  1.00  0.00     0.001 A 
HETATM   22  C   UNL     1       7.684  33.073  64.114  1.00  0.00     0.003 A 
HETATM   23  C   UNL     1       6.781  33.010  63.055  1.00  0.00     0.030 A 
ENDBRANCH   1  14
TORSDOF 1
ENDMDL
MODEL 6
REMARK VINA RESULT:      -7.7      8.079      9.577
REMARK  1 active torsions:
REMARK  status: ('A' for Active; 'I' for Inactive)
REMARK    1  A    between atoms: C_5  and  N_6 
ROOT
HETATM    1  N   UNL     1       4.804  33.194  61.341  1.00  0.00    -0.320 N 
HETATM    2  C   UNL     1       3.699  32.696  62.088  1.00  0.00     0.141 C 
HETATM    3  N   UNL     1       3.475  31.426  62.272  1.00  0.00    -0.380 N 
HETATM    4  H   UNL     1       2.680  31.132  62.821  1.00  0.00     0.158 HD
HETATM    5  H   UNL     1       4.104  30.744  61.867  1.00  0.00     0.158 HD
HETATM    6  S   UNL     1       2.709  33.934  62.744  1.00  0.00    -0.086 SA
HETATM    7  C   UNL     1       3.592  35.230  61.768  1.00  0.00     0.093 C 
HETATM    8  C   UNL     1       5.006  34.652  61.514  1.00  0.00     0.121 C 
HETATM    9  C   UNL     1       3.719  36.567  62.468  1.00  0.00     0.158 C 
HETATM   10  S   UNL     1       5.253  36.514  63.361  1.00  0.00     0.147 S 
HETATM   11  O   UNL     1       4.971  36.375  64.772  1.00  0.00    -0.228 OA
HETATM   12  O   UNL     1       6.115  37.550  62.837  1.00  0.00    -0.228 OA
HETATM   13  C   UNL     1       5.845  34.956  62.755  1.00  0.00     0.167 C 
ENDROOT
BRANCH   1  14
HETATM   14  C   UNL     1       5.656  32.488  60.463  1.00  0.00     0.048 A 
HETATM   15  C   UNL     1       6.861  31.860  60.918  1.00  0.00     0.001 A 
HETATM   16  C   UNL     1       7.748  31.294  59.964  1.00  0.00    -0.024 A 
HETATM   17  C   UNL     1       7.228  31.728  62.281  1.00  0.00     0.014 A 
HETATM   18  C   UNL     1       8.961  30.716  60.373  1.00  0.00     0.012 A 
HETATM   19  C   UNL     1       7.414  31.299  58.606  1.00  0.00     0.012 A 
HETATM   20  C   UNL     1       9.309  30.653  61.720  1.00  0.00     0.001 A 
HETATM   21  C   UNL     1       8.435  31.146  62.676  1.00  0.00     0.001 A 
HETATM   22  C   UNL     1       6.216  31.851  58.173  1.00  0.00     0.003 A 
HETATM   23  C   UNL     1       5.351  32.441  59.091  1.00  0.00     0.030 A 
ENDBRANCH   1  14
TORSDOF 1
ENDMDL
MODEL 7
REMARK VINA RESULT:      -7.6      7.421      9.698
REMARK  1 active torsions:
REMARK  status: ('A' for Active; 'I' for Inactive)
REMARK    1  A    between atoms: C_5  and  N_6 
ROOT
HETATM    1  N   UNL     1       5.739  33.008  62.086  1.00  0.00    -0.320 N 
HETATM    2  C   UNL     1       4.450  32.485  62.394  1.00  0.00     0.141 C 
HETATM    3  N   UNL     1       4.231  31.225  62.642  1.00  0.00    -0.380 N 
HETATM    4  H   UNL     1       3.296  30.914  62.865  1.00  0.00     0.158 HD
HETATM    5  H   UNL     1       5.001  30.569  62.614  1.00  0.00     0.158 HD
HETATM    6  S   UNL     1       3.223  33.683  62.432  1.00  0.00    -0.086 SA
HETATM    7  C   UNL     1       4.363  34.950  61.722  1.00  0.00     0.093 C 
HETATM    8  C   UNL     1       5.785  34.488  62.128  1.00  0.00     0.121 C 
HETATM    9  C   UNL     1       4.134  36.359  62.229  1.00  0.00     0.158 C 
HETATM   10  S   UNL     1       5.174  36.547  63.655  1.00  0.00     0.147 S 
HETATM   11  O   UNL     1       4.352  36.528  64.844  1.00  0.00    -0.228 OA
HETATM   12  O   UNL     1       6.126  37.602  63.382  1.00  0.00    -0.228 OA
HETATM   13  C   UNL     1       6.034  35.000  63.548  1.00  0.00     0.167 C 
ENDROOT
BRANCH   1  14
HETATM   14  C   UNL     1       6.905  32.300  61.721  1.00  0.00     0.048 A 
HETATM   15  C   UNL     1       7.064  31.722  60.419  1.00  0.00     0.001 A 
HETATM   16  C   UNL     1       8.191  30.896  60.162  1.00  0.00    -0.024 A 
HETATM   17  C   UNL     1       6.179  31.942  59.333  1.00  0.00     0.014 A 
HETATM   18  C   UNL     1       8.349  30.275  58.913  1.00  0.00     0.012 A 
HETATM   19  C   UNL     1       9.160  30.705  61.152  1.00  0.00     0.012 A 
HETATM   20  C   UNL     1       7.429  30.476  57.888  1.00  0.00     0.001 A 
HETATM   21  C   UNL     1       6.350  31.322  58.093  1.00  0.00     0.001 A 
HETATM   22  C   UNL     1       9.037  31.317  62.392  1.00  0.00     0.003 A 
HETATM   23  C   UNL     1       7.920  32.101  62.672  1.00  0.00     0.030 A 
ENDBRANCH   1  14
TORSDOF 1
ENDMDL
MODEL 8
REMARK VINA RESULT:      -7.5      3.566      6.117
REMARK  1 active torsions:
REMARK  status: ('A' for Active; 'I' for Inactive)
REMARK    1  A    between atoms: C_5  and  N_6 
ROOT
HETATM    1  N   UNL     1       6.657  26.914  55.702  1.00  0.00    -0.320 N 
HETATM    2  C   UNL     1       6.833  25.601  56.227  1.00  0.00     0.141 C 
HETATM    3  N   UNL     1       6.632  25.299  57.478  1.00  0.00    -0.380 N 
HETATM    4  H   UNL     1       6.763  24.347  57.790  1.00  0.00     0.158 HD
HETATM    5  H   UNL     1       6.342  26.020  58.126  1.00  0.00     0.158 HD
HETATM    6  S   UNL     1       7.307  24.455  55.042  1.00  0.00    -0.086 SA
HETATM    7  C   UNL     1       7.591  25.784  53.792  1.00  0.00     0.093 C 
HETATM    8  C   UNL     1       6.663  26.948  54.221  1.00  0.00     0.121 C 
HETATM    9  C   UNL     1       7.265  25.389  52.367  1.00  0.00     0.158 C 
HETATM   10  S   UNL     1       5.563  25.820  52.110  1.00  0.00     0.147 S 
HETATM   11  O   UNL     1       4.769  24.612  52.089  1.00  0.00    -0.228 OA
HETATM   12  O   UNL     1       5.504  26.809  51.056  1.00  0.00    -0.228 OA
HETATM   13  C   UNL     1       5.276  26.650  53.650  1.00  0.00     0.167 C 
ENDROOT
BRANCH   1  14
HETATM   14  C   UNL     1       6.529  28.128  56.412  1.00  0.00     0.048 A 
HETATM   15  C   UNL     1       7.670  28.847  56.896  1.00  0.00     0.001 A 
HETATM   16  C   UNL     1       7.471  29.980  57.730  1.00  0.00    -0.024 A 
HETATM   17  C   UNL     1       9.013  28.525  56.574  1.00  0.00     0.014 A 
HETATM   18  C   UNL     1       8.570  30.675  58.262  1.00  0.00     0.012 A 
HETATM   19  C   UNL     1       6.176  30.419  58.019  1.00  0.00     0.012 A 
HETATM   20  C   UNL     1       9.875  30.295  57.962  1.00  0.00     0.001 A 
HETATM   21  C   UNL     1      10.098  29.228  57.106  1.00  0.00     0.001 A 
HETATM   22  C   UNL     1       5.070  29.760  57.496  1.00  0.00     0.003 A 
HETATM   23  C   UNL     1       5.247  28.626  56.706  1.00  0.00     0.030 A 
ENDBRANCH   1  14
TORSDOF 1
ENDMDL
MODEL 9
REMARK VINA RESULT:      -7.4      2.736      3.982
REMARK  1 active torsions:
REMARK  status: ('A' for Active; 'I' for Inactive)
REMARK    1  A    between atoms: C_5  and  N_6 
ROOT
HETATM    1  N   UNL     1       7.016  27.209  55.901  1.00  0.00    -0.320 N 
HETATM    2  C   UNL     1       7.665  28.410  56.308  1.00  0.00     0.141 C 
HETATM    3  N   UNL     1       8.944  28.488  56.541  1.00  0.00    -0.380 N 
HETATM    4  H   UNL     1       9.350  29.371  56.816  1.00  0.00     0.158 HD
HETATM    5  H   UNL     1       9.521  27.663  56.439  1.00  0.00     0.158 HD
HETATM    6  S   UNL     1       6.599  29.749  56.432  1.00  0.00    -0.086 SA
HETATM    7  C   UNL     1       5.122  28.660  56.223  1.00  0.00     0.093 C 
HETATM    8  C   UNL     1       5.632  27.435  55.424  1.00  0.00     0.121 C 
HETATM    9  C   UNL     1       3.970  29.298  55.474  1.00  0.00     0.158 C 
HETATM   10  S   UNL     1       4.219  28.911  53.760  1.00  0.00     0.147 S 
HETATM   11  O   UNL     1       4.663  30.100  53.068  1.00  0.00    -0.228 OA
HETATM   12  O   UNL     1       3.094  28.121  53.309  1.00  0.00    -0.228 OA
HETATM   13  C   UNL     1       5.607  27.822  53.945  1.00  0.00     0.167 C 
ENDROOT
BRANCH   1  14
HETATM   14  C   UNL     1       7.514  25.888  55.946  1.00  0.00     0.048 A 
HETATM   15  C   UNL     1       7.716  25.113  54.758  1.00  0.00     0.001 A 
HETATM   16  C   UNL     1       8.076  23.744  54.878  1.00  0.00    -0.024 A 
HETATM   17  C   UNL     1       7.612  25.629  53.441  1.00  0.00     0.014 A 
HETATM   18  C   UNL     1       8.232  22.946  53.734  1.00  0.00     0.012 A 
HETATM   19  C   UNL     1       8.290  23.184  56.141  1.00  0.00     0.012 A 
HETATM   20  C   UNL     1       8.071  23.478  52.457  1.00  0.00     0.001 A 
HETATM   21  C   UNL     1       7.774  24.824  52.310  1.00  0.00     0.001 A 
HETATM   22  C   UNL     1       8.156  23.953  57.290  1.00  0.00     0.003 A 
HETATM   23  C   UNL     1       7.769  25.287  57.191  1.00  0.00     0.030 A 
ENDBRANCH   1  14
TORSDOF 1
ENDMDL
MODEL 10
REMARK VINA RESULT:      -7.4      7.911     10.948
REMARK  1 active torsions:
REMARK  status: ('A' for Active; 'I' for Inactive)
REMARK    1  A    between atoms: C_5  and  N_6 
ROOT
HETATM    1  N   UNL     1       6.156  32.777  61.496  1.00  0.00    -0.320 N 
HETATM    2  C   UNL     1       6.083  31.702  62.428  1.00  0.00     0.141 C 
HETATM    3  N   UNL     1       4.964  31.278  62.943  1.00  0.00    -0.380 N 
HETATM    4  H   UNL     1       4.974  30.503  63.592  1.00  0.00     0.158 HD
HETATM    5  H   UNL     1       4.094  31.726  62.685  1.00  0.00     0.158 HD
HETATM    6  S   UNL     1       7.610  31.005  62.781  1.00  0.00    -0.086 SA
HETATM    7  C   UNL     1       8.494  32.359  61.890  1.00  0.00     0.093 C 
HETATM    8  C   UNL     1       7.481  32.882  60.842  1.00  0.00     0.121 C 
HETATM    9  C   UNL     1       9.761  31.925  61.183  1.00  0.00     0.158 C 
HETATM   10  S   UNL     1       9.278  31.463  59.539  1.00  0.00     0.147 S 
HETATM   11  O   UNL     1       9.324  30.023  59.421  1.00  0.00    -0.228 OA
HETATM   12  O   UNL     1       9.951  32.343  58.608  1.00  0.00    -0.228 OA
HETATM   13  C   UNL     1       7.579  31.962  59.625  1.00  0.00     0.167 C 
ENDROOT
BRANCH   1  14
HETATM   14  C   UNL     1       5.162  33.729  61.181  1.00  0.00     0.048 A 
HETATM   15  C   UNL     1       4.974  34.915  61.963  1.00  0.00     0.001 A 
HETATM   16  C   UNL     1       3.864  35.757  61.685  1.00  0.00    -0.024 A 
HETATM   17  C   UNL     1       5.849  35.339  62.994  1.00  0.00     0.014 A 
HETATM   18  C   UNL     1       3.624  36.900  62.466  1.00  0.00     0.012 A 
HETATM   19  C   UNL     1       3.006  35.459  60.622  1.00  0.00     0.012 A 
HETATM   20  C   UNL     1       4.480  37.254  63.504  1.00  0.00     0.001 A 
HETATM   21  C   UNL     1       5.602  36.482  63.761  1.00  0.00     0.001 A 
HETATM   22  C   UNL     1       3.226  34.343  59.825  1.00  0.00     0.003 A 
HETATM   23  C   UNL     1       4.289  33.488  60.105  1.00  0.00     0.030 A 
ENDBRANCH   1  14
TORSDOF 1
ENDMDL
