MODEL 1
REMARK VINA RESULT:     -10.2      0.000      0.000
REMARK  9 active torsions:
REMARK  status: ('A' for Active; 'I' for Inactive)
REMARK    1  A    between atoms: C_2  and  N_3 
REMARK    2  A    between atoms: C_2  and  C_11 
REMARK    3  A    between atoms: N_3  and  C_4 
REMARK    4  A    between atoms: N_12  and  C_13 
REMARK    5  A    between atoms: C_19  and  S_20 
REMARK    6  A    between atoms: S_20  and  C_21 
REMARK    7  A    between atoms: C_21  and  C_22 
REMARK       I    between atoms: C_22  and  N_23 
REMARK    8  A    between atoms: N_23  and  C_24 
REMARK    9  A    between atoms: C_26  and  N_27 
REMARK       I    between atoms: N_27  and  C_28 
ROOT
HETATM    1  C   UNL     1       7.552  30.378  58.846  1.00  0.00     0.158 A 
HETATM    2  N   UNL     1       6.344  30.412  58.150  1.00  0.00    -0.274 N 
HETATM    3  C   UNL     1       6.264  29.154  57.574  1.00  0.00     0.196 A 
HETATM    4  N   UNL     1       7.367  28.476  57.805  1.00  0.00    -0.122 NA
HETATM    5  N   UNL     1       8.175  29.240  58.591  1.00  0.00    -0.131 NA
ENDROOT
BRANCH   3   6
HETATM    6  S   UNL     1       5.000  28.598  56.523  1.00  0.00    -0.080 SA
BRANCH   6   7
HETATM    7  C   UNL     1       5.627  29.107  54.895  1.00  0.00     0.185 C 
BRANCH   7   8
HETATM    8  C   UNL     1       6.621  28.085  54.366  1.00  0.00     0.231 C 
HETATM    9  N   UNL     1       6.047  26.854  54.090  1.00  0.00    -0.326 N 
HETATM   10  H   UNL     1       5.060  26.755  54.332  1.00  0.00     0.169 HD
HETATM   11  O   UNL     1       7.804  28.382  54.223  1.00  0.00    -0.272 OA
BRANCH   9  12
HETATM   12  C   UNL     1       6.687  25.687  53.623  1.00  0.00     0.036 A 
HETATM   13  C   UNL     1       6.753  24.598  54.511  1.00  0.00     0.059 A 
HETATM   14  C   UNL     1       7.375  23.402  54.144  1.00  0.00     0.036 A 
HETATM   15  C   UNL     1       7.958  23.317  52.873  1.00  0.00     0.029 A 
HETATM   16  C   UNL     1       7.894  24.389  51.983  1.00  0.00     0.004 A 
HETATM   17  C   UNL     1       7.255  25.569  52.356  1.00  0.00     0.029 A 
BRANCH  14  18
HETATM   18  N   UNL     1       7.506  22.263  54.959  1.00  0.00    -0.327 N 
HETATM   19  C   UNL     1       8.032  22.034  56.194  1.00  0.00     0.218 C 
HETATM   20  C   UNL     1       8.513  23.150  57.071  1.00  0.00     0.117 C 
HETATM   21  O   UNL     1       8.081  20.865  56.594  1.00  0.00    -0.274 OA
HETATM   22  H   UNL     1       7.135  21.400  54.576  1.00  0.00     0.169 HD
ENDBRANCH  14  18
ENDBRANCH   9  12
ENDBRANCH   7   8
ENDBRANCH   6   7
ENDBRANCH   3   6
BRANCH   2  23
HETATM   23  C   UNL     1       5.438  31.498  58.043  1.00  0.00     0.043 A 
HETATM   24  C   UNL     1       5.452  32.305  56.896  1.00  0.00     0.030 A 
HETATM   25  C   UNL     1       4.547  33.361  56.773  1.00  0.00     0.002 A 
HETATM   26  C   UNL     1       3.626  33.613  57.787  1.00  0.00     0.000 A 
HETATM   27  C   UNL     1       3.606  32.812  58.927  1.00  0.00     0.002 A 
HETATM   28  C   UNL     1       4.508  31.753  59.057  1.00  0.00     0.030 A 
ENDBRANCH   2  23
BRANCH   1  29
HETATM   29  C   UNL     1       7.962  31.385  59.897  1.00  0.00     0.150 C 
HETATM   30  C   UNL     1       9.420  31.818  59.684  1.00  0.00     0.040 C 
BRANCH  29  31
HETATM   31  N   UNL     1       7.820  30.831  61.250  1.00  0.00    -0.379 N 
HETATM   32  H   UNL     1       8.612  30.240  61.496  1.00  0.00     0.160 HD
BRANCH  31  33
HETATM   33  C   UNL     1       7.363  31.581  62.331  1.00  0.00     0.028 A 
HETATM   34  C   UNL     1       8.195  32.328  63.173  1.00  0.00     0.030 A 
HETATM   35  C   UNL     1       7.668  33.117  64.205  1.00  0.00     0.021 A 
HETATM   36  C   UNL     1       6.291  33.191  64.387  1.00  0.00     0.011 A 
HETATM   37 BR   UNL     1       5.579  34.253  65.776  1.00  0.00    -0.051 Br
HETATM   38  C   UNL     1       5.440  32.496  63.538  1.00  0.00     0.021 A 
HETATM   39  C   UNL     1       5.977  31.711  62.512  1.00  0.00     0.030 A 
ENDBRANCH  31  33
ENDBRANCH  29  31
ENDBRANCH   1  29
TORSDOF 9
ENDMDL
MODEL 2
REMARK VINA RESULT:     -10.1      4.699     10.630
REMARK  9 active torsions:
REMARK  status: ('A' for Active; 'I' for Inactive)
REMARK    1  A    between atoms: C_2  and  N_3 
REMARK    2  A    between atoms: C_2  and  C_11 
REMARK    3  A    between atoms: N_3  and  C_4 
REMARK    4  A    between atoms: N_12  and  C_13 
REMARK    5  A    between atoms: C_19  and  S_20 
REMARK    6  A    between atoms: S_20  and  C_21 
REMARK    7  A    between atoms: C_21  and  C_22 
REMARK       I    between atoms: C_22  and  N_23 
REMARK    8  A    between atoms: N_23  and  C_24 
REMARK    9  A    between atoms: C_26  and  N_27 
REMARK       I    between atoms: N_27  and  C_28 
ROOT
HETATM    1  C   UNL     1       5.890  27.751  56.388  1.00  0.00     0.158 A 
HETATM    2  N   UNL     1       6.452  28.996  56.670  1.00  0.00    -0.274 N 
HETATM    3  C   UNL     1       5.356  29.839  56.747  1.00  0.00     0.196 A 
HETATM    4  N   UNL     1       4.258  29.190  56.427  1.00  0.00    -0.122 NA
HETATM    5  N   UNL     1       4.589  27.890  56.194  1.00  0.00    -0.131 NA
ENDROOT
BRANCH   3   6
HETATM    6  S   UNL     1       5.410  31.553  57.019  1.00  0.00    -0.080 SA
BRANCH   6   7
HETATM    7  C   UNL     1       4.679  31.682  58.678  1.00  0.00     0.185 C 
BRANCH   7   8
HETATM    8  C   UNL     1       5.717  32.167  59.678  1.00  0.00     0.231 C 
HETATM    9  N   UNL     1       5.345  31.962  60.997  1.00  0.00    -0.326 N 
HETATM   10  H   UNL     1       4.410  31.581  61.145  1.00  0.00     0.169 HD
HETATM   11  O   UNL     1       6.762  32.684  59.291  1.00  0.00    -0.272 OA
BRANCH   9  12
HETATM   12  C   UNL     1       6.055  32.322  62.161  1.00  0.00     0.036 A 
HETATM   13  C   UNL     1       5.293  32.715  63.277  1.00  0.00     0.059 A 
HETATM   14  C   UNL     1       5.905  33.100  64.473  1.00  0.00     0.036 A 
HETATM   15  C   UNL     1       7.304  33.109  64.531  1.00  0.00     0.029 A 
HETATM   16  C   UNL     1       8.069  32.716  63.434  1.00  0.00     0.004 A 
HETATM   17  C   UNL     1       7.446  32.319  62.253  1.00  0.00     0.029 A 
BRANCH  14  18
HETATM   18  N   UNL     1       5.236  33.520  65.637  1.00  0.00    -0.327 N 
HETATM   19  C   UNL     1       4.667  34.692  66.034  1.00  0.00     0.218 C 
HETATM   20  C   UNL     1       4.523  35.860  65.105  1.00  0.00     0.117 C 
HETATM   21  O   UNL     1       4.239  34.763  67.191  1.00  0.00    -0.274 OA
HETATM   22  H   UNL     1       5.135  32.822  66.365  1.00  0.00     0.169 HD
ENDBRANCH  14  18
ENDBRANCH   9  12
ENDBRANCH   7   8
ENDBRANCH   6   7
ENDBRANCH   3   6
BRANCH   2  23
HETATM   23  C   UNL     1       7.828  29.311  56.813  1.00  0.00     0.043 A 
HETATM   24  C   UNL     1       8.678  29.234  55.701  1.00  0.00     0.030 A 
HETATM   25  C   UNL     1      10.028  29.565  55.828  1.00  0.00     0.002 A 
HETATM   26  C   UNL     1      10.533  29.977  57.060  1.00  0.00     0.000 A 
HETATM   27  C   UNL     1       9.691  30.059  58.167  1.00  0.00     0.002 A 
HETATM   28  C   UNL     1       8.339  29.730  58.047  1.00  0.00     0.030 A 
ENDBRANCH   2  23
BRANCH   1  29
HETATM   29  C   UNL     1       6.622  26.434  56.511  1.00  0.00     0.150 C 
HETATM   30  C   UNL     1       7.567  26.459  57.722  1.00  0.00     0.040 C 
BRANCH  29  31
HETATM   31  N   UNL     1       7.402  26.143  55.301  1.00  0.00    -0.379 N 
HETATM   32  H   UNL     1       8.241  26.719  55.251  1.00  0.00     0.160 HD
BRANCH  31  33
HETATM   33  C   UNL     1       7.621  24.849  54.834  1.00  0.00     0.028 A 
HETATM   34  C   UNL     1       7.469  23.698  55.616  1.00  0.00     0.030 A 
HETATM   35  C   UNL     1       7.639  22.419  55.068  1.00  0.00     0.021 A 
HETATM   36  C   UNL     1       7.933  22.276  53.717  1.00  0.00     0.011 A 
HETATM   37 BR   UNL     1       8.162  20.553  52.978  1.00  0.00    -0.051 Br
HETATM   38  C   UNL     1       8.045  23.399  52.907  1.00  0.00     0.021 A 
HETATM   39  C   UNL     1       7.875  24.671  53.464  1.00  0.00     0.030 A 
ENDBRANCH  31  33
ENDBRANCH  29  31
ENDBRANCH   1  29
TORSDOF 9
ENDMDL
MODEL 3
REMARK VINA RESULT:     -10.1      4.442     10.397
REMARK  9 active torsions:
REMARK  status: ('A' for Active; 'I' for Inactive)
REMARK    1  A    between atoms: C_2  and  N_3 
REMARK    2  A    between atoms: C_2  and  C_11 
REMARK    3  A    between atoms: N_3  and  C_4 
REMARK    4  A    between atoms: N_12  and  C_13 
REMARK    5  A    between atoms: C_19  and  S_20 
REMARK    6  A    between atoms: S_20  and  C_21 
REMARK    7  A    between atoms: C_21  and  C_22 
REMARK       I    between atoms: C_22  and  N_23 
REMARK    8  A    between atoms: N_23  and  C_24 
REMARK    9  A    between atoms: C_26  and  N_27 
REMARK       I    between atoms: N_27  and  C_28 
ROOT
HETATM    1  C   UNL     1       6.728  27.447  56.903  1.00  0.00     0.158 A 
HETATM    2  N   UNL     1       6.467  28.802  57.106  1.00  0.00    -0.274 N 
HETATM    3  C   UNL     1       7.522  29.222  57.899  1.00  0.00     0.196 A 
HETATM    4  N   UNL     1       8.276  28.199  58.235  1.00  0.00    -0.122 NA
HETATM    5  N   UNL     1       7.779  27.089  57.622  1.00  0.00    -0.131 NA
ENDROOT
BRANCH   3   6
HETATM    6  S   UNL     1       7.734  30.820  58.545  1.00  0.00    -0.080 SA
BRANCH   6   7
HETATM    7  C   UNL     1       9.170  30.587  59.633  1.00  0.00     0.185 C 
BRANCH   7   8
HETATM    8  C   UNL     1       8.788  30.858  61.080  1.00  0.00     0.231 C 
HETATM    9  N   UNL     1       7.856  31.874  61.221  1.00  0.00    -0.326 N 
HETATM   10  H   UNL     1       7.590  32.360  60.363  1.00  0.00     0.169 HD
HETATM   11  O   UNL     1       9.294  30.207  61.991  1.00  0.00    -0.272 OA
BRANCH   9  12
HETATM   12  C   UNL     1       7.319  32.394  62.416  1.00  0.00     0.036 A 
HETATM   13  C   UNL     1       5.917  32.480  62.501  1.00  0.00     0.059 A 
HETATM   14  C   UNL     1       5.291  32.990  63.641  1.00  0.00     0.036 A 
HETATM   15  C   UNL     1       6.093  33.441  64.696  1.00  0.00     0.029 A 
HETATM   16  C   UNL     1       7.483  33.357  64.625  1.00  0.00     0.004 A 
HETATM   17  C   UNL     1       8.094  32.829  63.490  1.00  0.00     0.029 A 
BRANCH  14  18
HETATM   18  N   UNL     1       3.902  33.129  63.819  1.00  0.00    -0.327 N 
HETATM   19  C   UNL     1       3.006  34.120  63.557  1.00  0.00     0.218 C 
HETATM   20  C   UNL     1       3.388  35.358  62.804  1.00  0.00     0.117 C 
HETATM   21  O   UNL     1       1.841  33.961  63.938  1.00  0.00    -0.274 OA
HETATM   22  H   UNL     1       3.428  32.333  64.231  1.00  0.00     0.169 HD
ENDBRANCH  14  18
ENDBRANCH   9  12
ENDBRANCH   7   8
ENDBRANCH   6   7
ENDBRANCH   3   6
BRANCH   2  23
HETATM   23  C   UNL     1       5.360  29.551  56.629  1.00  0.00     0.043 A 
HETATM   24  C   UNL     1       5.331  29.975  55.293  1.00  0.00     0.030 A 
HETATM   25  C   UNL     1       4.235  30.692  54.811  1.00  0.00     0.002 A 
HETATM   26  C   UNL     1       3.166  30.985  55.654  1.00  0.00     0.000 A 
HETATM   27  C   UNL     1       3.189  30.562  56.982  1.00  0.00     0.002 A 
HETATM   28  C   UNL     1       4.282  29.843  57.472  1.00  0.00     0.030 A 
ENDBRANCH   2  23
BRANCH   1  29
HETATM   29  C   UNL     1       6.052  26.594  55.854  1.00  0.00     0.150 C 
HETATM   30  C   UNL     1       5.509  25.301  56.482  1.00  0.00     0.040 C 
BRANCH  29  31
HETATM   31  N   UNL     1       6.982  26.246  54.771  1.00  0.00    -0.379 N 
HETATM   32  H   UNL     1       7.809  26.840  54.784  1.00  0.00     0.160 HD
BRANCH  31  33
HETATM   33  C   UNL     1       7.282  24.930  54.424  1.00  0.00     0.028 A 
HETATM   34  C   UNL     1       6.889  24.326  53.224  1.00  0.00     0.030 A 
HETATM   35  C   UNL     1       7.280  23.020  52.904  1.00  0.00     0.021 A 
HETATM   36  C   UNL     1       8.101  22.309  53.773  1.00  0.00     0.011 A 
HETATM   37 BR   UNL     1       8.630  20.548  53.343  1.00  0.00    -0.051 Br
HETATM   38  C   UNL     1       8.544  22.899  54.949  1.00  0.00     0.021 A 
HETATM   39  C   UNL     1       8.146  24.204  55.260  1.00  0.00     0.030 A 
ENDBRANCH  31  33
ENDBRANCH  29  31
ENDBRANCH   1  29
TORSDOF 9
ENDMDL
MODEL 4
REMARK VINA RESULT:     -10.0      4.477      9.964
REMARK  9 active torsions:
REMARK  status: ('A' for Active; 'I' for Inactive)
REMARK    1  A    between atoms: C_2  and  N_3 
REMARK    2  A    between atoms: C_2  and  C_11 
REMARK    3  A    between atoms: N_3  and  C_4 
REMARK    4  A    between atoms: N_12  and  C_13 
REMARK    5  A    between atoms: C_19  and  S_20 
REMARK    6  A    between atoms: S_20  and  C_21 
REMARK    7  A    between atoms: C_21  and  C_22 
REMARK       I    between atoms: C_22  and  N_23 
REMARK    8  A    between atoms: N_23  and  C_24 
REMARK    9  A    between atoms: C_26  and  N_27 
REMARK       I    between atoms: N_27  and  C_28 
ROOT
HETATM    1  C   UNL     1       6.942  26.637  56.998  1.00  0.00     0.158 A 
HETATM    2  N   UNL     1       7.221  27.718  56.161  1.00  0.00    -0.274 N 
HETATM    3  C   UNL     1       8.269  28.363  56.799  1.00  0.00     0.196 A 
HETATM    4  N   UNL     1       8.516  27.794  57.959  1.00  0.00    -0.122 NA
HETATM    5  N   UNL     1       7.684  26.723  58.089  1.00  0.00    -0.131 NA
ENDROOT
BRANCH   3   6
HETATM    6  S   UNL     1       9.030  29.831  56.272  1.00  0.00    -0.080 SA
BRANCH   6   7
HETATM    7  C   UNL     1      10.308  30.057  57.543  1.00  0.00     0.185 C 
BRANCH   7   8
HETATM    8  C   UNL     1       9.879  31.119  58.544  1.00  0.00     0.231 C 
HETATM    9  N   UNL     1       9.082  30.622  59.562  1.00  0.00    -0.326 N 
HETATM   10  H   UNL     1       8.823  29.637  59.490  1.00  0.00     0.169 HD
HETATM   11  O   UNL     1      10.235  32.286  58.404  1.00  0.00    -0.272 OA
BRANCH   9  12
HETATM   12  C   UNL     1       8.491  31.338  60.624  1.00  0.00     0.036 A 
HETATM   13  C   UNL     1       7.350  32.102  60.321  1.00  0.00     0.059 A 
HETATM   14  C   UNL     1       6.700  32.853  61.303  1.00  0.00     0.036 A 
HETATM   15  C   UNL     1       7.225  32.849  62.601  1.00  0.00     0.029 A 
HETATM   16  C   UNL     1       8.353  32.092  62.915  1.00  0.00     0.004 A 
HETATM   17  C   UNL     1       8.981  31.333  61.929  1.00  0.00     0.029 A 
BRANCH  14  18
HETATM   18  N   UNL     1       5.564  33.658  61.100  1.00  0.00    -0.327 N 
HETATM   19  C   UNL     1       4.225  33.414  61.044  1.00  0.00     0.218 C 
HETATM   20  C   UNL     1       3.648  32.069  61.368  1.00  0.00     0.117 C 
HETATM   21  O   UNL     1       3.479  34.352  60.741  1.00  0.00    -0.274 OA
HETATM   22  H   UNL     1       5.741  34.647  60.963  1.00  0.00     0.169 HD
ENDBRANCH  14  18
ENDBRANCH   9  12
ENDBRANCH   7   8
ENDBRANCH   6   7
ENDBRANCH   3   6
BRANCH   2  23
HETATM   23  C   UNL     1       6.558  28.075  54.959  1.00  0.00     0.043 A 
HETATM   24  C   UNL     1       7.028  27.582  53.733  1.00  0.00     0.030 A 
HETATM   25  C   UNL     1       6.367  27.911  52.548  1.00  0.00     0.002 A 
HETATM   26  C   UNL     1       5.238  28.726  52.581  1.00  0.00     0.000 A 
HETATM   27  C   UNL     1       4.766  29.215  53.797  1.00  0.00     0.002 A 
HETATM   28  C   UNL     1       5.421  28.891  54.987  1.00  0.00     0.030 A 
ENDBRANCH   2  23
BRANCH   1  29
HETATM   29  C   UNL     1       6.095  25.448  56.604  1.00  0.00     0.150 C 
HETATM   30  C   UNL     1       4.771  25.453  57.383  1.00  0.00     0.040 C 
BRANCH  29  31
HETATM   31  N   UNL     1       6.798  24.185  56.864  1.00  0.00    -0.379 N 
HETATM   32  H   UNL     1       6.414  23.704  57.675  1.00  0.00     0.160 HD
BRANCH  31  33
HETATM   33  C   UNL     1       7.167  23.302  55.852  1.00  0.00     0.028 A 
HETATM   34  C   UNL     1       7.224  23.643  54.495  1.00  0.00     0.030 A 
HETATM   35  C   UNL     1       7.668  22.728  53.532  1.00  0.00     0.021 A 
HETATM   36  C   UNL     1       8.092  21.462  53.921  1.00  0.00     0.011 A 
HETATM   37 BR   UNL     1       8.691  20.227  52.624  1.00  0.00    -0.051 Br
HETATM   38  C   UNL     1       8.090  21.111  55.265  1.00  0.00     0.021 A 
HETATM   39  C   UNL     1       7.643  22.033  56.219  1.00  0.00     0.030 A 
ENDBRANCH  31  33
ENDBRANCH  29  31
ENDBRANCH   1  29
TORSDOF 9
ENDMDL
MODEL 5
REMARK VINA RESULT:      -9.5      4.123      9.661
REMARK  9 active torsions:
REMARK  status: ('A' for Active; 'I' for Inactive)
REMARK    1  A    between atoms: C_2  and  N_3 
REMARK    2  A    between atoms: C_2  and  C_11 
REMARK    3  A    between atoms: N_3  and  C_4 
REMARK    4  A    between atoms: N_12  and  C_13 
REMARK    5  A    between atoms: C_19  and  S_20 
REMARK    6  A    between atoms: S_20  and  C_21 
REMARK    7  A    between atoms: C_21  and  C_22 
REMARK       I    between atoms: C_22  and  N_23 
REMARK    8  A    between atoms: N_23  and  C_24 
REMARK    9  A    between atoms: C_26  and  N_27 
REMARK       I    between atoms: N_27  and  C_28 
ROOT
HETATM    1  C   UNL     1       5.073  27.980  53.986  1.00  0.00     0.158 A 
HETATM    2  N   UNL     1       5.432  28.487  55.235  1.00  0.00    -0.274 N 
HETATM    3  C   UNL     1       4.286  29.138  55.665  1.00  0.00     0.196 A 
HETATM    4  N   UNL     1       3.372  29.122  54.720  1.00  0.00    -0.122 NA
HETATM    5  N   UNL     1       3.863  28.408  53.669  1.00  0.00    -0.131 NA
ENDROOT
BRANCH   3   6
HETATM    6  S   UNL     1       4.120  30.031  57.143  1.00  0.00    -0.080 SA
BRANCH   6   7
HETATM    7  C   UNL     1       4.642  31.693  56.627  1.00  0.00     0.185 C 
BRANCH   7   8
HETATM    8  C   UNL     1       5.608  32.285  57.642  1.00  0.00     0.231 C 
HETATM    9  N   UNL     1       6.457  31.345  58.204  1.00  0.00    -0.326 N 
HETATM   10  H   UNL     1       6.297  30.375  57.930  1.00  0.00     0.169 HD
HETATM   11  O   UNL     1       5.584  33.486  57.898  1.00  0.00    -0.272 OA
BRANCH   9  12
HETATM   12  C   UNL     1       7.440  31.552  59.194  1.00  0.00     0.036 A 
HETATM   13  C   UNL     1       6.986  31.758  60.509  1.00  0.00     0.059 A 
HETATM   14  C   UNL     1       7.883  31.981  61.557  1.00  0.00     0.036 A 
HETATM   15  C   UNL     1       9.252  32.019  61.266  1.00  0.00     0.029 A 
HETATM   16  C   UNL     1       9.713  31.811  59.967  1.00  0.00     0.004 A 
HETATM   17  C   UNL     1       8.809  31.572  58.934  1.00  0.00     0.029 A 
BRANCH  14  18
HETATM   18  N   UNL     1       7.532  32.211  62.900  1.00  0.00    -0.327 N 
HETATM   19  C   UNL     1       6.904  33.225  63.558  1.00  0.00     0.218 C 
HETATM   20  C   UNL     1       6.274  34.374  62.830  1.00  0.00     0.117 C 
HETATM   21  O   UNL     1       6.840  33.162  64.791  1.00  0.00    -0.274 OA
HETATM   22  H   UNL     1       7.785  31.479  63.554  1.00  0.00     0.169 HD
ENDBRANCH  14  18
ENDBRANCH   9  12
ENDBRANCH   7   8
ENDBRANCH   6   7
ENDBRANCH   3   6
BRANCH   2  23
HETATM   23  C   UNL     1       6.689  28.379  55.884  1.00  0.00     0.043 A 
HETATM   24  C   UNL     1       7.730  29.248  55.533  1.00  0.00     0.030 A 
HETATM   25  C   UNL     1       8.962  29.163  56.183  1.00  0.00     0.002 A 
HETATM   26  C   UNL     1       9.159  28.216  57.186  1.00  0.00     0.000 A 
HETATM   27  C   UNL     1       8.125  27.352  57.541  1.00  0.00     0.002 A 
HETATM   28  C   UNL     1       6.889  27.431  56.895  1.00  0.00     0.030 A 
ENDBRANCH   2  23
BRANCH   1  29
HETATM   29  C   UNL     1       5.856  26.928  53.234  1.00  0.00     0.150 C 
HETATM   30  C   UNL     1       5.682  27.112  51.719  1.00  0.00     0.040 C 
BRANCH  29  31
HETATM   31  N   UNL     1       5.421  25.574  53.604  1.00  0.00    -0.379 N 
HETATM   32  H   UNL     1       4.733  25.211  52.948  1.00  0.00     0.160 HD
BRANCH  31  33
HETATM   33  C   UNL     1       6.303  24.590  54.044  1.00  0.00     0.028 A 
HETATM   34  C   UNL     1       6.560  24.313  55.392  1.00  0.00     0.030 A 
HETATM   35  C   UNL     1       7.408  23.264  55.772  1.00  0.00     0.021 A 
HETATM   36  C   UNL     1       7.987  22.455  54.801  1.00  0.00     0.011 A 
HETATM   37 BR   UNL     1       9.129  21.040  55.310  1.00  0.00    -0.051 Br
HETATM   38  C   UNL     1       7.714  22.677  53.457  1.00  0.00     0.021 A 
HETATM   39  C   UNL     1       6.867  23.728  53.090  1.00  0.00     0.030 A 
ENDBRANCH  31  33
ENDBRANCH  29  31
ENDBRANCH   1  29
TORSDOF 9
ENDMDL
MODEL 6
REMARK VINA RESULT:      -9.5      4.737     10.766
REMARK  9 active torsions:
REMARK  status: ('A' for Active; 'I' for Inactive)
REMARK    1  A    between atoms: C_2  and  N_3 
REMARK    2  A    between atoms: C_2  and  C_11 
REMARK    3  A    between atoms: N_3  and  C_4 
REMARK    4  A    between atoms: N_12  and  C_13 
REMARK    5  A    between atoms: C_19  and  S_20 
REMARK    6  A    between atoms: S_20  and  C_21 
REMARK    7  A    between atoms: C_21  and  C_22 
REMARK       I    between atoms: C_22  and  N_23 
REMARK    8  A    between atoms: N_23  and  C_24 
REMARK    9  A    between atoms: C_26  and  N_27 
REMARK       I    between atoms: N_27  and  C_28 
ROOT
HETATM    1  C   UNL     1       6.696  27.535  56.968  1.00  0.00     0.158 A 
HETATM    2  N   UNL     1       6.402  28.881  57.184  1.00  0.00    -0.274 N 
HETATM    3  C   UNL     1       7.423  29.309  58.018  1.00  0.00     0.196 A 
HETATM    4  N   UNL     1       8.186  28.295  58.361  1.00  0.00    -0.122 NA
HETATM    5  N   UNL     1       7.730  27.186  57.715  1.00  0.00    -0.131 NA
ENDROOT
BRANCH   3   6
HETATM    6  S   UNL     1       7.582  30.899  58.695  1.00  0.00    -0.080 SA
BRANCH   6   7
HETATM    7  C   UNL     1       8.545  30.562  60.198  1.00  0.00     0.185 C 
BRANCH   7   8
HETATM    8  C   UNL     1       8.481  31.749  61.147  1.00  0.00     0.231 C 
HETATM    9  N   UNL     1       7.187  32.113  61.483  1.00  0.00    -0.326 N 
HETATM   10  H   UNL     1       6.440  31.599  61.015  1.00  0.00     0.169 HD
HETATM   11  O   UNL     1       9.512  32.291  61.537  1.00  0.00    -0.272 OA
BRANCH   9  12
HETATM   12  C   UNL     1       6.777  33.182  62.307  1.00  0.00     0.036 A 
HETATM   13  C   UNL     1       7.147  33.121  63.663  1.00  0.00     0.059 A 
HETATM   14  C   UNL     1       6.780  34.127  64.560  1.00  0.00     0.036 A 
HETATM   15  C   UNL     1       6.009  35.195  64.083  1.00  0.00     0.029 A 
HETATM   16  C   UNL     1       5.641  35.269  62.741  1.00  0.00     0.004 A 
HETATM   17  C   UNL     1       6.029  34.267  61.853  1.00  0.00     0.029 A 
BRANCH  14  18
HETATM   18  N   UNL     1       7.088  34.153  65.932  1.00  0.00    -0.327 N 
HETATM   19  C   UNL     1       6.344  34.196  67.072  1.00  0.00     0.218 C 
HETATM   20  C   UNL     1       4.850  34.073  67.050  1.00  0.00     0.117 C 
HETATM   21  O   UNL     1       6.940  34.315  68.147  1.00  0.00    -0.274 OA
HETATM   22  H   UNL     1       8.075  34.135  66.164  1.00  0.00     0.169 HD
ENDBRANCH  14  18
ENDBRANCH   9  12
ENDBRANCH   7   8
ENDBRANCH   6   7
ENDBRANCH   3   6
BRANCH   2  23
HETATM   23  C   UNL     1       5.296  29.616  56.684  1.00  0.00     0.043 A 
HETATM   24  C   UNL     1       4.172  29.821  57.496  1.00  0.00     0.030 A 
HETATM   25  C   UNL     1       3.090  30.563  57.020  1.00  0.00     0.002 A 
HETATM   26  C   UNL     1       3.126  31.105  55.737  1.00  0.00     0.000 A 
HETATM   27  C   UNL     1       4.243  30.907  54.927  1.00  0.00     0.002 A 
HETATM   28  C   UNL     1       5.330  30.166  55.397  1.00  0.00     0.030 A 
ENDBRANCH   2  23
BRANCH   1  29
HETATM   29  C   UNL     1       6.071  26.687  55.884  1.00  0.00     0.150 C 
HETATM   30  C   UNL     1       5.488  25.398  56.482  1.00  0.00     0.040 C 
BRANCH  29  31
HETATM   31  N   UNL     1       7.055  26.333  54.852  1.00  0.00    -0.379 N 
HETATM   32  H   UNL     1       7.908  26.881  54.946  1.00  0.00     0.160 HD
BRANCH  31  33
HETATM   33  C   UNL     1       7.312  25.018  54.470  1.00  0.00     0.028 A 
HETATM   34  C   UNL     1       6.883  24.455  53.262  1.00  0.00     0.030 A 
HETATM   35  C   UNL     1       7.231  23.146  52.904  1.00  0.00     0.021 A 
HETATM   36  C   UNL     1       8.044  22.391  53.743  1.00  0.00     0.011 A 
HETATM   37 BR   UNL     1       8.514  20.626  53.263  1.00  0.00    -0.051 Br
HETATM   38  C   UNL     1       8.521  22.939  54.927  1.00  0.00     0.021 A 
HETATM   39  C   UNL     1       8.166  24.247  55.274  1.00  0.00     0.030 A 
ENDBRANCH  31  33
ENDBRANCH  29  31
ENDBRANCH   1  29
TORSDOF 9
ENDMDL
MODEL 7
REMARK VINA RESULT:      -9.5      4.224     10.268
REMARK  9 active torsions:
REMARK  status: ('A' for Active; 'I' for Inactive)
REMARK    1  A    between atoms: C_2  and  N_3 
REMARK    2  A    between atoms: C_2  and  C_11 
REMARK    3  A    between atoms: N_3  and  C_4 
REMARK    4  A    between atoms: N_12  and  C_13 
REMARK    5  A    between atoms: C_19  and  S_20 
REMARK    6  A    between atoms: S_20  and  C_21 
REMARK    7  A    between atoms: C_21  and  C_22 
REMARK       I    between atoms: C_22  and  N_23 
REMARK    8  A    between atoms: N_23  and  C_24 
REMARK    9  A    between atoms: C_26  and  N_27 
REMARK       I    between atoms: N_27  and  C_28 
ROOT
HETATM    1  C   UNL     1       5.032  28.976  53.548  1.00  0.00     0.158 A 
HETATM    2  N   UNL     1       5.249  29.072  54.923  1.00  0.00    -0.274 N 
HETATM    3  C   UNL     1       4.232  29.907  55.356  1.00  0.00     0.196 A 
HETATM    4  N   UNL     1       3.546  30.360  54.330  1.00  0.00    -0.122 NA
HETATM    5  N   UNL     1       4.048  29.787  53.201  1.00  0.00    -0.131 NA
ENDROOT
BRANCH   3   6
HETATM    6  S   UNL     1       3.997  30.460  56.984  1.00  0.00    -0.080 SA
BRANCH   6   7
HETATM    7  C   UNL     1       5.370  31.635  57.173  1.00  0.00     0.185 C 
BRANCH   7   8
HETATM    8  C   UNL     1       6.145  31.345  58.450  1.00  0.00     0.231 C 
HETATM    9  N   UNL     1       5.929  32.283  59.447  1.00  0.00    -0.326 N 
HETATM   10  H   UNL     1       5.343  33.079  59.195  1.00  0.00     0.169 HD
HETATM   11  O   UNL     1       6.876  30.361  58.526  1.00  0.00    -0.272 OA
BRANCH   9  12
HETATM   12  C   UNL     1       6.513  32.330  60.730  1.00  0.00     0.036 A 
HETATM   13  C   UNL     1       5.640  32.483  61.823  1.00  0.00     0.059 A 
HETATM   14  C   UNL     1       6.123  32.549  63.132  1.00  0.00     0.036 A 
HETATM   15  C   UNL     1       7.507  32.484  63.335  1.00  0.00     0.029 A 
HETATM   16  C   UNL     1       8.381  32.328  62.260  1.00  0.00     0.004 A 
HETATM   17  C   UNL     1       7.885  32.245  60.961  1.00  0.00     0.029 A 
BRANCH  14  18
HETATM   18  N   UNL     1       5.337  32.714  64.287  1.00  0.00    -0.327 N 
HETATM   19  C   UNL     1       4.810  33.792  64.932  1.00  0.00     0.218 C 
HETATM   20  C   UNL     1       4.883  35.174  64.357  1.00  0.00     0.117 C 
HETATM   21  O   UNL     1       4.237  33.597  66.010  1.00  0.00    -0.274 OA
HETATM   22  H   UNL     1       5.086  31.862  64.776  1.00  0.00     0.169 HD
ENDBRANCH  14  18
ENDBRANCH   9  12
ENDBRANCH   7   8
ENDBRANCH   6   7
ENDBRANCH   3   6
BRANCH   2  23
HETATM   23  C   UNL     1       6.290  28.472  55.678  1.00  0.00     0.043 A 
HETATM   24  C   UNL     1       7.613  28.901  55.503  1.00  0.00     0.030 A 
HETATM   25  C   UNL     1       8.639  28.332  56.259  1.00  0.00     0.002 A 
HETATM   26  C   UNL     1       8.350  27.340  57.193  1.00  0.00     0.000 A 
HETATM   27  C   UNL     1       7.036  26.913  57.374  1.00  0.00     0.002 A 
HETATM   28  C   UNL     1       6.004  27.478  56.621  1.00  0.00     0.030 A 
ENDBRANCH   2  23
BRANCH   1  29
HETATM   29  C   UNL     1       5.672  27.940  52.652  1.00  0.00     0.150 C 
HETATM   30  C   UNL     1       5.356  28.238  51.178  1.00  0.00     0.040 C 
BRANCH  29  31
HETATM   31  N   UNL     1       5.200  26.588  52.979  1.00  0.00    -0.379 N 
HETATM   32  H   UNL     1       4.376  26.339  52.435  1.00  0.00     0.160 HD
BRANCH  31  33
HETATM   33  C   UNL     1       6.061  25.508  53.159  1.00  0.00     0.028 A 
HETATM   34  C   UNL     1       7.064  25.146  52.253  1.00  0.00     0.030 A 
HETATM   35  C   UNL     1       7.943  24.089  52.524  1.00  0.00     0.021 A 
HETATM   36  C   UNL     1       7.847  23.397  53.726  1.00  0.00     0.011 A 
HETATM   37 BR   UNL     1       9.030  21.972  54.093  1.00  0.00    -0.051 Br
HETATM   38  C   UNL     1       6.890  23.764  54.664  1.00  0.00     0.021 A 
HETATM   39  C   UNL     1       6.017  24.820  54.383  1.00  0.00     0.030 A 
ENDBRANCH  31  33
ENDBRANCH  29  31
ENDBRANCH   1  29
TORSDOF 9
ENDMDL
MODEL 8
REMARK VINA RESULT:      -9.2      5.237      9.633
REMARK  9 active torsions:
REMARK  status: ('A' for Active; 'I' for Inactive)
REMARK    1  A    between atoms: C_2  and  N_3 
REMARK    2  A    between atoms: C_2  and  C_11 
REMARK    3  A    between atoms: N_3  and  C_4 
REMARK    4  A    between atoms: N_12  and  C_13 
REMARK    5  A    between atoms: C_19  and  S_20 
REMARK    6  A    between atoms: S_20  and  C_21 
REMARK    7  A    between atoms: C_21  and  C_22 
REMARK       I    between atoms: C_22  and  N_23 
REMARK    8  A    between atoms: N_23  and  C_24 
REMARK    9  A    between atoms: C_26  and  N_27 
REMARK       I    between atoms: N_27  and  C_28 
ROOT
HETATM    1  C   UNL     1       5.542  27.311  51.291  1.00  0.00     0.158 A 
HETATM    2  N   UNL     1       4.896  27.969  50.245  1.00  0.00    -0.274 N 
HETATM    3  C   UNL     1       5.312  29.284  50.380  1.00  0.00     0.196 A 
HETATM    4  N   UNL     1       6.040  29.422  51.466  1.00  0.00    -0.122 NA
HETATM    5  N   UNL     1       6.178  28.195  52.041  1.00  0.00    -0.131 NA
ENDROOT
BRANCH   3   6
HETATM    6  S   UNL     1       4.799  30.618  49.395  1.00  0.00    -0.080 SA
BRANCH   6   7
HETATM    7  C   UNL     1       4.604  31.933  50.634  1.00  0.00     0.185 C 
BRANCH   7   8
HETATM    8  C   UNL     1       3.820  31.420  51.833  1.00  0.00     0.231 C 
HETATM    9  N   UNL     1       4.522  31.505  53.024  1.00  0.00    -0.326 N 
HETATM   10  H   UNL     1       5.487  31.830  52.954  1.00  0.00     0.169 HD
HETATM   11  O   UNL     1       2.680  30.984  51.691  1.00  0.00    -0.272 OA
BRANCH   9  12
HETATM   12  C   UNL     1       4.104  31.088  54.305  1.00  0.00     0.036 A 
HETATM   13  C   UNL     1       4.323  29.740  54.640  1.00  0.00     0.059 A 
HETATM   14  C   UNL     1       3.935  29.230  55.882  1.00  0.00     0.036 A 
HETATM   15  C   UNL     1       3.296  30.089  56.784  1.00  0.00     0.029 A 
HETATM   16  C   UNL     1       3.078  31.429  56.465  1.00  0.00     0.004 A 
HETATM   17  C   UNL     1       3.486  31.929  55.230  1.00  0.00     0.029 A 
BRANCH  14  18
HETATM   18  N   UNL     1       4.097  27.899  56.307  1.00  0.00    -0.327 N 
HETATM   19  C   UNL     1       5.160  27.159  56.729  1.00  0.00     0.218 C 
HETATM   20  C   UNL     1       6.507  27.770  56.969  1.00  0.00     0.117 C 
HETATM   21  O   UNL     1       4.979  25.955  56.939  1.00  0.00    -0.274 OA
HETATM   22  H   UNL     1       3.256  27.333  56.317  1.00  0.00     0.169 HD
ENDBRANCH  14  18
ENDBRANCH   9  12
ENDBRANCH   7   8
ENDBRANCH   6   7
ENDBRANCH   3   6
BRANCH   2  23
HETATM   23  C   UNL     1       4.003  27.414  49.292  1.00  0.00     0.043 A 
HETATM   24  C   UNL     1       2.676  27.862  49.239  1.00  0.00     0.030 A 
HETATM   25  C   UNL     1       1.797  27.337  48.290  1.00  0.00     0.002 A 
HETATM   26  C   UNL     1       2.238  26.368  47.391  1.00  0.00     0.000 A 
HETATM   27  C   UNL     1       3.558  25.922  47.438  1.00  0.00     0.002 A 
HETATM   28  C   UNL     1       4.443  26.443  48.385  1.00  0.00     0.030 A 
ENDBRANCH   2  23
BRANCH   1  29
HETATM   29  C   UNL     1       5.673  25.809  51.404  1.00  0.00     0.150 C 
HETATM   30  C   UNL     1       4.774  25.276  52.531  1.00  0.00     0.040 C 
BRANCH  29  31
HETATM   31  N   UNL     1       7.062  25.415  51.674  1.00  0.00    -0.379 N 
HETATM   32  H   UNL     1       7.708  26.184  51.504  1.00  0.00     0.160 HD
BRANCH  31  33
HETATM   33  C   UNL     1       7.431  24.650  52.778  1.00  0.00     0.028 A 
HETATM   34  C   UNL     1       7.447  25.128  54.094  1.00  0.00     0.030 A 
HETATM   35  C   UNL     1       7.763  24.289  55.170  1.00  0.00     0.021 A 
HETATM   36  C   UNL     1       8.039  22.945  54.944  1.00  0.00     0.011 A 
HETATM   37 BR   UNL     1       8.466  21.812  56.393  1.00  0.00    -0.051 Br
HETATM   38  C   UNL     1       7.987  22.432  53.654  1.00  0.00     0.021 A 
HETATM   39  C   UNL     1       7.671  23.280  52.586  1.00  0.00     0.030 A 
ENDBRANCH  31  33
ENDBRANCH  29  31
ENDBRANCH   1  29
TORSDOF 9
ENDMDL
MODEL 9
REMARK VINA RESULT:      -9.1      4.496     10.162
REMARK  9 active torsions:
REMARK  status: ('A' for Active; 'I' for Inactive)
REMARK    1  A    between atoms: C_2  and  N_3 
REMARK    2  A    between atoms: C_2  and  C_11 
REMARK    3  A    between atoms: N_3  and  C_4 
REMARK    4  A    between atoms: N_12  and  C_13 
REMARK    5  A    between atoms: C_19  and  S_20 
REMARK    6  A    between atoms: S_20  and  C_21 
REMARK    7  A    between atoms: C_21  and  C_22 
REMARK       I    between atoms: C_22  and  N_23 
REMARK    8  A    between atoms: N_23  and  C_24 
REMARK    9  A    between atoms: C_26  and  N_27 
REMARK       I    between atoms: N_27  and  C_28 
ROOT
HETATM    1  C   UNL     1       5.150  27.591  56.202  1.00  0.00     0.158 A 
HETATM    2  N   UNL     1       5.011  28.663  55.321  1.00  0.00    -0.274 N 
HETATM    3  C   UNL     1       5.156  29.776  56.134  1.00  0.00     0.196 A 
HETATM    4  N   UNL     1       5.256  29.410  57.393  1.00  0.00    -0.122 NA
HETATM    5  N   UNL     1       5.244  28.049  57.440  1.00  0.00    -0.131 NA
ENDROOT
BRANCH   3   6
HETATM    6  S   UNL     1       5.024  31.430  55.625  1.00  0.00    -0.080 SA
BRANCH   6   7
HETATM    7  C   UNL     1       4.020  32.144  56.960  1.00  0.00     0.185 C 
BRANCH   7   8
HETATM    8  C   UNL     1       4.914  32.737  58.038  1.00  0.00     0.231 C 
HETATM    9  N   UNL     1       5.142  31.873  59.097  1.00  0.00    -0.326 N 
HETATM   10  H   UNL     1       4.642  30.984  59.067  1.00  0.00     0.169 HD
HETATM   11  O   UNL     1       5.356  33.877  57.923  1.00  0.00    -0.272 OA
BRANCH   9  12
HETATM   12  C   UNL     1       5.892  32.119  60.266  1.00  0.00     0.036 A 
HETATM   13  C   UNL     1       5.176  32.220  61.473  1.00  0.00     0.059 A 
HETATM   14  C   UNL     1       5.828  32.471  62.683  1.00  0.00     0.036 A 
HETATM   15  C   UNL     1       7.217  32.646  62.667  1.00  0.00     0.029 A 
HETATM   16  C   UNL     1       7.938  32.543  61.478  1.00  0.00     0.004 A 
HETATM   17  C   UNL     1       7.277  32.274  60.281  1.00  0.00     0.029 A 
BRANCH  14  18
HETATM   18  N   UNL     1       5.204  32.603  63.937  1.00  0.00    -0.327 N 
HETATM   19  C   UNL     1       4.978  33.649  64.780  1.00  0.00     0.218 C 
HETATM   20  C   UNL     1       5.287  35.063  64.392  1.00  0.00     0.117 C 
HETATM   21  O   UNL     1       4.478  33.403  65.884  1.00  0.00    -0.274 OA
HETATM   22  H   UNL     1       4.824  31.751  64.334  1.00  0.00     0.169 HD
ENDBRANCH  14  18
ENDBRANCH   9  12
ENDBRANCH   7   8
ENDBRANCH   6   7
ENDBRANCH   3   6
BRANCH   2  23
HETATM   23  C   UNL     1       4.751  28.609  53.927  1.00  0.00     0.043 A 
HETATM   24  C   UNL     1       5.810  28.417  53.029  1.00  0.00     0.030 A 
HETATM   25  C   UNL     1       5.560  28.340  51.658  1.00  0.00     0.002 A 
HETATM   26  C   UNL     1       4.257  28.450  51.179  1.00  0.00     0.000 A 
HETATM   27  C   UNL     1       3.200  28.638  52.068  1.00  0.00     0.002 A 
HETATM   28  C   UNL     1       3.442  28.715  53.442  1.00  0.00     0.030 A 
ENDBRANCH   2  23
BRANCH   1  29
HETATM   29  C   UNL     1       5.384  26.160  55.777  1.00  0.00     0.150 C 
HETATM   30  C   UNL     1       5.023  25.196  56.917  1.00  0.00     0.040 C 
BRANCH  29  31
HETATM   31  N   UNL     1       6.785  25.941  55.392  1.00  0.00    -0.379 N 
HETATM   32  H   UNL     1       7.426  26.349  56.070  1.00  0.00     0.160 HD
BRANCH  31  33
HETATM   33  C   UNL     1       7.251  24.730  54.886  1.00  0.00     0.028 A 
HETATM   34  C   UNL     1       7.770  23.698  55.677  1.00  0.00     0.030 A 
HETATM   35  C   UNL     1       8.161  22.475  55.115  1.00  0.00     0.021 A 
HETATM   36  C   UNL     1       8.006  22.259  53.750  1.00  0.00     0.011 A 
HETATM   37 BR   UNL     1       8.532  20.612  52.990  1.00  0.00    -0.051 Br
HETATM   38  C   UNL     1       7.451  23.248  52.947  1.00  0.00     0.021 A 
HETATM   39  C   UNL     1       7.066  24.465  53.519  1.00  0.00     0.030 A 
ENDBRANCH  31  33
ENDBRANCH  29  31
ENDBRANCH   1  29
TORSDOF 9
ENDMDL
MODEL 10
REMARK VINA RESULT:      -9.0      5.078      8.429
REMARK  9 active torsions:
REMARK  status: ('A' for Active; 'I' for Inactive)
REMARK    1  A    between atoms: C_2  and  N_3 
REMARK    2  A    between atoms: C_2  and  C_11 
REMARK    3  A    between atoms: N_3  and  C_4 
REMARK    4  A    between atoms: N_12  and  C_13 
REMARK    5  A    between atoms: C_19  and  S_20 
REMARK    6  A    between atoms: S_20  and  C_21 
REMARK    7  A    between atoms: C_21  and  C_22 
REMARK       I    between atoms: C_22  and  N_23 
REMARK    8  A    between atoms: N_23  and  C_24 
REMARK    9  A    between atoms: C_26  and  N_27 
REMARK       I    between atoms: N_27  and  C_28 
ROOT
HETATM    1  C   UNL     1       6.509  27.189  56.788  1.00  0.00     0.158 A 
HETATM    2  N   UNL     1       6.810  28.550  56.734  1.00  0.00    -0.274 N 
HETATM    3  C   UNL     1       5.625  29.130  56.312  1.00  0.00     0.196 A 
HETATM    4  N   UNL     1       4.738  28.202  56.028  1.00  0.00    -0.122 NA
HETATM    5  N   UNL     1       5.289  26.990  56.316  1.00  0.00    -0.131 NA
ENDROOT
BRANCH   3   6
HETATM    6  S   UNL     1       5.379  30.819  55.994  1.00  0.00    -0.080 SA
BRANCH   6   7
HETATM    7  C   UNL     1       3.722  30.812  55.249  1.00  0.00     0.185 C 
BRANCH   7   8
HETATM    8  C   UNL     1       3.822  30.852  53.732  1.00  0.00     0.231 C 
HETATM    9  N   UNL     1       4.111  29.619  53.169  1.00  0.00    -0.326 N 
HETATM   10  H   UNL     1       4.287  28.856  53.825  1.00  0.00     0.169 HD
HETATM   11  O   UNL     1       3.656  31.906  53.124  1.00  0.00    -0.272 OA
BRANCH   9  12
HETATM   12  C   UNL     1       4.304  29.315  51.806  1.00  0.00     0.036 A 
HETATM   13  C   UNL     1       3.277  28.605  51.159  1.00  0.00     0.059 A 
HETATM   14  C   UNL     1       3.379  28.249  49.812  1.00  0.00     0.036 A 
HETATM   15  C   UNL     1       4.545  28.596  49.119  1.00  0.00     0.029 A 
HETATM   16  C   UNL     1       5.568  29.305  49.748  1.00  0.00     0.004 A 
HETATM   17  C   UNL     1       5.445  29.668  51.087  1.00  0.00     0.029 A 
BRANCH  14  18
HETATM   18  N   UNL     1       2.417  27.530  49.079  1.00  0.00    -0.327 N 
HETATM   19  C   UNL     1       1.374  27.884  48.278  1.00  0.00     0.218 C 
HETATM   20  C   UNL     1       1.124  29.308  47.882  1.00  0.00     0.117 C 
HETATM   21  O   UNL     1       0.640  26.984  47.854  1.00  0.00    -0.274 OA
HETATM   22  H   UNL     1       2.484  26.520  49.134  1.00  0.00     0.169 HD
ENDBRANCH  14  18
ENDBRANCH   9  12
ENDBRANCH   7   8
ENDBRANCH   6   7
ENDBRANCH   3   6
BRANCH   2  23
HETATM   23  C   UNL     1       8.053  29.173  57.020  1.00  0.00     0.043 A 
HETATM   24  C   UNL     1       9.017  29.297  56.010  1.00  0.00     0.030 A 
HETATM   25  C   UNL     1      10.232  29.930  56.277  1.00  0.00     0.002 A 
HETATM   26  C   UNL     1      10.489  30.441  57.547  1.00  0.00     0.000 A 
HETATM   27  C   UNL     1       9.532  30.322  58.554  1.00  0.00     0.002 A 
HETATM   28  C   UNL     1       8.313  29.691  58.294  1.00  0.00     0.030 A 
ENDBRANCH   2  23
BRANCH   1  29
HETATM   29  C   UNL     1       7.359  26.152  57.486  1.00  0.00     0.150 C 
HETATM   30  C   UNL     1       8.768  26.116  56.876  1.00  0.00     0.040 C 
BRANCH  29  31
HETATM   31  N   UNL     1       6.759  24.815  57.383  1.00  0.00    -0.379 N 
HETATM   32  H   UNL     1       5.755  24.843  57.553  1.00  0.00     0.160 HD
BRANCH  31  33
HETATM   33  C   UNL     1       7.100  23.906  56.384  1.00  0.00     0.028 A 
HETATM   34  C   UNL     1       6.771  24.067  55.033  1.00  0.00     0.030 A 
HETATM   35  C   UNL     1       7.202  23.150  54.065  1.00  0.00     0.021 A 
HETATM   36  C   UNL     1       7.998  22.073  54.436  1.00  0.00     0.011 A 
HETATM   37 BR   UNL     1       8.580  20.836  53.132  1.00  0.00    -0.051 Br
HETATM   38  C   UNL     1       8.378  21.913  55.762  1.00  0.00     0.021 A 
HETATM   39  C   UNL     1       7.941  22.834  56.721  1.00  0.00     0.030 A 
ENDBRANCH  31  33
ENDBRANCH  29  31
ENDBRANCH   1  29
TORSDOF 9
ENDMDL
