MODEL 1
REMARK VINA RESULT:      -8.6      0.000      0.000
REMARK  4 active torsions:
REMARK  status: ('A' for Active; 'I' for Inactive)
REMARK    1  A    between atoms: C_5  and  C_6 
REMARK       I    between atoms: C_6  and  N_7 
REMARK    2  A    between atoms: N_7  and  C_8 
REMARK    3  A    between atoms: C_8  and  N_9 
REMARK    4  A    between atoms: N_9  and  C_10 
ROOT
HETATM    1  C   UNL     1       7.706  25.287  56.311  1.00  0.00     0.257 C 
HETATM    2  N   UNL     1       7.043  26.386  55.777  1.00  0.00    -0.299 N 
HETATM    3  O   UNL     1       8.342  25.261  57.358  1.00  0.00    -0.267 OA
HETATM    4  H   UNL     1       6.921  26.372  54.774  1.00  0.00     0.171 HD
ENDROOT
BRANCH   2   5
HETATM    5  C   UNL     1       6.964  27.636  56.309  1.00  0.00     0.180 C 
HETATM    6  S   UNL     1       6.165  28.827  55.446  1.00  0.00    -0.040 SA
BRANCH   5   7
HETATM    7  N   UNL     1       7.551  27.955  57.484  1.00  0.00    -0.318 N 
HETATM    8  H   UNL     1       7.492  27.245  58.201  1.00  0.00     0.170 HD
BRANCH   7   9
HETATM    9  C   UNL     1       8.571  28.903  57.672  1.00  0.00     0.129 A 
HETATM   10  N   UNL     1       8.411  29.912  58.556  1.00  0.00    -0.236 NA
HETATM   11  C   UNL     1       9.379  30.860  58.618  1.00  0.00     0.033 A 
HETATM   12  C   UNL     1       9.173  31.988  59.583  1.00  0.00     0.070 C 
HETATM   13  C   UNL     1      10.502  30.846  57.796  1.00  0.00     0.027 A 
HETATM   14  C   UNL     1      10.650  29.807  56.889  1.00  0.00     0.006 A 
HETATM   15  C   UNL     1       9.670  28.822  56.822  1.00  0.00     0.050 A 
ENDBRANCH   7   9
ENDBRANCH   5   7
ENDBRANCH   2   5
BRANCH   1  16
HETATM   16  C   UNL     1       7.751  24.113  55.400  1.00  0.00     0.032 A 
HETATM   17  C   UNL     1       7.768  22.831  55.959  1.00  0.00     0.017 A 
HETATM   18  C   UNL     1       7.892  21.710  55.135  1.00  0.00     0.007 A 
HETATM   19  C   UNL     1       7.993  21.859  53.747  1.00  0.00    -0.062 A 
HETATM   20  C   UNL     1       8.122  20.659  52.855  1.00  0.00     0.048 C 
HETATM   21  C   UNL     1       7.937  23.146  53.190  1.00  0.00     0.007 A 
HETATM   22  C   UNL     1       7.819  24.270  54.011  1.00  0.00     0.017 A 
ENDBRANCH   1  16
TORSDOF 4
ENDMDL
MODEL 2
REMARK VINA RESULT:      -8.5      1.124      1.585
REMARK  4 active torsions:
REMARK  status: ('A' for Active; 'I' for Inactive)
REMARK    1  A    between atoms: C_5  and  C_6 
REMARK       I    between atoms: C_6  and  N_7 
REMARK    2  A    between atoms: N_7  and  C_8 
REMARK    3  A    between atoms: C_8  and  N_9 
REMARK    4  A    between atoms: N_9  and  C_10 
ROOT
HETATM    1  C   UNL     1       7.410  25.738  55.622  1.00  0.00     0.257 C 
HETATM    2  N   UNL     1       6.674  26.631  54.851  1.00  0.00    -0.299 N 
HETATM    3  O   UNL     1       7.967  25.984  56.685  1.00  0.00    -0.267 OA
HETATM    4  H   UNL     1       6.626  26.414  53.866  1.00  0.00     0.171 HD
ENDROOT
BRANCH   2   5
HETATM    5  C   UNL     1       6.425  27.940  55.126  1.00  0.00     0.180 C 
HETATM    6  S   UNL     1       4.869  28.387  55.553  1.00  0.00    -0.040 SA
BRANCH   5   7
HETATM    7  N   UNL     1       7.379  28.891  55.018  1.00  0.00    -0.318 N 
HETATM    8  H   UNL     1       7.189  29.615  54.339  1.00  0.00     0.170 HD
BRANCH   7   9
HETATM    9  C   UNL     1       8.327  29.230  55.998  1.00  0.00     0.129 A 
HETATM   10  N   UNL     1       7.933  29.522  57.257  1.00  0.00    -0.236 NA
HETATM   11  C   UNL     1       8.876  29.948  58.133  1.00  0.00     0.033 A 
HETATM   12  C   UNL     1       8.417  30.296  59.517  1.00  0.00     0.070 C 
HETATM   13  C   UNL     1      10.211  30.121  57.781  1.00  0.00     0.027 A 
HETATM   14  C   UNL     1      10.600  29.823  56.482  1.00  0.00     0.006 A 
HETATM   15  C   UNL     1       9.644  29.374  55.576  1.00  0.00     0.050 A 
ENDBRANCH   7   9
ENDBRANCH   5   7
ENDBRANCH   2   5
BRANCH   1  16
HETATM   16  C   UNL     1       7.645  24.427  54.960  1.00  0.00     0.032 A 
HETATM   17  C   UNL     1       7.786  24.395  53.568  1.00  0.00     0.017 A 
HETATM   18  C   UNL     1       7.925  23.174  52.907  1.00  0.00     0.007 A 
HETATM   19  C   UNL     1       7.932  21.974  53.629  1.00  0.00    -0.062 A 
HETATM   20  C   UNL     1       8.086  20.657  52.926  1.00  0.00     0.048 C 
HETATM   21  C   UNL     1       7.829  22.015  55.027  1.00  0.00     0.007 A 
HETATM   22  C   UNL     1       7.683  23.236  55.693  1.00  0.00     0.017 A 
ENDBRANCH   1  16
TORSDOF 4
ENDMDL
MODEL 3
REMARK VINA RESULT:      -8.3      2.012      2.710
REMARK  4 active torsions:
REMARK  status: ('A' for Active; 'I' for Inactive)
REMARK    1  A    between atoms: C_5  and  C_6 
REMARK       I    between atoms: C_6  and  N_7 
REMARK    2  A    between atoms: N_7  and  C_8 
REMARK    3  A    between atoms: C_8  and  N_9 
REMARK    4  A    between atoms: N_9  and  C_10 
ROOT
HETATM    1  C   UNL     1       7.710  25.171  53.168  1.00  0.00     0.257 C 
HETATM    2  N   UNL     1       7.347  26.190  54.042  1.00  0.00    -0.299 N 
HETATM    3  O   UNL     1       7.845  25.268  51.955  1.00  0.00    -0.267 OA
HETATM    4  H   UNL     1       6.901  25.889  54.896  1.00  0.00     0.171 HD
ENDROOT
BRANCH   2   5
HETATM    5  C   UNL     1       7.079  27.486  53.724  1.00  0.00     0.180 C 
HETATM    6  S   UNL     1       5.702  27.824  52.833  1.00  0.00    -0.040 SA
BRANCH   5   7
HETATM    7  N   UNL     1       7.911  28.496  54.062  1.00  0.00    -0.318 N 
HETATM    8  H   UNL     1       8.060  29.190  53.342  1.00  0.00     0.170 HD
BRANCH   7   9
HETATM    9  C   UNL     1       8.212  28.921  55.367  1.00  0.00     0.129 A 
HETATM   10  N   UNL     1       9.467  29.302  55.688  1.00  0.00    -0.236 NA
HETATM   11  C   UNL     1       9.727  29.598  56.986  1.00  0.00     0.033 A 
HETATM   12  C   UNL     1      11.132  29.992  57.330  1.00  0.00     0.070 C 
HETATM   13  C   UNL     1       8.769  29.498  57.990  1.00  0.00     0.027 A 
HETATM   14  C   UNL     1       7.485  29.098  57.646  1.00  0.00     0.006 A 
HETATM   15  C   UNL     1       7.202  28.802  56.316  1.00  0.00     0.050 A 
ENDBRANCH   7   9
ENDBRANCH   5   7
ENDBRANCH   2   5
BRANCH   1  16
HETATM   16  C   UNL     1       7.762  23.828  53.805  1.00  0.00     0.032 A 
HETATM   17  C   UNL     1       7.681  23.743  55.199  1.00  0.00     0.017 A 
HETATM   18  C   UNL     1       7.810  22.506  55.833  1.00  0.00     0.007 A 
HETATM   19  C   UNL     1       8.011  21.342  55.081  1.00  0.00    -0.062 A 
HETATM   20  C   UNL     1       8.145  20.008  55.756  1.00  0.00     0.048 C 
HETATM   21  C   UNL     1       8.053  21.429  53.682  1.00  0.00     0.007 A 
HETATM   22  C   UNL     1       7.931  22.666  53.043  1.00  0.00     0.017 A 
ENDBRANCH   1  16
TORSDOF 4
ENDMDL
MODEL 4
REMARK VINA RESULT:      -8.1      5.131      7.400
REMARK  4 active torsions:
REMARK  status: ('A' for Active; 'I' for Inactive)
REMARK    1  A    between atoms: C_5  and  C_6 
REMARK       I    between atoms: C_6  and  N_7 
REMARK    2  A    between atoms: N_7  and  C_8 
REMARK    3  A    between atoms: C_8  and  N_9 
REMARK    4  A    between atoms: N_9  and  C_10 
ROOT
HETATM    1  C   UNL     1       7.144  24.759  52.597  1.00  0.00     0.257 C 
HETATM    2  N   UNL     1       6.080  25.561  52.997  1.00  0.00    -0.299 N 
HETATM    3  O   UNL     1       7.791  24.873  51.564  1.00  0.00    -0.267 OA
HETATM    4  H   UNL     1       5.423  25.124  53.627  1.00  0.00     0.171 HD
ENDROOT
BRANCH   2   5
HETATM    5  C   UNL     1       5.557  26.624  52.328  1.00  0.00     0.180 C 
HETATM    6  S   UNL     1       4.350  27.520  53.064  1.00  0.00    -0.040 SA
BRANCH   5   7
HETATM    7  N   UNL     1       5.947  26.946  51.074  1.00  0.00    -0.318 N 
HETATM    8  H   UNL     1       6.921  26.774  50.869  1.00  0.00     0.170 HD
BRANCH   7   9
HETATM    9  C   UNL     1       5.113  27.051  49.948  1.00  0.00     0.129 A 
HETATM   10  N   UNL     1       4.415  25.980  49.513  1.00  0.00    -0.236 NA
HETATM   11  C   UNL     1       3.712  26.106  48.360  1.00  0.00     0.033 A 
HETATM   12  C   UNL     1       2.967  24.900  47.876  1.00  0.00     0.070 C 
HETATM   13  C   UNL     1       3.707  27.275  47.604  1.00  0.00     0.027 A 
HETATM   14  C   UNL     1       4.434  28.365  48.060  1.00  0.00     0.006 A 
HETATM   15  C   UNL     1       5.151  28.252  49.248  1.00  0.00     0.050 A 
ENDBRANCH   7   9
ENDBRANCH   5   7
ENDBRANCH   2   5
BRANCH   1  16
HETATM   16  C   UNL     1       7.358  23.572  53.467  1.00  0.00     0.032 A 
HETATM   17  C   UNL     1       7.166  23.707  54.846  1.00  0.00     0.017 A 
HETATM   18  C   UNL     1       7.438  22.636  55.699  1.00  0.00     0.007 A 
HETATM   19  C   UNL     1       7.896  21.418  55.182  1.00  0.00    -0.062 A 
HETATM   20  C   UNL     1       8.186  20.260  56.092  1.00  0.00     0.048 C 
HETATM   21  C   UNL     1       8.050  21.276  53.795  1.00  0.00     0.007 A 
HETATM   22  C   UNL     1       7.786  22.348  52.938  1.00  0.00     0.017 A 
ENDBRANCH   1  16
TORSDOF 4
ENDMDL
MODEL 5
REMARK VINA RESULT:      -7.8      3.352      8.827
REMARK  4 active torsions:
REMARK  status: ('A' for Active; 'I' for Inactive)
REMARK    1  A    between atoms: C_5  and  C_6 
REMARK       I    between atoms: C_6  and  N_7 
REMARK    2  A    between atoms: N_7  and  C_8 
REMARK    3  A    between atoms: C_8  and  N_9 
REMARK    4  A    between atoms: N_9  and  C_10 
ROOT
HETATM    1  C   UNL     1       7.594  31.491  59.259  1.00  0.00     0.257 C 
HETATM    2  N   UNL     1       8.598  30.549  59.061  1.00  0.00    -0.299 N 
HETATM    3  O   UNL     1       6.871  31.975  58.397  1.00  0.00    -0.267 OA
HETATM    4  H   UNL     1       9.336  30.552  59.750  1.00  0.00     0.171 HD
ENDROOT
BRANCH   2   5
HETATM    5  C   UNL     1       8.966  29.979  57.881  1.00  0.00     0.180 C 
HETATM    6  S   UNL     1      10.570  30.079  57.410  1.00  0.00    -0.040 SA
BRANCH   5   7
HETATM    7  N   UNL     1       8.073  29.382  57.062  1.00  0.00    -0.318 N 
HETATM    8  H   UNL     1       8.021  29.766  56.129  1.00  0.00     0.170 HD
BRANCH   7   9
HETATM    9  C   UNL     1       7.570  28.076  57.194  1.00  0.00     0.129 A 
HETATM   10  N   UNL     1       8.411  27.036  57.383  1.00  0.00    -0.236 NA
HETATM   11  C   UNL     1       7.882  25.788  57.395  1.00  0.00     0.033 A 
HETATM   12  C   UNL     1       8.832  24.643  57.577  1.00  0.00     0.070 C 
HETATM   13  C   UNL     1       6.527  25.540  57.195  1.00  0.00     0.027 A 
HETATM   14  C   UNL     1       5.677  26.618  56.995  1.00  0.00     0.006 A 
HETATM   15  C   UNL     1       6.204  27.905  56.992  1.00  0.00     0.050 A 
ENDBRANCH   7   9
ENDBRANCH   5   7
ENDBRANCH   2   5
BRANCH   1  16
HETATM   16  C   UNL     1       7.558  32.045  60.639  1.00  0.00     0.032 A 
HETATM   17  C   UNL     1       8.524  31.621  61.557  1.00  0.00     0.017 A 
HETATM   18  C   UNL     1       8.470  32.058  62.882  1.00  0.00     0.007 A 
HETATM   19  C   UNL     1       7.455  32.927  63.300  1.00  0.00    -0.062 A 
HETATM   20  C   UNL     1       7.392  33.404  64.722  1.00  0.00     0.048 C 
HETATM   21  C   UNL     1       6.511  33.378  62.366  1.00  0.00     0.007 A 
HETATM   22  C   UNL     1       6.558  32.939  61.040  1.00  0.00     0.017 A 
ENDBRANCH   1  16
TORSDOF 4
ENDMDL
MODEL 6
REMARK VINA RESULT:      -7.7      2.082      7.616
REMARK  4 active torsions:
REMARK  status: ('A' for Active; 'I' for Inactive)
REMARK    1  A    between atoms: C_5  and  C_6 
REMARK       I    between atoms: C_6  and  N_7 
REMARK    2  A    between atoms: N_7  and  C_8 
REMARK    3  A    between atoms: C_8  and  N_9 
REMARK    4  A    between atoms: N_9  and  C_10 
ROOT
HETATM    1  C   UNL     1       7.608  26.662  56.178  1.00  0.00     0.257 C 
HETATM    2  N   UNL     1       6.971  26.580  54.945  1.00  0.00    -0.299 N 
HETATM    3  O   UNL     1       8.144  25.740  56.781  1.00  0.00    -0.267 OA
HETATM    4  H   UNL     1       6.264  27.281  54.776  1.00  0.00     0.171 HD
ENDROOT
BRANCH   2   5
HETATM    5  C   UNL     1       6.824  25.472  54.169  1.00  0.00     0.180 C 
HETATM    6  S   UNL     1       5.300  25.099  53.585  1.00  0.00    -0.040 SA
BRANCH   5   7
HETATM    7  N   UNL     1       7.856  24.642  53.899  1.00  0.00    -0.318 N 
HETATM    8  H   UNL     1       8.769  25.076  53.899  1.00  0.00     0.170 HD
BRANCH   7   9
HETATM    9  C   UNL     1       7.863  23.246  54.063  1.00  0.00     0.129 A 
HETATM   10  N   UNL     1       7.984  22.704  55.294  1.00  0.00    -0.236 NA
HETATM   11  C   UNL     1       8.095  21.355  55.385  1.00  0.00     0.033 A 
HETATM   12  C   UNL     1       8.258  20.772  56.755  1.00  0.00     0.070 C 
HETATM   13  C   UNL     1       8.116  20.523  54.269  1.00  0.00     0.027 A 
HETATM   14  C   UNL     1       7.997  21.095  53.011  1.00  0.00     0.006 A 
HETATM   15  C   UNL     1       7.871  22.477  52.904  1.00  0.00     0.050 A 
ENDBRANCH   7   9
ENDBRANCH   5   7
ENDBRANCH   2   5
BRANCH   1  16
HETATM   16  C   UNL     1       7.444  27.978  56.851  1.00  0.00     0.032 A 
HETATM   17  C   UNL     1       8.551  28.546  57.491  1.00  0.00     0.017 A 
HETATM   18  C   UNL     1       8.411  29.740  58.201  1.00  0.00     0.007 A 
HETATM   19  C   UNL     1       7.168  30.381  58.272  1.00  0.00    -0.062 A 
HETATM   20  C   UNL     1       7.012  31.667  59.030  1.00  0.00     0.048 C 
HETATM   21  C   UNL     1       6.072  29.826  57.597  1.00  0.00     0.007 A 
HETATM   22  C   UNL     1       6.205  28.628  56.890  1.00  0.00     0.017 A 
ENDBRANCH   1  16
TORSDOF 4
ENDMDL
MODEL 7
REMARK VINA RESULT:      -7.7      3.424      4.437
REMARK  4 active torsions:
REMARK  status: ('A' for Active; 'I' for Inactive)
REMARK    1  A    between atoms: C_5  and  C_6 
REMARK       I    between atoms: C_6  and  N_7 
REMARK    2  A    between atoms: N_7  and  C_8 
REMARK    3  A    between atoms: C_8  and  N_9 
REMARK    4  A    between atoms: N_9  and  C_10 
ROOT
HETATM    1  C   UNL     1       6.752  25.164  53.457  1.00  0.00     0.257 C 
HETATM    2  N   UNL     1       5.453  25.203  52.964  1.00  0.00    -0.299 N 
HETATM    3  O   UNL     1       7.555  26.089  53.465  1.00  0.00    -0.267 OA
HETATM    4  H   UNL     1       5.076  24.314  52.666  1.00  0.00     0.171 HD
ENDROOT
BRANCH   2   5
HETATM    5  C   UNL     1       4.820  26.269  52.403  1.00  0.00     0.180 C 
HETATM    6  S   UNL     1       5.211  26.699  50.833  1.00  0.00    -0.040 SA
BRANCH   5   7
HETATM    7  N   UNL     1       3.927  27.016  53.089  1.00  0.00    -0.318 N 
HETATM    8  H   UNL     1       3.021  26.589  53.224  1.00  0.00     0.170 HD
BRANCH   7   9
HETATM    9  C   UNL     1       4.229  28.059  53.982  1.00  0.00     0.129 A 
HETATM   10  N   UNL     1       4.853  27.797  55.151  1.00  0.00    -0.236 NA
HETATM   11  C   UNL     1       5.023  28.823  56.022  1.00  0.00     0.033 A 
HETATM   12  C   UNL     1       5.691  28.509  57.326  1.00  0.00     0.070 C 
HETATM   13  C   UNL     1       4.559  30.110  55.772  1.00  0.00     0.027 A 
HETATM   14  C   UNL     1       3.914  30.363  54.569  1.00  0.00     0.006 A 
HETATM   15  C   UNL     1       3.743  29.322  53.661  1.00  0.00     0.050 A 
ENDBRANCH   7   9
ENDBRANCH   5   7
ENDBRANCH   2   5
BRANCH   1  16
HETATM   16  C   UNL     1       7.205  23.801  53.844  1.00  0.00     0.032 A 
HETATM   17  C   UNL     1       7.175  23.444  55.197  1.00  0.00     0.017 A 
HETATM   18  C   UNL     1       7.669  22.203  55.603  1.00  0.00     0.007 A 
HETATM   19  C   UNL     1       8.190  21.305  54.664  1.00  0.00    -0.062 A 
HETATM   20  C   UNL     1       8.719  19.968  55.093  1.00  0.00     0.048 C 
HETATM   21  C   UNL     1       8.182  21.654  53.305  1.00  0.00     0.007 A 
HETATM   22  C   UNL     1       7.694  22.897  52.894  1.00  0.00     0.017 A 
ENDBRANCH   1  16
TORSDOF 4
ENDMDL
MODEL 8
REMARK VINA RESULT:      -7.6      2.261      8.195
REMARK  4 active torsions:
REMARK  status: ('A' for Active; 'I' for Inactive)
REMARK    1  A    between atoms: C_5  and  C_6 
REMARK       I    between atoms: C_6  and  N_7 
REMARK    2  A    between atoms: N_7  and  C_8 
REMARK    3  A    between atoms: C_8  and  N_9 
REMARK    4  A    between atoms: N_9  and  C_10 
ROOT
HETATM    1  C   UNL     1       8.061  30.202  58.674  1.00  0.00     0.257 C 
HETATM    2  N   UNL     1       6.793  29.905  58.186  1.00  0.00    -0.299 N 
HETATM    3  O   UNL     1       9.126  29.799  58.222  1.00  0.00    -0.267 OA
HETATM    4  H   UNL     1       6.045  29.967  58.862  1.00  0.00     0.171 HD
ENDROOT
BRANCH   2   5
HETATM    5  C   UNL     1       6.488  29.120  57.117  1.00  0.00     0.180 C 
HETATM    6  S   UNL     1       4.876  28.838  56.764  1.00  0.00    -0.040 SA
BRANCH   5   7
HETATM    7  N   UNL     1       7.442  28.526  56.367  1.00  0.00    -0.318 N 
HETATM    8  H   UNL     1       8.238  29.107  56.143  1.00  0.00     0.170 HD
BRANCH   7   9
HETATM    9  C   UNL     1       7.668  27.143  56.255  1.00  0.00     0.129 A 
HETATM   10  N   UNL     1       7.375  26.494  55.108  1.00  0.00    -0.236 NA
HETATM   11  C   UNL     1       7.510  25.145  55.091  1.00  0.00     0.033 A 
HETATM   12  C   UNL     1       7.153  24.436  53.819  1.00  0.00     0.070 C 
HETATM   13  C   UNL     1       7.907  24.412  56.205  1.00  0.00     0.027 A 
HETATM   14  C   UNL     1       8.199  25.092  57.379  1.00  0.00     0.006 A 
HETATM   15  C   UNL     1       8.076  26.478  57.407  1.00  0.00     0.050 A 
ENDBRANCH   7   9
ENDBRANCH   5   7
ENDBRANCH   2   5
BRANCH   1  16
HETATM   16  C   UNL     1       8.048  30.946  59.962  1.00  0.00     0.032 A 
HETATM   17  C   UNL     1       8.983  30.601  60.944  1.00  0.00     0.017 A 
HETATM   18  C   UNL     1       8.946  31.222  62.194  1.00  0.00     0.007 A 
HETATM   19  C   UNL     1       7.981  32.197  62.472  1.00  0.00    -0.062 A 
HETATM   20  C   UNL     1       7.937  32.873  63.811  1.00  0.00     0.048 C 
HETATM   21  C   UNL     1       7.070  32.566  61.470  1.00  0.00     0.007 A 
HETATM   22  C   UNL     1       7.100  31.942  60.219  1.00  0.00     0.017 A 
ENDBRANCH   1  16
TORSDOF 4
ENDMDL
MODEL 9
REMARK VINA RESULT:      -7.6      5.452      7.849
REMARK  4 active torsions:
REMARK  status: ('A' for Active; 'I' for Inactive)
REMARK    1  A    between atoms: C_5  and  C_6 
REMARK       I    between atoms: C_6  and  N_7 
REMARK    2  A    between atoms: N_7  and  C_8 
REMARK    3  A    between atoms: C_8  and  N_9 
REMARK    4  A    between atoms: N_9  and  C_10 
ROOT
HETATM    1  C   UNL     1       6.849  25.989  53.009  1.00  0.00     0.257 C 
HETATM    2  N   UNL     1       5.841  25.971  52.052  1.00  0.00    -0.299 N 
HETATM    3  O   UNL     1       7.516  26.961  53.343  1.00  0.00    -0.267 OA
HETATM    4  H   UNL     1       5.675  25.075  51.616  1.00  0.00     0.171 HD
ENDROOT
BRANCH   2   5
HETATM    5  C   UNL     1       5.397  27.020  51.308  1.00  0.00     0.180 C 
HETATM    6  S   UNL     1       4.529  28.232  52.071  1.00  0.00    -0.040 SA
BRANCH   5   7
HETATM    7  N   UNL     1       5.592  27.088  49.973  1.00  0.00    -0.318 N 
HETATM    8  H   UNL     1       6.502  26.785  49.654  1.00  0.00     0.170 HD
BRANCH   7   9
HETATM    9  C   UNL     1       4.589  27.090  48.987  1.00  0.00     0.129 A 
HETATM   10  N   UNL     1       4.238  28.240  48.372  1.00  0.00    -0.236 NA
HETATM   11  C   UNL     1       3.193  28.205  47.510  1.00  0.00     0.033 A 
HETATM   12  C   UNL     1       2.798  29.495  46.858  1.00  0.00     0.070 C 
HETATM   13  C   UNL     1       2.460  27.048  47.259  1.00  0.00     0.027 A 
HETATM   14  C   UNL     1       2.829  25.875  47.902  1.00  0.00     0.006 A 
HETATM   15  C   UNL     1       3.907  25.895  48.782  1.00  0.00     0.050 A 
ENDBRANCH   7   9
ENDBRANCH   5   7
ENDBRANCH   2   5
BRANCH   1  16
HETATM   16  C   UNL     1       7.217  24.641  53.518  1.00  0.00     0.032 A 
HETATM   17  C   UNL     1       7.664  23.679  52.605  1.00  0.00     0.017 A 
HETATM   18  C   UNL     1       7.939  22.380  53.036  1.00  0.00     0.007 A 
HETATM   19  C   UNL     1       7.777  22.031  54.382  1.00  0.00    -0.062 A 
HETATM   20  C   UNL     1       8.074  20.638  54.854  1.00  0.00     0.048 C 
HETATM   21  C   UNL     1       7.365  23.010  55.299  1.00  0.00     0.007 A 
HETATM   22  C   UNL     1       7.083  24.310  54.871  1.00  0.00     0.017 A 
ENDBRANCH   1  16
TORSDOF 4
ENDMDL
MODEL 10
REMARK VINA RESULT:      -7.6      3.223      5.304
REMARK  4 active torsions:
REMARK  status: ('A' for Active; 'I' for Inactive)
REMARK    1  A    between atoms: C_5  and  C_6 
REMARK       I    between atoms: C_6  and  N_7 
REMARK    2  A    between atoms: N_7  and  C_8 
REMARK    3  A    between atoms: C_8  and  N_9 
REMARK    4  A    between atoms: N_9  and  C_10 
ROOT
HETATM    1  C   UNL     1       6.501  25.294  55.209  1.00  0.00     0.257 C 
HETATM    2  N   UNL     1       7.036  26.446  54.644  1.00  0.00    -0.299 N 
HETATM    3  O   UNL     1       5.716  25.243  56.148  1.00  0.00    -0.267 OA
HETATM    4  H   UNL     1       7.926  26.328  54.181  1.00  0.00     0.171 HD
ENDROOT
BRANCH   2   5
HETATM    5  C   UNL     1       6.790  27.732  55.015  1.00  0.00     0.180 C 
HETATM    6  S   UNL     1       8.019  28.605  55.743  1.00  0.00    -0.040 SA
BRANCH   5   7
HETATM    7  N   UNL     1       5.577  28.306  54.858  1.00  0.00    -0.318 N 
HETATM    8  H   UNL     1       5.319  28.972  55.574  1.00  0.00     0.170 HD
BRANCH   7   9
HETATM    9  C   UNL     1       4.867  28.429  53.651  1.00  0.00     0.129 A 
HETATM   10  N   UNL     1       5.134  27.606  52.614  1.00  0.00    -0.236 NA
HETATM   11  C   UNL     1       4.498  27.839  51.440  1.00  0.00     0.033 A 
HETATM   12  C   UNL     1       4.829  26.935  50.291  1.00  0.00     0.070 C 
HETATM   13  C   UNL     1       3.613  28.897  51.258  1.00  0.00     0.027 A 
HETATM   14  C   UNL     1       3.352  29.738  52.330  1.00  0.00     0.006 A 
HETATM   15  C   UNL     1       3.989  29.504  53.545  1.00  0.00     0.050 A 
ENDBRANCH   7   9
ENDBRANCH   5   7
ENDBRANCH   2   5
BRANCH   1  16
HETATM   16  C   UNL     1       7.104  24.037  54.691  1.00  0.00     0.032 A 
HETATM   17  C   UNL     1       7.389  23.944  53.325  1.00  0.00     0.017 A 
HETATM   18  C   UNL     1       7.879  22.750  52.792  1.00  0.00     0.007 A 
HETATM   19  C   UNL     1       8.097  21.642  53.620  1.00  0.00    -0.062 A 
HETATM   20  C   UNL     1       8.628  20.357  53.055  1.00  0.00     0.048 C 
HETATM   21  C   UNL     1       7.845  21.754  54.995  1.00  0.00     0.007 A 
HETATM   22  C   UNL     1       7.348  22.945  55.531  1.00  0.00     0.017 A 
ENDBRANCH   1  16
TORSDOF 4
ENDMDL
