MODEL 1
REMARK VINA RESULT:     -10.1      0.000      0.000
REMARK  3 active torsions:
REMARK  status: ('A' for Active; 'I' for Inactive)
REMARK    1  A    between atoms: N_12  and  C_13 
REMARK    2  A    between atoms: C_13  and  C_14 
REMARK       I    between atoms: C_14  and  N_15 
REMARK    3  A    between atoms: N_15  and  C_16 
ROOT
HETATM    1  C   UNL     1       8.332  20.002  55.564  1.00  0.00     0.048 C 
HETATM    2  C   UNL     1       8.123  21.346  54.928  1.00  0.00    -0.061 A 
HETATM    3  C   UNL     1       7.974  22.495  55.722  1.00  0.00     0.021 A 
HETATM    4  C   UNL     1       7.784  23.750  55.110  1.00  0.00     0.005 A 
HETATM    5  C   UNL     1       7.740  23.820  53.712  1.00  0.00     0.044 A 
HETATM    6  N   UNL     1       7.563  25.145  53.368  1.00  0.00    -0.350 N 
HETATM    7  H   UNL     1       7.507  25.506  52.424  1.00  0.00     0.166 HD
HETATM    8  C   UNL     1       7.500  25.908  54.500  1.00  0.00     0.116 A 
HETATM    9  C   UNL     1       7.623  25.076  55.585  1.00  0.00     0.028 A 
HETATM   10  C   UNL     1       7.356  27.330  54.611  1.00  0.00     0.291 A 
HETATM   11  O   UNL     1       7.284  28.071  53.637  1.00  0.00    -0.264 OA
HETATM   12  N   UNL     1       7.297  27.770  55.948  1.00  0.00    -0.224 N 
HETATM   13  N   UNL     1       7.452  26.926  57.070  1.00  0.00    -0.180 NA
HETATM   14  C   UNL     1       7.598  25.644  56.900  1.00  0.00     0.153 A 
HETATM   15  C   UNL     1       7.871  22.688  52.902  1.00  0.00     0.031 A 
HETATM   16  C   UNL     1       8.063  21.454  53.534  1.00  0.00     0.009 A 
ENDROOT
BRANCH  12  17
HETATM   17  C   UNL     1       7.363  29.198  56.216  1.00  0.00     0.258 C 
BRANCH  17  18
HETATM   18  C   UNL     1       7.350  29.767  57.649  1.00  0.00     0.244 C 
HETATM   19  N   UNL     1       8.530  30.218  58.259  1.00  0.00    -0.321 N 
HETATM   20  C   UNL     1       9.856  29.939  57.718  1.00  0.00     0.159 C 
HETATM   21  O   UNL     1       6.232  29.928  58.161  1.00  0.00    -0.271 OA
BRANCH  19  22
HETATM   22  C   UNL     1       8.478  30.959  59.493  1.00  0.00     0.036 A 
HETATM   23  C   UNL     1       9.191  30.532  60.624  1.00  0.00     0.029 A 
HETATM   24  C   UNL     1       9.099  31.218  61.840  1.00  0.00     0.002 A 
HETATM   25  C   UNL     1       8.298  32.350  61.944  1.00  0.00     0.000 A 
HETATM   26  C   UNL     1       7.589  32.796  60.832  1.00  0.00     0.002 A 
HETATM   27  C   UNL     1       7.674  32.102  59.620  1.00  0.00     0.029 A 
ENDBRANCH  19  22
ENDBRANCH  17  18
ENDBRANCH  12  17
TORSDOF 3
ENDMDL
MODEL 2
REMARK VINA RESULT:      -9.9      1.542      8.670
REMARK  3 active torsions:
REMARK  status: ('A' for Active; 'I' for Inactive)
REMARK    1  A    between atoms: N_12  and  C_13 
REMARK    2  A    between atoms: C_13  and  C_14 
REMARK       I    between atoms: C_14  and  N_15 
REMARK    3  A    between atoms: N_15  and  C_16 
ROOT
HETATM    1  C   UNL     1       9.650  31.636  61.535  1.00  0.00     0.048 C 
HETATM    2  C   UNL     1       8.632  31.433  60.450  1.00  0.00    -0.061 A 
HETATM    3  C   UNL     1       8.759  30.367  59.543  1.00  0.00     0.021 A 
HETATM    4  C   UNL     1       7.792  30.187  58.533  1.00  0.00     0.005 A 
HETATM    5  C   UNL     1       6.724  31.088  58.453  1.00  0.00     0.044 A 
HETATM    6  N   UNL     1       5.922  30.688  57.404  1.00  0.00    -0.350 N 
HETATM    7  H   UNL     1       5.065  31.141  57.112  1.00  0.00     0.166 HD
HETATM    8  C   UNL     1       6.446  29.565  56.828  1.00  0.00     0.116 A 
HETATM    9  C   UNL     1       7.601  29.241  57.496  1.00  0.00     0.028 A 
HETATM   10  C   UNL     1       5.926  28.797  55.736  1.00  0.00     0.291 A 
HETATM   11  O   UNL     1       4.875  29.071  55.168  1.00  0.00    -0.264 OA
HETATM   12  N   UNL     1       6.755  27.712  55.388  1.00  0.00    -0.224 N 
HETATM   13  N   UNL     1       7.929  27.353  56.086  1.00  0.00    -0.180 NA
HETATM   14  C   UNL     1       8.338  28.083  57.083  1.00  0.00     0.153 A 
HETATM   15  C   UNL     1       6.585  32.165  59.334  1.00  0.00     0.031 A 
HETATM   16  C   UNL     1       7.556  32.319  60.331  1.00  0.00     0.009 A 
ENDROOT
BRANCH  12  17
HETATM   17  C   UNL     1       6.255  26.727  54.441  1.00  0.00     0.258 C 
BRANCH  17  18
HETATM   18  C   UNL     1       6.591  25.227  54.563  1.00  0.00     0.244 C 
HETATM   19  N   UNL     1       7.501  24.616  53.687  1.00  0.00    -0.321 N 
HETATM   20  C   UNL     1       7.971  25.256  52.463  1.00  0.00     0.159 C 
HETATM   21  O   UNL     1       6.125  24.642  55.552  1.00  0.00    -0.271 OA
BRANCH  19  22
HETATM   22  C   UNL     1       7.987  23.286  53.948  1.00  0.00     0.036 A 
HETATM   23  C   UNL     1       7.651  22.214  53.107  1.00  0.00     0.029 A 
HETATM   24  C   UNL     1       8.076  20.911  53.388  1.00  0.00     0.002 A 
HETATM   25  C   UNL     1       8.853  20.658  54.514  1.00  0.00     0.000 A 
HETATM   26  C   UNL     1       9.205  21.708  55.357  1.00  0.00     0.002 A 
HETATM   27  C   UNL     1       8.770  23.009  55.080  1.00  0.00     0.029 A 
ENDBRANCH  19  22
ENDBRANCH  17  18
ENDBRANCH  12  17
TORSDOF 3
ENDMDL
MODEL 3
REMARK VINA RESULT:      -9.4      2.493     10.010
REMARK  3 active torsions:
REMARK  status: ('A' for Active; 'I' for Inactive)
REMARK    1  A    between atoms: N_12  and  C_13 
REMARK    2  A    between atoms: C_13  and  C_14 
REMARK       I    between atoms: C_14  and  N_15 
REMARK    3  A    between atoms: N_15  and  C_16 
ROOT
HETATM    1  C   UNL     1       4.845  35.784  64.487  1.00  0.00     0.048 C 
HETATM    2  C   UNL     1       5.778  34.703  64.025  1.00  0.00    -0.061 A 
HETATM    3  C   UNL     1       5.717  34.224  62.705  1.00  0.00     0.021 A 
HETATM    4  C   UNL     1       6.604  33.211  62.286  1.00  0.00     0.005 A 
HETATM    5  C   UNL     1       7.525  32.698  63.206  1.00  0.00     0.044 A 
HETATM    6  N   UNL     1       8.277  31.743  62.550  1.00  0.00    -0.350 N 
HETATM    7  H   UNL     1       9.033  31.207  62.958  1.00  0.00     0.166 HD
HETATM    8  C   UNL     1       7.862  31.645  61.252  1.00  0.00     0.116 A 
HETATM    9  C   UNL     1       6.829  32.529  61.065  1.00  0.00     0.028 A 
HETATM   10  C   UNL     1       8.382  30.809  60.210  1.00  0.00     0.291 A 
HETATM   11  O   UNL     1       9.329  30.048  60.375  1.00  0.00    -0.264 OA
HETATM   12  N   UNL     1       7.682  30.951  58.996  1.00  0.00    -0.224 N 
HETATM   13  N   UNL     1       6.637  31.877  58.785  1.00  0.00    -0.180 NA
HETATM   14  C   UNL     1       6.224  32.623  59.769  1.00  0.00     0.153 A 
HETATM   15  C   UNL     1       7.595  33.147  64.527  1.00  0.00     0.031 A 
HETATM   16  C   UNL     1       6.706  34.157  64.918  1.00  0.00     0.009 A 
ENDROOT
BRANCH  12  17
HETATM   17  C   UNL     1       8.225  30.325  57.800  1.00  0.00     0.258 C 
BRANCH  17  18
HETATM   18  C   UNL     1       7.829  28.899  57.367  1.00  0.00     0.244 C 
HETATM   19  N   UNL     1       6.845  28.687  56.391  1.00  0.00    -0.321 N 
HETATM   20  C   UNL     1       5.951  29.742  55.927  1.00  0.00     0.159 C 
HETATM   21  O   UNL     1       8.524  27.979  57.824  1.00  0.00    -0.271 OA
BRANCH  19  22
HETATM   22  C   UNL     1       6.647  27.377  55.824  1.00  0.00     0.036 A 
HETATM   23  C   UNL     1       5.810  26.438  56.446  1.00  0.00     0.029 A 
HETATM   24  C   UNL     1       5.660  25.147  55.929  1.00  0.00     0.002 A 
HETATM   25  C   UNL     1       6.338  24.775  54.773  1.00  0.00     0.000 A 
HETATM   26  C   UNL     1       7.166  25.693  54.135  1.00  0.00     0.002 A 
HETATM   27  C   UNL     1       7.324  26.981  54.660  1.00  0.00     0.029 A 
ENDBRANCH  19  22
ENDBRANCH  17  18
ENDBRANCH  12  17
TORSDOF 3
ENDMDL
MODEL 4
REMARK VINA RESULT:      -9.4      4.917      8.134
REMARK  3 active torsions:
REMARK  status: ('A' for Active; 'I' for Inactive)
REMARK    1  A    between atoms: N_12  and  C_13 
REMARK    2  A    between atoms: C_13  and  C_14 
REMARK       I    between atoms: C_14  and  N_15 
REMARK    3  A    between atoms: N_15  and  C_16 
ROOT
HETATM    1  C   UNL     1       8.712  20.299  53.171  1.00  0.00     0.048 C 
HETATM    2  C   UNL     1       8.461  21.683  53.697  1.00  0.00    -0.061 A 
HETATM    3  C   UNL     1       7.858  22.657  52.884  1.00  0.00     0.021 A 
HETATM    4  C   UNL     1       7.626  23.950  53.395  1.00  0.00     0.005 A 
HETATM    5  C   UNL     1       8.012  24.236  54.709  1.00  0.00     0.044 A 
HETATM    6  N   UNL     1       7.665  25.547  54.968  1.00  0.00    -0.350 N 
HETATM    7  H   UNL     1       7.808  26.032  55.844  1.00  0.00     0.166 HD
HETATM    8  C   UNL     1       7.069  26.089  53.864  1.00  0.00     0.116 A 
HETATM    9  C   UNL     1       7.041  25.133  52.880  1.00  0.00     0.028 A 
HETATM   10  C   UNL     1       6.525  27.405  53.700  1.00  0.00     0.291 A 
HETATM   11  O   UNL     1       6.521  28.242  54.596  1.00  0.00    -0.264 OA
HETATM   12  N   UNL     1       6.014  27.627  52.406  1.00  0.00    -0.224 N 
HETATM   13  N   UNL     1       5.954  26.642  51.396  1.00  0.00    -0.180 NA
HETATM   14  C   UNL     1       6.449  25.458  51.615  1.00  0.00     0.153 A 
HETATM   15  C   UNL     1       8.628  23.288  55.532  1.00  0.00     0.031 A 
HETATM   16  C   UNL     1       8.844  22.010  55.003  1.00  0.00     0.009 A 
ENDROOT
BRANCH  12  17
HETATM   17  C   UNL     1       5.246  28.837  52.157  1.00  0.00     0.258 C 
BRANCH  17  18
HETATM   18  C   UNL     1       3.989  28.843  51.265  1.00  0.00     0.244 C 
HETATM   19  N   UNL     1       4.092  28.934  49.869  1.00  0.00    -0.321 N 
HETATM   20  C   UNL     1       5.330  29.300  49.190  1.00  0.00     0.159 C 
HETATM   21  O   UNL     1       2.912  28.622  51.841  1.00  0.00    -0.271 OA
BRANCH  19  22
HETATM   22  C   UNL     1       2.941  28.703  49.034  1.00  0.00     0.036 A 
HETATM   23  C   UNL     1       2.635  27.417  48.563  1.00  0.00     0.029 A 
HETATM   24  C   UNL     1       1.550  27.198  47.707  1.00  0.00     0.002 A 
HETATM   25  C   UNL     1       0.745  28.263  47.314  1.00  0.00     0.000 A 
HETATM   26  C   UNL     1       1.025  29.545  47.777  1.00  0.00     0.002 A 
HETATM   27  C   UNL     1       2.117  29.763  48.624  1.00  0.00     0.029 A 
ENDBRANCH  19  22
ENDBRANCH  17  18
ENDBRANCH  12  17
TORSDOF 3
ENDMDL
MODEL 5
REMARK VINA RESULT:      -9.3      2.019      3.551
REMARK  3 active torsions:
REMARK  status: ('A' for Active; 'I' for Inactive)
REMARK    1  A    between atoms: N_12  and  C_13 
REMARK    2  A    between atoms: C_13  and  C_14 
REMARK       I    between atoms: C_14  and  N_15 
REMARK    3  A    between atoms: N_15  and  C_16 
ROOT
HETATM    1  C   UNL     1       7.365  22.977  54.552  1.00  0.00     0.048 C 
HETATM    2  C   UNL     1       6.846  24.379  54.693  1.00  0.00    -0.061 A 
HETATM    3  C   UNL     1       7.324  25.218  55.713  1.00  0.00     0.021 A 
HETATM    4  C   UNL     1       6.830  26.533  55.828  1.00  0.00     0.005 A 
HETATM    5  C   UNL     1       5.860  26.971  54.919  1.00  0.00     0.044 A 
HETATM    6  N   UNL     1       5.559  28.281  55.234  1.00  0.00    -0.350 N 
HETATM    7  H   UNL     1       4.898  28.868  54.740  1.00  0.00     0.166 HD
HETATM    8  C   UNL     1       6.310  28.680  56.303  1.00  0.00     0.116 A 
HETATM    9  C   UNL     1       7.093  27.623  56.694  1.00  0.00     0.028 A 
HETATM   10  C   UNL     1       6.345  29.964  56.940  1.00  0.00     0.291 A 
HETATM   11  O   UNL     1       5.670  30.915  56.562  1.00  0.00    -0.264 OA
HETATM   12  N   UNL     1       7.223  30.003  58.041  1.00  0.00    -0.224 N 
HETATM   13  N   UNL     1       8.053  28.931  58.434  1.00  0.00    -0.180 NA
HETATM   14  C   UNL     1       7.987  27.795  57.801  1.00  0.00     0.153 A 
HETATM   15  C   UNL     1       5.358  26.150  53.905  1.00  0.00     0.031 A 
HETATM   16  C   UNL     1       5.868  24.850  53.810  1.00  0.00     0.009 A 
ENDROOT
BRANCH  12  17
HETATM   17  C   UNL     1       7.518  31.290  58.652  1.00  0.00     0.258 C 
BRANCH  17  18
HETATM   18  C   UNL     1       6.920  31.711  60.010  1.00  0.00     0.244 C 
HETATM   19  N   UNL     1       7.642  31.545  61.201  1.00  0.00    -0.321 N 
HETATM   20  C   UNL     1       8.853  30.736  61.285  1.00  0.00     0.159 C 
HETATM   21  O   UNL     1       5.842  32.323  59.964  1.00  0.00    -0.271 OA
BRANCH  19  22
HETATM   22  C   UNL     1       7.183  32.150  62.425  1.00  0.00     0.036 A 
HETATM   23  C   UNL     1       5.815  32.206  62.735  1.00  0.00     0.029 A 
HETATM   24  C   UNL     1       5.361  32.842  63.896  1.00  0.00     0.002 A 
HETATM   25  C   UNL     1       6.270  33.426  64.773  1.00  0.00     0.000 A 
HETATM   26  C   UNL     1       7.631  33.374  64.489  1.00  0.00     0.002 A 
HETATM   27  C   UNL     1       8.082  32.747  63.321  1.00  0.00     0.029 A 
ENDBRANCH  19  22
ENDBRANCH  17  18
ENDBRANCH  12  17
TORSDOF 3
ENDMDL
MODEL 6
REMARK VINA RESULT:      -9.2      2.090      9.484
REMARK  3 active torsions:
REMARK  status: ('A' for Active; 'I' for Inactive)
REMARK    1  A    between atoms: N_12  and  C_13 
REMARK    2  A    between atoms: C_13  and  C_14 
REMARK       I    between atoms: C_14  and  N_15 
REMARK    3  A    between atoms: N_15  and  C_16 
ROOT
HETATM    1  C   UNL     1       7.151  33.820  65.691  1.00  0.00     0.048 C 
HETATM    2  C   UNL     1       6.796  33.548  64.258  1.00  0.00    -0.061 A 
HETATM    3  C   UNL     1       7.645  32.777  63.446  1.00  0.00     0.021 A 
HETATM    4  C   UNL     1       7.295  32.527  62.104  1.00  0.00     0.005 A 
HETATM    5  C   UNL     1       6.102  33.065  61.607  1.00  0.00     0.044 A 
HETATM    6  N   UNL     1       5.985  32.666  60.290  1.00  0.00    -0.350 N 
HETATM    7  H   UNL     1       5.215  32.892  59.673  1.00  0.00     0.166 HD
HETATM    8  C   UNL     1       7.058  31.894  59.948  1.00  0.00     0.116 A 
HETATM    9  C   UNL     1       7.884  31.800  61.041  1.00  0.00     0.028 A 
HETATM   10  C   UNL     1       7.328  31.244  58.699  1.00  0.00     0.291 A 
HETATM   11  O   UNL     1       6.568  31.302  57.739  1.00  0.00    -0.264 OA
HETATM   12  N   UNL     1       8.555  30.551  58.697  1.00  0.00    -0.224 N 
HETATM   13  N   UNL     1       9.397  30.425  59.824  1.00  0.00    -0.180 NA
HETATM   14  C   UNL     1       9.085  31.024  60.937  1.00  0.00     0.153 A 
HETATM   15  C   UNL     1       5.249  33.847  62.390  1.00  0.00     0.031 A 
HETATM   16  C   UNL     1       5.617  34.078  63.721  1.00  0.00     0.009 A 
ENDROOT
BRANCH  12  17
HETATM   17  C   UNL     1       8.862  29.677  57.576  1.00  0.00     0.258 C 
BRANCH  17  18
HETATM   18  C   UNL     1       8.148  28.326  57.370  1.00  0.00     0.244 C 
HETATM   19  N   UNL     1       7.994  27.778  56.088  1.00  0.00    -0.321 N 
HETATM   20  C   UNL     1       8.233  28.541  54.868  1.00  0.00     0.159 C 
HETATM   21  O   UNL     1       7.855  27.701  58.401  1.00  0.00    -0.271 OA
BRANCH  19  22
HETATM   22  C   UNL     1       7.543  26.420  55.922  1.00  0.00     0.036 A 
HETATM   23  C   UNL     1       8.160  25.364  56.610  1.00  0.00     0.029 A 
HETATM   24  C   UNL     1       7.762  24.037  56.409  1.00  0.00     0.002 A 
HETATM   25  C   UNL     1       6.730  23.745  55.522  1.00  0.00     0.000 A 
HETATM   26  C   UNL     1       6.099  24.778  54.837  1.00  0.00     0.002 A 
HETATM   27  C   UNL     1       6.506  26.103  55.030  1.00  0.00     0.029 A 
ENDBRANCH  19  22
ENDBRANCH  17  18
ENDBRANCH  12  17
TORSDOF 3
ENDMDL
MODEL 7
REMARK VINA RESULT:      -9.1      1.787      9.047
REMARK  3 active torsions:
REMARK  status: ('A' for Active; 'I' for Inactive)
REMARK    1  A    between atoms: N_12  and  C_13 
REMARK    2  A    between atoms: C_13  and  C_14 
REMARK       I    between atoms: C_14  and  N_15 
REMARK    3  A    between atoms: N_15  and  C_16 
ROOT
HETATM    1  C   UNL     1       7.986  32.700  63.579  1.00  0.00     0.048 C 
HETATM    2  C   UNL     1       7.224  32.679  62.285  1.00  0.00    -0.061 A 
HETATM    3  C   UNL     1       7.555  31.758  61.277  1.00  0.00     0.021 A 
HETATM    4  C   UNL     1       6.826  31.749  60.070  1.00  0.00     0.005 A 
HETATM    5  C   UNL     1       5.786  32.670  59.903  1.00  0.00     0.044 A 
HETATM    6  N   UNL     1       5.229  32.445  58.659  1.00  0.00    -0.350 N 
HETATM    7  H   UNL     1       4.447  32.951  58.265  1.00  0.00     0.166 HD
HETATM    8  C   UNL     1       5.880  31.412  58.046  1.00  0.00     0.116 A 
HETATM    9  C   UNL     1       6.872  30.972  58.887  1.00  0.00     0.028 A 
HETATM   10  C   UNL     1       5.614  30.824  56.766  1.00  0.00     0.291 A 
HETATM   11  O   UNL     1       4.702  31.199  56.037  1.00  0.00    -0.264 OA
HETATM   12  N   UNL     1       6.513  29.789  56.442  1.00  0.00    -0.224 N 
HETATM   13  N   UNL     1       7.518  29.310  57.311  1.00  0.00    -0.180 NA
HETATM   14  C   UNL     1       7.696  29.876  58.470  1.00  0.00     0.153 A 
HETATM   15  C   UNL     1       5.448  33.605  60.885  1.00  0.00     0.031 A 
HETATM   16  C   UNL     1       6.184  33.592  62.076  1.00  0.00     0.009 A 
ENDROOT
BRANCH  12  17
HETATM   17  C   UNL     1       6.239  28.966  55.275  1.00  0.00     0.258 C 
BRANCH  17  18
HETATM   18  C   UNL     1       6.999  27.653  55.000  1.00  0.00     0.244 C 
HETATM   19  N   UNL     1       6.497  26.420  55.443  1.00  0.00    -0.321 N 
HETATM   20  C   UNL     1       5.405  26.310  56.404  1.00  0.00     0.159 C 
HETATM   21  O   UNL     1       7.986  27.741  54.254  1.00  0.00    -0.271 OA
BRANCH  19  22
HETATM   22  C   UNL     1       7.080  25.185  54.984  1.00  0.00     0.036 A 
HETATM   23  C   UNL     1       6.713  24.626  53.751  1.00  0.00     0.029 A 
HETATM   24  C   UNL     1       7.236  23.399  53.327  1.00  0.00     0.002 A 
HETATM   25  C   UNL     1       8.144  22.714  54.128  1.00  0.00     0.000 A 
HETATM   26  C   UNL     1       8.529  23.255  55.351  1.00  0.00     0.002 A 
HETATM   27  C   UNL     1       7.996  24.477  55.777  1.00  0.00     0.029 A 
ENDBRANCH  19  22
ENDBRANCH  17  18
ENDBRANCH  12  17
TORSDOF 3
ENDMDL
MODEL 8
REMARK VINA RESULT:      -8.9      3.294     10.524
REMARK  3 active torsions:
REMARK  status: ('A' for Active; 'I' for Inactive)
REMARK    1  A    between atoms: N_12  and  C_13 
REMARK    2  A    between atoms: C_13  and  C_14 
REMARK       I    between atoms: C_14  and  N_15 
REMARK    3  A    between atoms: N_15  and  C_16 
ROOT
HETATM    1  C   UNL     1       3.330  34.992  66.199  1.00  0.00     0.048 C 
HETATM    2  C   UNL     1       4.602  34.422  65.641  1.00  0.00    -0.061 A 
HETATM    3  C   UNL     1       4.665  33.990  64.306  1.00  0.00     0.021 A 
HETATM    4  C   UNL     1       5.868  33.462  63.796  1.00  0.00     0.005 A 
HETATM    5  C   UNL     1       6.978  33.372  64.643  1.00  0.00     0.044 A 
HETATM    6  N   UNL     1       8.020  32.843  63.908  1.00  0.00    -0.350 N 
HETATM    7  H   UNL     1       8.957  32.674  64.251  1.00  0.00     0.166 HD
HETATM    8  C   UNL     1       7.602  32.604  62.629  1.00  0.00     0.116 A 
HETATM    9  C   UNL     1       6.282  32.966  62.535  1.00  0.00     0.028 A 
HETATM   10  C   UNL     1       8.359  32.091  61.525  1.00  0.00     0.291 A 
HETATM   11  O   UNL     1       9.548  31.805  61.606  1.00  0.00    -0.264 OA
HETATM   12  N   UNL     1       7.588  31.946  60.354  1.00  0.00    -0.224 N 
HETATM   13  N   UNL     1       6.237  32.342  60.240  1.00  0.00    -0.180 NA
HETATM   14  C   UNL     1       5.611  32.819  61.276  1.00  0.00     0.153 A 
HETATM   15  C   UNL     1       6.936  33.781  65.980  1.00  0.00     0.031 A 
HETATM   16  C   UNL     1       5.730  34.306  66.460  1.00  0.00     0.009 A 
ENDROOT
BRANCH  12  17
HETATM   17  C   UNL     1       8.266  31.637  59.105  1.00  0.00     0.258 C 
BRANCH  17  18
HETATM   18  C   UNL     1       7.768  30.532  58.152  1.00  0.00     0.244 C 
HETATM   19  N   UNL     1       8.671  29.697  57.477  1.00  0.00    -0.321 N 
HETATM   20  C   UNL     1      10.101  29.976  57.404  1.00  0.00     0.159 C 
HETATM   21  O   UNL     1       6.542  30.340  58.134  1.00  0.00    -0.271 OA
BRANCH  19  22
HETATM   22  C   UNL     1       8.204  28.526  56.780  1.00  0.00     0.036 A 
HETATM   23  C   UNL     1       8.126  27.283  57.426  1.00  0.00     0.029 A 
HETATM   24  C   UNL     1       7.726  26.132  56.737  1.00  0.00     0.002 A 
HETATM   25  C   UNL     1       7.388  26.208  55.390  1.00  0.00     0.000 A 
HETATM   26  C   UNL     1       7.450  27.433  54.732  1.00  0.00     0.002 A 
HETATM   27  C   UNL     1       7.861  28.580  55.421  1.00  0.00     0.029 A 
ENDBRANCH  19  22
ENDBRANCH  17  18
ENDBRANCH  12  17
TORSDOF 3
ENDMDL
MODEL 9
REMARK VINA RESULT:      -8.8      1.876      9.405
REMARK  3 active torsions:
REMARK  status: ('A' for Active; 'I' for Inactive)
REMARK    1  A    between atoms: N_12  and  C_13 
REMARK    2  A    between atoms: C_13  and  C_14 
REMARK       I    between atoms: C_14  and  N_15 
REMARK    3  A    between atoms: N_15  and  C_16 
ROOT
HETATM    1  C   UNL     1       4.748  34.751  62.862  1.00  0.00     0.048 C 
HETATM    2  C   UNL     1       5.764  33.787  62.321  1.00  0.00    -0.061 A 
HETATM    3  C   UNL     1       5.593  33.206  61.054  1.00  0.00     0.021 A 
HETATM    4  C   UNL     1       6.559  32.307  60.559  1.00  0.00     0.005 A 
HETATM    5  C   UNL     1       7.671  32.006  61.354  1.00  0.00     0.044 A 
HETATM    6  N   UNL     1       8.462  31.126  60.643  1.00  0.00    -0.350 N 
HETATM    7  H   UNL     1       9.344  30.740  60.959  1.00  0.00     0.166 HD
HETATM    8  C   UNL     1       7.888  30.869  59.431  1.00  0.00     0.116 A 
HETATM    9  C   UNL     1       6.713  31.574  59.356  1.00  0.00     0.028 A 
HETATM   10  C   UNL     1       8.380  30.043  58.367  1.00  0.00     0.291 A 
HETATM   11  O   UNL     1       9.449  29.446  58.426  1.00  0.00    -0.264 OA
HETATM   12  N   UNL     1       7.501  29.988  57.267  1.00  0.00    -0.224 N 
HETATM   13  N   UNL     1       6.304  30.731  57.169  1.00  0.00    -0.180 NA
HETATM   14  C   UNL     1       5.923  31.479  58.163  1.00  0.00     0.153 A 
HETATM   15  C   UNL     1       7.856  32.560  62.624  1.00  0.00     0.031 A 
HETATM   16  C   UNL     1       6.884  33.453  63.091  1.00  0.00     0.009 A 
ENDROOT
BRANCH  12  17
HETATM   17  C   UNL     1       7.960  29.361  56.038  1.00  0.00     0.258 C 
BRANCH  17  18
HETATM   18  C   UNL     1       7.830  27.844  55.791  1.00  0.00     0.244 C 
HETATM   19  N   UNL     1       7.100  27.349  54.701  1.00  0.00    -0.321 N 
HETATM   20  C   UNL     1       6.207  28.181  53.904  1.00  0.00     0.159 C 
HETATM   21  O   UNL     1       8.516  27.113  56.521  1.00  0.00    -0.271 OA
BRANCH  19  22
HETATM   22  C   UNL     1       7.177  25.956  54.341  1.00  0.00     0.036 A 
HETATM   23  C   UNL     1       6.679  24.960  55.195  1.00  0.00     0.029 A 
HETATM   24  C   UNL     1       6.802  23.603  54.875  1.00  0.00     0.002 A 
HETATM   25  C   UNL     1       7.419  23.219  53.688  1.00  0.00     0.000 A 
HETATM   26  C   UNL     1       7.912  24.191  52.823  1.00  0.00     0.002 A 
HETATM   27  C   UNL     1       7.798  25.547  53.151  1.00  0.00     0.029 A 
ENDBRANCH  19  22
ENDBRANCH  17  18
ENDBRANCH  12  17
TORSDOF 3
ENDMDL
MODEL 10
REMARK VINA RESULT:      -8.8      5.328      9.226
REMARK  3 active torsions:
REMARK  status: ('A' for Active; 'I' for Inactive)
REMARK    1  A    between atoms: N_12  and  C_13 
REMARK    2  A    between atoms: C_13  and  C_14 
REMARK       I    between atoms: C_14  and  N_15 
REMARK    3  A    between atoms: N_15  and  C_16 
ROOT
HETATM    1  C   UNL     1       2.262  31.210  46.240  1.00  0.00     0.048 C 
HETATM    2  C   UNL     1       2.587  29.968  47.019  1.00  0.00    -0.061 A 
HETATM    3  C   UNL     1       3.498  30.014  48.088  1.00  0.00     0.021 A 
HETATM    4  C   UNL     1       3.788  28.839  48.811  1.00  0.00     0.005 A 
HETATM    5  C   UNL     1       3.162  27.645  48.438  1.00  0.00     0.044 A 
HETATM    6  N   UNL     1       3.598  26.660  49.302  1.00  0.00    -0.350 N 
HETATM    7  H   UNL     1       3.306  25.691  49.287  1.00  0.00     0.166 HD
HETATM    8  C   UNL     1       4.470  27.198  50.206  1.00  0.00     0.116 A 
HETATM    9  C   UNL     1       4.613  28.533  49.922  1.00  0.00     0.028 A 
HETATM   10  C   UNL     1       5.137  26.550  51.298  1.00  0.00     0.291 A 
HETATM   11  O   UNL     1       4.976  25.365  51.568  1.00  0.00    -0.264 OA
HETATM   12  N   UNL     1       5.993  27.415  52.006  1.00  0.00    -0.224 N 
HETATM   13  N   UNL     1       6.125  28.796  51.740  1.00  0.00    -0.180 NA
HETATM   14  C   UNL     1       5.477  29.328  50.744  1.00  0.00     0.153 A 
HETATM   15  C   UNL     1       2.264  27.571  47.369  1.00  0.00     0.031 A 
HETATM   16  C   UNL     1       1.989  28.752  46.669  1.00  0.00     0.009 A 
ENDROOT
BRANCH  12  17
HETATM   17  C   UNL     1       6.572  26.954  53.258  1.00  0.00     0.258 C 
BRANCH  17  18
HETATM   18  C   UNL     1       7.402  25.658  53.351  1.00  0.00     0.244 C 
HETATM   19  N   UNL     1       7.074  24.653  54.273  1.00  0.00    -0.321 N 
HETATM   20  C   UNL     1       6.132  24.860  55.367  1.00  0.00     0.159 C 
HETATM   21  O   UNL     1       8.272  25.505  52.480  1.00  0.00    -0.271 OA
BRANCH  19  22
HETATM   22  C   UNL     1       7.699  23.357  54.196  1.00  0.00     0.036 A 
HETATM   23  C   UNL     1       8.715  22.991  55.091  1.00  0.00     0.029 A 
HETATM   24  C   UNL     1       9.364  21.755  54.985  1.00  0.00     0.002 A 
HETATM   25  C   UNL     1       8.999  20.859  53.984  1.00  0.00     0.000 A 
HETATM   26  C   UNL     1       7.987  21.200  53.091  1.00  0.00     0.002 A 
HETATM   27  C   UNL     1       7.348  22.441  53.193  1.00  0.00     0.029 A 
ENDBRANCH  19  22
ENDBRANCH  17  18
ENDBRANCH  12  17
TORSDOF 3
ENDMDL
