MODEL 1
REMARK VINA RESULT:     -10.7      0.000      0.000
REMARK  9 active torsions:
REMARK  status: ('A' for Active; 'I' for Inactive)
REMARK    1  A    between atoms: N_2  and  C_4 
REMARK    2  A    between atoms: C_4  and  C_5 
REMARK    3  A    between atoms: N_6  and  C_7 
REMARK    4  A    between atoms: C_11  and  N_12 
REMARK    5  A    between atoms: C_15  and  C_16 
REMARK       I    between atoms: C_16  and  N_17 
REMARK    6  A    between atoms: N_17  and  N_18 
REMARK    7  A    between atoms: C_19  and  C_20 
REMARK    8  A    between atoms: C_21  and  C_22 
REMARK    9  A    between atoms: N_29  and  C_30 
ROOT
HETATM    1  C   UNL     1       5.179  29.924  56.186  1.00  0.00     0.293 C 
HETATM    2  N   UNL     1       5.926  29.747  55.036  1.00  0.00    -0.242 N 
HETATM    3  O   UNL     1       4.056  29.473  56.397  1.00  0.00    -0.264 OA
HETATM    4  H   UNL     1       6.841  30.185  54.948  1.00  0.00     0.192 HD
ENDROOT
BRANCH   2   5
HETATM    5  N   UNL     1       5.407  29.019  54.005  1.00  0.00    -0.183 NA
HETATM    6  C   UNL     1       6.209  28.169  53.449  1.00  0.00     0.154 C 
BRANCH   6   7
HETATM    7  C   UNL     1       5.724  27.376  52.346  1.00  0.00     0.032 A 
HETATM    8  C   UNL     1       5.847  25.978  52.124  1.00  0.00     0.101 A 
HETATM    9  N   UNL     1       5.208  25.613  51.004  1.00  0.00    -0.166 NA
HETATM   10  N   UNL     1       4.719  26.756  50.466  1.00  0.00    -0.244 N 
HETATM   11  C   UNL     1       5.017  27.841  51.256  1.00  0.00     0.134 A 
BRANCH   8  12
HETATM   12  C   UNL     1       6.559  24.982  52.926  1.00  0.00    -0.005 A 
HETATM   13  C   UNL     1       7.595  24.231  52.356  1.00  0.00     0.014 A 
HETATM   14  C   UNL     1       8.284  23.284  53.115  1.00  0.00     0.001 A 
HETATM   15  C   UNL     1       7.948  23.083  54.453  1.00  0.00     0.000 A 
HETATM   16  C   UNL     1       6.931  23.836  55.036  1.00  0.00     0.001 A 
HETATM   17  C   UNL     1       6.242  24.786  54.278  1.00  0.00     0.014 A 
ENDBRANCH   8  12
BRANCH  10  18
HETATM   18  C   UNL     1       3.996  26.736  49.240  1.00  0.00     0.058 A 
HETATM   19  C   UNL     1       3.659  25.504  48.660  1.00  0.00     0.031 A 
HETATM   20  C   UNL     1       2.953  25.461  47.455  1.00  0.00     0.002 A 
HETATM   21  C   UNL     1       2.578  26.645  46.824  1.00  0.00     0.000 A 
HETATM   22  C   UNL     1       2.907  27.873  47.394  1.00  0.00     0.002 A 
HETATM   23  C   UNL     1       3.616  27.924  48.599  1.00  0.00     0.031 A 
ENDBRANCH  10  18
ENDBRANCH   6   7
ENDBRANCH   2   5
BRANCH   1  24
HETATM   24  C   UNL     1       5.836  30.743  57.195  1.00  0.00     0.170 A 
HETATM   25  C   UNL     1       6.882  30.362  58.024  1.00  0.00     0.096 A 
HETATM   26  N   UNL     1       7.195  31.518  58.736  1.00  0.00    -0.215 N 
HETATM   27  N   UNL     1       6.289  32.481  58.420  1.00  0.00     0.012 NA
HETATM   28  N   UNL     1       5.484  32.030  57.474  1.00  0.00    -0.152 NA
BRANCH  25  29
HETATM   29  C   UNL     1       7.492  29.028  58.237  1.00  0.00     0.295 C 
BRANCH  29  30
HETATM   30  N   UNL     1       8.280  28.486  57.071  1.00  0.00    -0.073 N 
HETATM   31  C   UNL     1       8.263  26.985  56.981  1.00  0.00     0.269 C 
HETATM   32  H   UNL     1       7.853  28.870  56.216  1.00  0.00     0.279 HD
HETATM   33  C   UNL     1       9.694  29.002  57.088  1.00  0.00     0.269 C 
ENDBRANCH  29  30
ENDBRANCH  25  29
BRANCH  26  34
HETATM   34  C   UNL     1       8.282  31.750  59.611  1.00  0.00     0.225 A 
HETATM   35  N   UNL     1       9.400  32.316  59.149  1.00  0.00    -0.081 NA
HETATM   36  O   UNL     1      10.218  32.400  60.281  1.00  0.00    -0.103 OA
HETATM   37  N   UNL     1       9.569  31.915  61.405  1.00  0.00    -0.083 NA
HETATM   38  C   UNL     1       8.367  31.513  60.993  1.00  0.00     0.201 A 
BRANCH  38  39
HETATM   39  N   UNL     1       7.429  30.977  61.788  1.00  0.00    -0.379 N 
HETATM   40  H   UNL     1       7.668  30.218  62.421  1.00  0.00     0.158 HD
HETATM   41  H   UNL     1       6.520  31.402  61.961  1.00  0.00     0.158 HD
ENDBRANCH  38  39
ENDBRANCH  26  34
ENDBRANCH   1  24
TORSDOF 9
ENDMDL
MODEL 2
REMARK VINA RESULT:     -10.3      3.137      5.765
REMARK  9 active torsions:
REMARK  status: ('A' for Active; 'I' for Inactive)
REMARK    1  A    between atoms: N_2  and  C_4 
REMARK    2  A    between atoms: C_4  and  C_5 
REMARK    3  A    between atoms: N_6  and  C_7 
REMARK    4  A    between atoms: C_11  and  N_12 
REMARK    5  A    between atoms: C_15  and  C_16 
REMARK       I    between atoms: C_16  and  N_17 
REMARK    6  A    between atoms: N_17  and  N_18 
REMARK    7  A    between atoms: C_19  and  C_20 
REMARK    8  A    between atoms: C_21  and  C_22 
REMARK    9  A    between atoms: N_29  and  C_30 
ROOT
HETATM    1  C   UNL     1       8.348  29.682  58.508  1.00  0.00     0.293 C 
HETATM    2  N   UNL     1       7.481  28.608  58.408  1.00  0.00    -0.242 N 
HETATM    3  O   UNL     1       9.230  29.977  57.707  1.00  0.00    -0.264 OA
HETATM    4  H   UNL     1       6.797  28.433  59.141  1.00  0.00     0.192 HD
ENDROOT
BRANCH   2   5
HETATM    5  N   UNL     1       7.584  27.761  57.344  1.00  0.00    -0.183 NA
HETATM    6  C   UNL     1       6.796  26.734  57.356  1.00  0.00     0.154 C 
BRANCH   6   7
HETATM    7  C   UNL     1       6.863  25.795  56.264  1.00  0.00     0.032 A 
HETATM    8  C   UNL     1       6.470  25.965  54.909  1.00  0.00     0.101 A 
HETATM    9  N   UNL     1       6.747  24.870  54.189  1.00  0.00    -0.166 NA
HETATM   10  N   UNL     1       7.264  23.972  55.061  1.00  0.00    -0.244 N 
HETATM   11  C   UNL     1       7.345  24.503  56.327  1.00  0.00     0.134 A 
BRANCH   8  12
HETATM   12  C   UNL     1       5.828  27.120  54.280  1.00  0.00    -0.005 A 
HETATM   13  C   UNL     1       4.731  27.737  54.897  1.00  0.00     0.014 A 
HETATM   14  C   UNL     1       4.117  28.843  54.308  1.00  0.00     0.001 A 
HETATM   15  C   UNL     1       4.596  29.347  53.100  1.00  0.00     0.000 A 
HETATM   16  C   UNL     1       5.696  28.753  52.486  1.00  0.00     0.001 A 
HETATM   17  C   UNL     1       6.314  27.647  53.075  1.00  0.00     0.014 A 
ENDBRANCH   8  12
BRANCH  10  18
HETATM   18  C   UNL     1       7.651  22.672  54.630  1.00  0.00     0.058 A 
HETATM   19  C   UNL     1       7.889  21.672  55.586  1.00  0.00     0.031 A 
HETATM   20  C   UNL     1       8.271  20.390  55.184  1.00  0.00     0.002 A 
HETATM   21  C   UNL     1       8.418  20.097  53.830  1.00  0.00     0.000 A 
HETATM   22  C   UNL     1       8.181  21.084  52.874  1.00  0.00     0.002 A 
HETATM   23  C   UNL     1       7.799  22.371  53.268  1.00  0.00     0.031 A 
ENDBRANCH  10  18
ENDBRANCH   6   7
ENDBRANCH   2   5
BRANCH   1  24
HETATM   24  C   UNL     1       8.149  30.489  59.704  1.00  0.00     0.170 A 
HETATM   25  C   UNL     1       7.128  31.399  59.935  1.00  0.00     0.096 A 
HETATM   26  N   UNL     1       7.344  31.834  61.241  1.00  0.00    -0.215 N 
HETATM   27  N   UNL     1       8.506  31.293  61.693  1.00  0.00     0.012 NA
HETATM   28  N   UNL     1       8.983  30.460  60.783  1.00  0.00    -0.152 NA
BRANCH  25  29
HETATM   29  C   UNL     1       6.091  31.921  59.014  1.00  0.00     0.295 C 
BRANCH  29  30
HETATM   30  N   UNL     1       4.800  31.142  58.990  1.00  0.00    -0.073 N 
HETATM   31  C   UNL     1       4.500  30.517  57.654  1.00  0.00     0.269 C 
HETATM   32  H   UNL     1       4.890  30.391  59.690  1.00  0.00     0.279 HD
HETATM   33  C   UNL     1       3.647  31.993  59.450  1.00  0.00     0.269 C 
ENDBRANCH  29  30
ENDBRANCH  25  29
BRANCH  26  34
HETATM   34  C   UNL     1       6.518  32.652  62.048  1.00  0.00     0.225 A 
HETATM   35  N   UNL     1       6.751  33.966  62.122  1.00  0.00    -0.081 NA
HETATM   36  O   UNL     1       5.743  34.430  62.975  1.00  0.00    -0.103 OA
HETATM   37  N   UNL     1       4.906  33.398  63.371  1.00  0.00    -0.083 NA
HETATM   38  C   UNL     1       5.383  32.295  62.795  1.00  0.00     0.201 A 
BRANCH  38  39
HETATM   39  N   UNL     1       4.848  31.072  62.931  1.00  0.00    -0.379 N 
HETATM   40  H   UNL     1       4.567  30.737  63.848  1.00  0.00     0.158 HD
HETATM   41  H   UNL     1       4.510  30.510  62.152  1.00  0.00     0.158 HD
ENDBRANCH  38  39
ENDBRANCH  26  34
ENDBRANCH   1  24
TORSDOF 9
ENDMDL
MODEL 3
REMARK VINA RESULT:     -10.2      1.688      2.750
REMARK  9 active torsions:
REMARK  status: ('A' for Active; 'I' for Inactive)
REMARK    1  A    between atoms: N_2  and  C_4 
REMARK    2  A    between atoms: C_4  and  C_5 
REMARK    3  A    between atoms: N_6  and  C_7 
REMARK    4  A    between atoms: C_11  and  N_12 
REMARK    5  A    between atoms: C_15  and  C_16 
REMARK       I    between atoms: C_16  and  N_17 
REMARK    6  A    between atoms: N_17  and  N_18 
REMARK    7  A    between atoms: C_19  and  C_20 
REMARK    8  A    between atoms: C_21  and  C_22 
REMARK    9  A    between atoms: N_29  and  C_30 
ROOT
HETATM    1  C   UNL     1       6.699  29.605  56.756  1.00  0.00     0.293 C 
HETATM    2  N   UNL     1       6.824  28.260  56.461  1.00  0.00    -0.242 N 
HETATM    3  O   UNL     1       6.115  30.444  56.076  1.00  0.00    -0.264 OA
HETATM    4  H   UNL     1       7.351  27.647  57.080  1.00  0.00     0.192 HD
ENDROOT
BRANCH   2   5
HETATM    5  N   UNL     1       6.274  27.772  55.312  1.00  0.00    -0.183 NA
HETATM    6  C   UNL     1       7.108  27.436  54.381  1.00  0.00     0.154 C 
BRANCH   6   7
HETATM    7  C   UNL     1       6.588  26.922  53.137  1.00  0.00     0.032 A 
HETATM    8  C   UNL     1       6.523  25.578  52.679  1.00  0.00     0.101 A 
HETATM    9  N   UNL     1       5.915  25.508  51.487  1.00  0.00    -0.166 NA
HETATM   10  N   UNL     1       5.632  26.786  51.138  1.00  0.00    -0.244 N 
HETATM   11  C   UNL     1       6.030  27.665  52.117  1.00  0.00     0.134 A 
BRANCH   8  12
HETATM   12  C   UNL     1       7.030  24.366  53.322  1.00  0.00    -0.005 A 
HETATM   13  C   UNL     1       7.794  23.448  52.589  1.00  0.00     0.014 A 
HETATM   14  C   UNL     1       8.288  22.292  53.197  1.00  0.00     0.001 A 
HETATM   15  C   UNL     1       8.027  22.045  54.544  1.00  0.00     0.000 A 
HETATM   16  C   UNL     1       7.282  22.959  55.287  1.00  0.00     0.001 A 
HETATM   17  C   UNL     1       6.790  24.117  54.682  1.00  0.00     0.014 A 
ENDBRANCH   8  12
BRANCH  10  18
HETATM   18  C   UNL     1       4.997  27.082  49.898  1.00  0.00     0.058 A 
HETATM   19  C   UNL     1       5.148  28.360  49.336  1.00  0.00     0.031 A 
HETATM   20  C   UNL     1       4.531  28.672  48.123  1.00  0.00     0.002 A 
HETATM   21  C   UNL     1       3.764  27.715  47.462  1.00  0.00     0.000 A 
HETATM   22  C   UNL     1       3.612  26.444  48.013  1.00  0.00     0.002 A 
HETATM   23  C   UNL     1       4.225  26.123  49.229  1.00  0.00     0.031 A 
ENDBRANCH  10  18
ENDBRANCH   6   7
ENDBRANCH   2   5
BRANCH   1  24
HETATM   24  C   UNL     1       7.354  30.000  57.995  1.00  0.00     0.170 A 
HETATM   25  C   UNL     1       6.946  30.993  58.874  1.00  0.00     0.096 A 
HETATM   26  N   UNL     1       7.855  30.916  59.926  1.00  0.00    -0.215 N 
HETATM   27  N   UNL     1       8.813  30.006  59.607  1.00  0.00     0.012 NA
HETATM   28  N   UNL     1       8.503  29.431  58.458  1.00  0.00    -0.152 NA
BRANCH  25  29
HETATM   29  C   UNL     1       5.877  32.010  58.732  1.00  0.00     0.295 C 
BRANCH  29  30
HETATM   30  N   UNL     1       4.580  31.682  59.426  1.00  0.00    -0.073 N 
HETATM   31  C   UNL     1       3.598  30.951  58.550  1.00  0.00     0.269 C 
HETATM   32  H   UNL     1       4.812  31.081  60.229  1.00  0.00     0.279 HD
HETATM   33  C   UNL     1       3.952  32.919  60.010  1.00  0.00     0.269 C 
ENDBRANCH  29  30
ENDBRANCH  25  29
BRANCH  26  34
HETATM   34  C   UNL     1       7.827  31.592  61.169  1.00  0.00     0.225 A 
HETATM   35  N   UNL     1       7.308  32.821  61.248  1.00  0.00    -0.081 NA
HETATM   36  O   UNL     1       7.434  33.144  62.603  1.00  0.00    -0.103 OA
HETATM   37  N   UNL     1       7.994  32.097  63.319  1.00  0.00    -0.083 NA
HETATM   38  C   UNL     1       8.236  31.132  62.432  1.00  0.00     0.201 A 
BRANCH  38  39
HETATM   39  N   UNL     1       8.781  29.943  62.730  1.00  0.00    -0.379 N 
HETATM   40  H   UNL     1       9.792  29.836  62.755  1.00  0.00     0.158 HD
HETATM   41  H   UNL     1       8.262  29.166  63.135  1.00  0.00     0.158 HD
ENDBRANCH  38  39
ENDBRANCH  26  34
ENDBRANCH   1  24
TORSDOF 9
ENDMDL
MODEL 4
REMARK VINA RESULT:     -10.1      1.383      2.475
REMARK  9 active torsions:
REMARK  status: ('A' for Active; 'I' for Inactive)
REMARK    1  A    between atoms: N_2  and  C_4 
REMARK    2  A    between atoms: C_4  and  C_5 
REMARK    3  A    between atoms: N_6  and  C_7 
REMARK    4  A    between atoms: C_11  and  N_12 
REMARK    5  A    between atoms: C_15  and  C_16 
REMARK       I    between atoms: C_16  and  N_17 
REMARK    6  A    between atoms: N_17  and  N_18 
REMARK    7  A    between atoms: C_19  and  C_20 
REMARK    8  A    between atoms: C_21  and  C_22 
REMARK    9  A    between atoms: N_29  and  C_30 
ROOT
HETATM    1  C   UNL     1       8.322  28.259  56.120  1.00  0.00     0.293 C 
HETATM    2  N   UNL     1       8.257  28.804  54.850  1.00  0.00    -0.242 N 
HETATM    3  O   UNL     1       8.017  27.112  56.431  1.00  0.00    -0.264 OA
HETATM    4  H   UNL     1       8.510  29.778  54.698  1.00  0.00     0.192 HD
ENDROOT
BRANCH   2   5
HETATM    5  N   UNL     1       7.806  28.038  53.815  1.00  0.00    -0.183 NA
HETATM    6  C   UNL     1       6.540  28.121  53.555  1.00  0.00     0.154 C 
BRANCH   6   7
HETATM    7  C   UNL     1       6.000  27.328  52.479  1.00  0.00     0.032 A 
HETATM    8  C   UNL     1       6.028  25.918  52.302  1.00  0.00     0.101 A 
HETATM    9  N   UNL     1       5.363  25.561  51.194  1.00  0.00    -0.166 NA
HETATM   10  N   UNL     1       4.949  26.716  50.621  1.00  0.00    -0.244 N 
HETATM   11  C   UNL     1       5.322  27.804  51.375  1.00  0.00     0.134 A 
BRANCH   8  12
HETATM   12  C   UNL     1       6.675  24.903  53.134  1.00  0.00    -0.005 A 
HETATM   13  C   UNL     1       6.298  24.750  54.476  1.00  0.00     0.014 A 
HETATM   14  C   UNL     1       6.905  23.781  55.276  1.00  0.00     0.001 A 
HETATM   15  C   UNL     1       7.891  22.952  54.742  1.00  0.00     0.000 A 
HETATM   16  C   UNL     1       8.262  23.084  53.405  1.00  0.00     0.001 A 
HETATM   17  C   UNL     1       7.654  24.051  52.603  1.00  0.00     0.014 A 
ENDBRANCH   8  12
BRANCH  10  18
HETATM   18  C   UNL     1       4.223  26.706  49.396  1.00  0.00     0.058 A 
HETATM   19  C   UNL     1       3.777  25.483  48.871  1.00  0.00     0.031 A 
HETATM   20  C   UNL     1       3.066  25.449  47.670  1.00  0.00     0.002 A 
HETATM   21  C   UNL     1       2.793  26.632  46.987  1.00  0.00     0.000 A 
HETATM   22  C   UNL     1       3.230  27.851  47.503  1.00  0.00     0.002 A 
HETATM   23  C   UNL     1       3.945  27.893  48.704  1.00  0.00     0.031 A 
ENDBRANCH  10  18
ENDBRANCH   6   7
ENDBRANCH   2   5
BRANCH   1  24
HETATM   24  C   UNL     1       8.793  29.190  57.136  1.00  0.00     0.170 A 
HETATM   25  C   UNL     1       8.013  29.930  58.013  1.00  0.00     0.096 A 
HETATM   26  N   UNL     1       8.935  30.589  58.822  1.00  0.00    -0.215 N 
HETATM   27  N   UNL     1      10.185  30.337  58.350  1.00  0.00     0.012 NA
HETATM   28  N   UNL     1      10.109  29.474  57.351  1.00  0.00    -0.152 NA
BRANCH  25  29
HETATM   29  C   UNL     1       6.542  30.114  58.058  1.00  0.00     0.295 C 
BRANCH  29  30
HETATM   30  N   UNL     1       5.984  31.086  57.050  1.00  0.00    -0.073 N 
HETATM   31  C   UNL     1       5.367  32.309  57.672  1.00  0.00     0.269 C 
HETATM   32  H   UNL     1       6.769  31.383  56.453  1.00  0.00     0.279 HD
HETATM   33  C   UNL     1       5.006  30.406  56.129  1.00  0.00     0.269 C 
ENDBRANCH  29  30
ENDBRANCH  25  29
BRANCH  26  34
HETATM   34  C   UNL     1       8.700  31.360  59.985  1.00  0.00     0.225 A 
HETATM   35  N   UNL     1       8.315  32.635  59.871  1.00  0.00    -0.081 NA
HETATM   36  O   UNL     1       8.163  33.051  61.199  1.00  0.00    -0.103 OA
HETATM   37  N   UNL     1       8.427  32.016  62.082  1.00  0.00    -0.083 NA
HETATM   38  C   UNL     1       8.757  30.965  61.332  1.00  0.00     0.201 A 
BRANCH  38  39
HETATM   39  N   UNL     1       9.086  29.758  61.814  1.00  0.00    -0.379 N 
HETATM   40  H   UNL     1       9.927  29.289  61.487  1.00  0.00     0.158 HD
HETATM   41  H   UNL     1       8.664  29.343  62.643  1.00  0.00     0.158 HD
ENDBRANCH  38  39
ENDBRANCH  26  34
ENDBRANCH   1  24
TORSDOF 9
ENDMDL
MODEL 5
REMARK VINA RESULT:      -9.9      2.916      5.529
REMARK  9 active torsions:
REMARK  status: ('A' for Active; 'I' for Inactive)
REMARK    1  A    between atoms: N_2  and  C_4 
REMARK    2  A    between atoms: C_4  and  C_5 
REMARK    3  A    between atoms: N_6  and  C_7 
REMARK    4  A    between atoms: C_11  and  N_12 
REMARK    5  A    between atoms: C_15  and  C_16 
REMARK       I    between atoms: C_16  and  N_17 
REMARK    6  A    between atoms: N_17  and  N_18 
REMARK    7  A    between atoms: C_19  and  C_20 
REMARK    8  A    between atoms: C_21  and  C_22 
REMARK    9  A    between atoms: N_29  and  C_30 
ROOT
HETATM    1  C   UNL     1       5.168  30.396  57.438  1.00  0.00     0.293 C 
HETATM    2  N   UNL     1       5.159  29.031  57.656  1.00  0.00    -0.242 N 
HETATM    3  O   UNL     1       5.604  30.966  56.442  1.00  0.00    -0.264 OA
HETATM    4  H   UNL     1       4.796  28.655  58.530  1.00  0.00     0.192 HD
ENDROOT
BRANCH   2   5
HETATM    5  N   UNL     1       5.683  28.197  56.712  1.00  0.00    -0.183 NA
HETATM    6  C   UNL     1       5.129  27.031  56.613  1.00  0.00     0.154 C 
BRANCH   6   7
HETATM    7  C   UNL     1       5.644  26.099  55.640  1.00  0.00     0.032 A 
HETATM    8  C   UNL     1       5.707  26.222  54.225  1.00  0.00     0.101 A 
HETATM    9  N   UNL     1       6.311  25.158  53.679  1.00  0.00    -0.166 NA
HETATM   10  N   UNL     1       6.594  24.322  54.707  1.00  0.00    -0.244 N 
HETATM   11  C   UNL     1       6.200  24.864  55.907  1.00  0.00     0.134 A 
BRANCH   8  12
HETATM   12  C   UNL     1       5.202  27.302  53.377  1.00  0.00    -0.005 A 
HETATM   13  C   UNL     1       3.851  27.670  53.439  1.00  0.00     0.014 A 
HETATM   14  C   UNL     1       3.362  28.704  52.638  1.00  0.00     0.001 A 
HETATM   15  C   UNL     1       4.219  29.382  51.772  1.00  0.00     0.000 A 
HETATM   16  C   UNL     1       5.567  29.035  51.714  1.00  0.00     0.001 A 
HETATM   17  C   UNL     1       6.059  28.003  52.516  1.00  0.00     0.014 A 
ENDBRANCH   8  12
BRANCH  10  18
HETATM   18  C   UNL     1       7.224  23.067  54.476  1.00  0.00     0.058 A 
HETATM   19  C   UNL     1       7.534  22.241  55.569  1.00  0.00     0.031 A 
HETATM   20  C   UNL     1       8.155  21.007  55.365  1.00  0.00     0.002 A 
HETATM   21  C   UNL     1       8.469  20.588  54.074  1.00  0.00     0.000 A 
HETATM   22  C   UNL     1       8.163  21.401  52.984  1.00  0.00     0.002 A 
HETATM   23  C   UNL     1       7.543  22.639  53.180  1.00  0.00     0.031 A 
ENDBRANCH  10  18
ENDBRANCH   6   7
ENDBRANCH   2   5
BRANCH   1  24
HETATM   24  C   UNL     1       4.606  31.172  58.534  1.00  0.00     0.170 A 
HETATM   25  C   UNL     1       5.303  31.949  59.448  1.00  0.00     0.096 A 
HETATM   26  N   UNL     1       4.310  32.538  60.227  1.00  0.00    -0.215 N 
HETATM   27  N   UNL     1       3.107  32.025  59.858  1.00  0.00     0.012 NA
HETATM   28  N   UNL     1       3.274  31.221  58.821  1.00  0.00    -0.152 NA
BRANCH  25  29
HETATM   29  C   UNL     1       6.763  32.076  59.673  1.00  0.00     0.295 C 
BRANCH  29  30
HETATM   30  N   UNL     1       7.421  30.882  60.317  1.00  0.00    -0.073 N 
HETATM   31  C   UNL     1       8.087  31.197  61.628  1.00  0.00     0.269 C 
HETATM   32  H   UNL     1       6.682  30.185  60.484  1.00  0.00     0.279 HD
HETATM   33  C   UNL     1       8.393  30.228  59.371  1.00  0.00     0.269 C 
ENDBRANCH  29  30
ENDBRANCH  25  29
BRANCH  26  34
HETATM   34  C   UNL     1       4.441  33.545  61.212  1.00  0.00     0.225 A 
HETATM   35  N   UNL     1       4.351  34.832  60.865  1.00  0.00    -0.081 NA
HETATM   36  O   UNL     1       4.505  35.511  62.079  1.00  0.00    -0.103 OA
HETATM   37  N   UNL     1       4.652  34.624  63.134  1.00  0.00    -0.083 NA
HETATM   38  C   UNL     1       4.609  33.404  62.600  1.00  0.00     0.201 A 
BRANCH  38  39
HETATM   39  N   UNL     1       4.717  32.263  63.297  1.00  0.00    -0.379 N 
HETATM   40  H   UNL     1       5.149  32.265  64.217  1.00  0.00     0.158 HD
HETATM   41  H   UNL     1       4.218  31.407  63.064  1.00  0.00     0.158 HD
ENDBRANCH  38  39
ENDBRANCH  26  34
ENDBRANCH   1  24
TORSDOF 9
ENDMDL
MODEL 6
REMARK VINA RESULT:      -9.4      3.628     10.359
REMARK  9 active torsions:
REMARK  status: ('A' for Active; 'I' for Inactive)
REMARK    1  A    between atoms: N_2  and  C_4 
REMARK    2  A    between atoms: C_4  and  C_5 
REMARK    3  A    between atoms: N_6  and  C_7 
REMARK    4  A    between atoms: C_11  and  N_12 
REMARK    5  A    between atoms: C_15  and  C_16 
REMARK       I    between atoms: C_16  and  N_17 
REMARK    6  A    between atoms: N_17  and  N_18 
REMARK    7  A    between atoms: C_19  and  C_20 
REMARK    8  A    between atoms: C_21  and  C_22 
REMARK    9  A    between atoms: N_29  and  C_30 
ROOT
HETATM    1  C   UNL     1       5.027  27.960  49.679  1.00  0.00     0.293 C 
HETATM    2  N   UNL     1       4.970  27.124  50.780  1.00  0.00    -0.242 N 
HETATM    3  O   UNL     1       5.821  28.881  49.510  1.00  0.00    -0.264 OA
HETATM    4  H   UNL     1       4.255  26.402  50.837  1.00  0.00     0.192 HD
ENDROOT
BRANCH   2   5
HETATM    5  N   UNL     1       5.850  27.307  51.807  1.00  0.00    -0.183 NA
HETATM    6  C   UNL     1       5.506  26.800  52.947  1.00  0.00     0.154 C 
BRANCH   6   7
HETATM    7  C   UNL     1       6.388  26.969  54.075  1.00  0.00     0.032 A 
HETATM    8  C   UNL     1       7.265  26.026  54.677  1.00  0.00     0.101 A 
HETATM    9  N   UNL     1       7.961  26.588  55.674  1.00  0.00    -0.166 NA
HETATM   10  N   UNL     1       7.514  27.864  55.767  1.00  0.00    -0.244 N 
HETATM   11  C   UNL     1       6.559  28.123  54.813  1.00  0.00     0.134 A 
BRANCH   8  12
HETATM   12  C   UNL     1       7.454  24.612  54.349  1.00  0.00    -0.005 A 
HETATM   13  C   UNL     1       7.285  23.633  55.338  1.00  0.00     0.014 A 
HETATM   14  C   UNL     1       7.456  22.282  55.033  1.00  0.00     0.001 A 
HETATM   15  C   UNL     1       7.792  21.896  53.736  1.00  0.00     0.000 A 
HETATM   16  C   UNL     1       7.947  22.859  52.741  1.00  0.00     0.001 A 
HETATM   17  C   UNL     1       7.773  24.211  53.044  1.00  0.00     0.014 A 
ENDBRANCH   8  12
BRANCH  10  18
HETATM   18  C   UNL     1       8.030  28.750  56.755  1.00  0.00     0.058 A 
HETATM   19  C   UNL     1       9.390  29.094  56.727  1.00  0.00     0.031 A 
HETATM   20  C   UNL     1       9.918  29.959  57.688  1.00  0.00     0.002 A 
HETATM   21  C   UNL     1       9.094  30.487  58.680  1.00  0.00     0.000 A 
HETATM   22  C   UNL     1       7.742  30.151  58.713  1.00  0.00     0.002 A 
HETATM   23  C   UNL     1       7.206  29.284  57.755  1.00  0.00     0.031 A 
ENDBRANCH  10  18
ENDBRANCH   6   7
ENDBRANCH   2   5
BRANCH   1  24
HETATM   24  C   UNL     1       4.017  27.674  48.670  1.00  0.00     0.170 A 
HETATM   25  C   UNL     1       2.729  28.187  48.614  1.00  0.00     0.096 A 
HETATM   26  N   UNL     1       2.206  27.674  47.429  1.00  0.00    -0.215 N 
HETATM   27  N   UNL     1       3.108  26.808  46.895  1.00  0.00     0.012 NA
HETATM   28  N   UNL     1       4.212  26.824  47.623  1.00  0.00    -0.152 NA
BRANCH  25  29
HETATM   29  C   UNL     1       1.981  28.997  49.604  1.00  0.00     0.295 C 
BRANCH  29  30
HETATM   30  N   UNL     1       1.821  30.455  49.255  1.00  0.00    -0.073 N 
HETATM   31  C   UNL     1       3.118  31.217  49.248  1.00  0.00     0.269 C 
HETATM   32  H   UNL     1       1.413  30.494  48.310  1.00  0.00     0.279 HD
HETATM   33  C   UNL     1       0.819  31.120  50.161  1.00  0.00     0.269 C 
ENDBRANCH  29  30
ENDBRANCH  25  29
BRANCH  26  34
HETATM   34  C   UNL     1       0.983  27.990  46.792  1.00  0.00     0.225 A 
HETATM   35  N   UNL     1      -0.047  27.142  46.872  1.00  0.00    -0.081 NA
HETATM   36  O   UNL     1      -1.061  27.790  46.157  1.00  0.00    -0.103 OA
HETATM   37  N   UNL     1      -0.636  29.023  45.690  1.00  0.00    -0.083 NA
HETATM   38  C   UNL     1       0.631  29.151  46.085  1.00  0.00     0.201 A 
BRANCH  38  39
HETATM   39  N   UNL     1       1.405  30.216  45.829  1.00  0.00    -0.379 N 
HETATM   40  H   UNL     1       2.130  30.161  45.119  1.00  0.00     0.158 HD
HETATM   41  H   UNL     1       1.199  31.159  46.152  1.00  0.00     0.158 HD
ENDBRANCH  38  39
ENDBRANCH  26  34
ENDBRANCH   1  24
TORSDOF 9
ENDMDL
MODEL 7
REMARK VINA RESULT:      -9.3      3.411      5.897
REMARK  9 active torsions:
REMARK  status: ('A' for Active; 'I' for Inactive)
REMARK    1  A    between atoms: N_2  and  C_4 
REMARK    2  A    between atoms: C_4  and  C_5 
REMARK    3  A    between atoms: N_6  and  C_7 
REMARK    4  A    between atoms: C_11  and  N_12 
REMARK    5  A    between atoms: C_15  and  C_16 
REMARK       I    between atoms: C_16  and  N_17 
REMARK    6  A    between atoms: N_17  and  N_18 
REMARK    7  A    between atoms: C_19  and  C_20 
REMARK    8  A    between atoms: C_21  and  C_22 
REMARK    9  A    between atoms: N_29  and  C_30 
ROOT
HETATM    1  C   UNL     1       5.356  32.423  59.345  1.00  0.00     0.293 C 
HETATM    2  N   UNL     1       4.501  31.690  58.543  1.00  0.00    -0.242 N 
HETATM    3  O   UNL     1       6.559  32.586  59.161  1.00  0.00    -0.264 OA
HETATM    4  H   UNL     1       3.519  31.594  58.796  1.00  0.00     0.192 HD
ENDROOT
BRANCH   2   5
HETATM    5  N   UNL     1       4.993  31.059  57.438  1.00  0.00    -0.183 NA
HETATM    6  C   UNL     1       5.187  29.784  57.550  1.00  0.00     0.154 C 
BRANCH   6   7
HETATM    7  C   UNL     1       5.716  29.061  56.421  1.00  0.00     0.032 A 
HETATM    8  C   UNL     1       7.071  28.862  56.037  1.00  0.00     0.101 A 
HETATM    9  N   UNL     1       7.151  28.081  54.952  1.00  0.00    -0.166 NA
HETATM   10  N   UNL     1       5.873  27.812  54.591  1.00  0.00    -0.244 N 
HETATM   11  C   UNL     1       4.981  28.394  55.461  1.00  0.00     0.134 A 
BRANCH   8  12
HETATM   12  C   UNL     1       8.284  29.398  56.654  1.00  0.00    -0.005 A 
HETATM   13  C   UNL     1       8.262  29.834  57.986  1.00  0.00     0.014 A 
HETATM   14  C   UNL     1       9.417  30.341  58.584  1.00  0.00     0.001 A 
HETATM   15  C   UNL     1      10.606  30.411  57.859  1.00  0.00     0.000 A 
HETATM   16  C   UNL     1      10.644  29.965  56.540  1.00  0.00     0.001 A 
HETATM   17  C   UNL     1       9.490  29.455  55.940  1.00  0.00     0.014 A 
ENDBRANCH   8  12
BRANCH  10  18
HETATM   18  C   UNL     1       5.588  27.016  53.446  1.00  0.00     0.058 A 
HETATM   19  C   UNL     1       5.207  25.677  53.616  1.00  0.00     0.031 A 
HETATM   20  C   UNL     1       4.925  24.877  52.506  1.00  0.00     0.002 A 
HETATM   21  C   UNL     1       5.021  25.407  51.222  1.00  0.00     0.000 A 
HETATM   22  C   UNL     1       5.397  26.737  51.044  1.00  0.00     0.002 A 
HETATM   23  C   UNL     1       5.682  27.544  52.150  1.00  0.00     0.031 A 
ENDBRANCH  10  18
ENDBRANCH   6   7
ENDBRANCH   2   5
BRANCH   1  24
HETATM   24  C   UNL     1       4.709  33.021  60.504  1.00  0.00     0.170 A 
HETATM   25  C   UNL     1       5.035  32.816  61.838  1.00  0.00     0.096 A 
HETATM   26  N   UNL     1       4.182  33.669  62.535  1.00  0.00    -0.215 N 
HETATM   27  N   UNL     1       3.323  34.242  61.651  1.00  0.00     0.012 NA
HETATM   28  N   UNL     1       3.651  33.877  60.423  1.00  0.00    -0.152 NA
BRANCH  25  29
HETATM   29  C   UNL     1       5.974  31.848  62.451  1.00  0.00     0.295 C 
BRANCH  29  30
HETATM   30  N   UNL     1       7.432  32.227  62.374  1.00  0.00    -0.073 N 
HETATM   31  C   UNL     1       8.329  31.086  61.978  1.00  0.00     0.269 C 
HETATM   32  H   UNL     1       7.512  32.968  61.664  1.00  0.00     0.279 HD
HETATM   33  C   UNL     1       7.897  32.846  63.666  1.00  0.00     0.269 C 
ENDBRANCH  29  30
ENDBRANCH  25  29
BRANCH  26  34
HETATM   34  C   UNL     1       4.182  33.984  63.914  1.00  0.00     0.225 A 
HETATM   35  N   UNL     1       4.537  33.057  64.809  1.00  0.00    -0.081 NA
HETATM   36  O   UNL     1       4.436  33.727  66.033  1.00  0.00    -0.103 OA
HETATM   37  N   UNL     1       4.055  35.048  65.852  1.00  0.00    -0.083 NA
HETATM   38  C   UNL     1       3.899  35.210  64.539  1.00  0.00     0.201 A 
BRANCH  38  39
HETATM   39  N   UNL     1       3.531  36.359  63.951  1.00  0.00    -0.379 N 
HETATM   40  H   UNL     1       2.642  36.420  63.462  1.00  0.00     0.158 HD
HETATM   41  H   UNL     1       3.984  37.254  64.122  1.00  0.00     0.158 HD
ENDBRANCH  38  39
ENDBRANCH  26  34
ENDBRANCH   1  24
TORSDOF 9
ENDMDL
MODEL 8
REMARK VINA RESULT:      -9.3      2.158      2.772
REMARK  9 active torsions:
REMARK  status: ('A' for Active; 'I' for Inactive)
REMARK    1  A    between atoms: N_2  and  C_4 
REMARK    2  A    between atoms: C_4  and  C_5 
REMARK    3  A    between atoms: N_6  and  C_7 
REMARK    4  A    between atoms: C_11  and  N_12 
REMARK    5  A    between atoms: C_15  and  C_16 
REMARK       I    between atoms: C_16  and  N_17 
REMARK    6  A    between atoms: N_17  and  N_18 
REMARK    7  A    between atoms: C_19  and  C_20 
REMARK    8  A    between atoms: C_21  and  C_22 
REMARK    9  A    between atoms: N_29  and  C_30 
ROOT
HETATM    1  C   UNL     1       4.770  31.060  56.647  1.00  0.00     0.293 C 
HETATM    2  N   UNL     1       4.789  29.694  56.431  1.00  0.00    -0.242 N 
HETATM    3  O   UNL     1       4.982  31.928  55.805  1.00  0.00    -0.264 OA
HETATM    4  H   UNL     1       4.624  29.052  57.204  1.00  0.00     0.192 HD
ENDROOT
BRANCH   2   5
HETATM    5  N   UNL     1       5.077  29.215  55.186  1.00  0.00    -0.183 NA
HETATM    6  C   UNL     1       4.693  28.004  54.940  1.00  0.00     0.154 C 
BRANCH   6   7
HETATM    7  C   UNL     1       4.976  27.436  53.645  1.00  0.00     0.032 A 
HETATM    8  C   UNL     1       5.622  26.211  53.325  1.00  0.00     0.101 A 
HETATM    9  N   UNL     1       5.643  26.014  52.000  1.00  0.00    -0.166 NA
HETATM   10  N   UNL     1       5.071  27.112  51.450  1.00  0.00    -0.244 N 
HETATM   11  C   UNL     1       4.659  27.993  52.422  1.00  0.00     0.134 A 
BRANCH   8  12
HETATM   12  C   UNL     1       6.231  25.234  54.228  1.00  0.00    -0.005 A 
HETATM   13  C   UNL     1       6.824  24.073  53.711  1.00  0.00     0.014 A 
HETATM   14  C   UNL     1       7.413  23.139  54.564  1.00  0.00     0.001 A 
HETATM   15  C   UNL     1       7.420  23.357  55.941  1.00  0.00     0.000 A 
HETATM   16  C   UNL     1       6.848  24.515  56.465  1.00  0.00     0.001 A 
HETATM   17  C   UNL     1       6.260  25.452  55.613  1.00  0.00     0.014 A 
ENDBRANCH   8  12
BRANCH  10  18
HETATM   18  C   UNL     1       4.952  27.246  50.038  1.00  0.00     0.058 A 
HETATM   19  C   UNL     1       5.426  28.411  49.415  1.00  0.00     0.031 A 
HETATM   20  C   UNL     1       5.316  28.564  48.031  1.00  0.00     0.002 A 
HETATM   21  C   UNL     1       4.736  27.558  47.261  1.00  0.00     0.000 A 
HETATM   22  C   UNL     1       4.265  26.397  47.872  1.00  0.00     0.002 A 
HETATM   23  C   UNL     1       4.370  26.237  49.258  1.00  0.00     0.031 A 
ENDBRANCH  10  18
ENDBRANCH   6   7
ENDBRANCH   2   5
BRANCH   1  24
HETATM   24  C   UNL     1       4.478  31.434  58.023  1.00  0.00     0.170 A 
HETATM   25  C   UNL     1       5.394  31.796  59.001  1.00  0.00     0.096 A 
HETATM   26  N   UNL     1       4.609  32.135  60.100  1.00  0.00    -0.215 N 
HETATM   27  N   UNL     1       3.311  31.861  59.807  1.00  0.00     0.012 NA
HETATM   28  N   UNL     1       3.221  31.464  58.549  1.00  0.00    -0.152 NA
BRANCH  25  29
HETATM   29  C   UNL     1       6.876  31.743  58.985  1.00  0.00     0.295 C 
BRANCH  29  30
HETATM   30  N   UNL     1       7.481  30.487  59.559  1.00  0.00    -0.073 N 
HETATM   31  C   UNL     1       8.573  30.750  60.561  1.00  0.00     0.269 C 
HETATM   32  H   UNL     1       6.722  29.975  60.030  1.00  0.00     0.279 HD
HETATM   33  C   UNL     1       7.972  29.575  58.466  1.00  0.00     0.269 C 
ENDBRANCH  29  30
ENDBRANCH  25  29
BRANCH  26  34
HETATM   34  C   UNL     1       5.008  32.720  61.325  1.00  0.00     0.225 A 
HETATM   35  N   UNL     1       5.411  33.994  61.353  1.00  0.00    -0.081 NA
HETATM   36  O   UNL     1       5.697  34.218  62.705  1.00  0.00    -0.103 OA
HETATM   37  N   UNL     1       5.433  33.090  63.466  1.00  0.00    -0.083 NA
HETATM   38  C   UNL     1       5.003  32.161  62.613  1.00  0.00     0.201 A 
BRANCH  38  39
HETATM   39  N   UNL     1       4.641  30.917  62.960  1.00  0.00    -0.379 N 
HETATM   40  H   UNL     1       4.700  30.160  62.284  1.00  0.00     0.158 HD
HETATM   41  H   UNL     1       4.493  30.616  63.922  1.00  0.00     0.158 HD
ENDBRANCH  38  39
ENDBRANCH  26  34
ENDBRANCH   1  24
TORSDOF 9
ENDMDL
MODEL 9
REMARK VINA RESULT:      -9.0      2.790      5.912
REMARK  9 active torsions:
REMARK  status: ('A' for Active; 'I' for Inactive)
REMARK    1  A    between atoms: N_2  and  C_4 
REMARK    2  A    between atoms: C_4  and  C_5 
REMARK    3  A    between atoms: N_6  and  C_7 
REMARK    4  A    between atoms: C_11  and  N_12 
REMARK    5  A    between atoms: C_15  and  C_16 
REMARK       I    between atoms: C_16  and  N_17 
REMARK    6  A    between atoms: N_17  and  N_18 
REMARK    7  A    between atoms: C_19  and  C_20 
REMARK    8  A    between atoms: C_21  and  C_22 
REMARK    9  A    between atoms: N_29  and  C_30 
ROOT
HETATM    1  C   UNL     1       6.465  30.056  57.318  1.00  0.00     0.293 C 
HETATM    2  N   UNL     1       6.858  28.793  57.724  1.00  0.00    -0.242 N 
HETATM    3  O   UNL     1       6.294  30.423  56.159  1.00  0.00    -0.264 OA
HETATM    4  H   UNL     1       6.997  28.594  58.712  1.00  0.00     0.192 HD
ENDROOT
BRANCH   2   5
HETATM    5  N   UNL     1       7.102  27.833  56.785  1.00  0.00    -0.183 NA
HETATM    6  C   UNL     1       6.233  26.876  56.712  1.00  0.00     0.154 C 
BRANCH   6   7
HETATM    7  C   UNL     1       6.439  25.825  55.747  1.00  0.00     0.032 A 
HETATM    8  C   UNL     1       6.124  25.804  54.361  1.00  0.00     0.101 A 
HETATM    9  N   UNL     1       6.527  24.658  53.796  1.00  0.00    -0.166 NA
HETATM   10  N   UNL     1       7.049  23.912  54.799  1.00  0.00    -0.244 N 
HETATM   11  C   UNL     1       7.008  24.591  55.993  1.00  0.00     0.134 A 
BRANCH   8  12
HETATM   12  C   UNL     1       5.443  26.823  53.562  1.00  0.00    -0.005 A 
HETATM   13  C   UNL     1       4.500  27.670  54.159  1.00  0.00     0.014 A 
HETATM   14  C   UNL     1       3.851  28.650  53.406  1.00  0.00     0.001 A 
HETATM   15  C   UNL     1       4.141  28.796  52.051  1.00  0.00     0.000 A 
HETATM   16  C   UNL     1       5.089  27.970  51.449  1.00  0.00     0.001 A 
HETATM   17  C   UNL     1       5.742  26.991  52.202  1.00  0.00     0.014 A 
ENDBRANCH   8  12
BRANCH  10  18
HETATM   18  C   UNL     1       7.555  22.605  54.551  1.00  0.00     0.058 A 
HETATM   19  C   UNL     1       7.841  22.216  53.233  1.00  0.00     0.031 A 
HETATM   20  C   UNL     1       8.336  20.938  52.967  1.00  0.00     0.002 A 
HETATM   21  C   UNL     1       8.551  20.041  54.011  1.00  0.00     0.000 A 
HETATM   22  C   UNL     1       8.271  20.419  55.322  1.00  0.00     0.002 A 
HETATM   23  C   UNL     1       7.774  21.697  55.597  1.00  0.00     0.031 A 
ENDBRANCH  10  18
ENDBRANCH   6   7
ENDBRANCH   2   5
BRANCH   1  24
HETATM   24  C   UNL     1       6.266  30.991  58.416  1.00  0.00     0.170 A 
HETATM   25  C   UNL     1       5.060  31.530  58.843  1.00  0.00     0.096 A 
HETATM   26  N   UNL     1       5.399  32.290  59.960  1.00  0.00    -0.215 N 
HETATM   27  N   UNL     1       6.752  32.288  60.092  1.00  0.00     0.012 NA
HETATM   28  N   UNL     1       7.279  31.487  59.182  1.00  0.00    -0.152 NA
BRANCH  25  29
HETATM   29  C   UNL     1       3.712  31.452  58.232  1.00  0.00     0.295 C 
BRANCH  29  30
HETATM   30  N   UNL     1       3.612  31.977  56.822  1.00  0.00    -0.073 N 
HETATM   31  C   UNL     1       3.136  33.401  56.744  1.00  0.00     0.269 C 
HETATM   32  H   UNL     1       4.557  31.924  56.415  1.00  0.00     0.279 HD
HETATM   33  C   UNL     1       2.751  31.081  55.972  1.00  0.00     0.269 C 
ENDBRANCH  29  30
ENDBRANCH  25  29
BRANCH  26  34
HETATM   34  C   UNL     1       4.543  32.936  60.882  1.00  0.00     0.225 A 
HETATM   35  N   UNL     1       4.222  32.332  62.030  1.00  0.00    -0.081 NA
HETATM   36  O   UNL     1       3.399  33.263  62.672  1.00  0.00    -0.103 OA
HETATM   37  N   UNL     1       3.265  34.418  61.918  1.00  0.00    -0.083 NA
HETATM   38  C   UNL     1       3.976  34.219  60.809  1.00  0.00     0.201 A 
BRANCH  38  39
HETATM   39  N   UNL     1       4.101  35.111  59.814  1.00  0.00    -0.379 N 
HETATM   40  H   UNL     1       3.348  35.764  59.615  1.00  0.00     0.158 HD
HETATM   41  H   UNL     1       4.983  35.328  59.354  1.00  0.00     0.158 HD
ENDBRANCH  38  39
ENDBRANCH  26  34
ENDBRANCH   1  24
TORSDOF 9
ENDMDL
MODEL 10
REMARK VINA RESULT:      -8.9      3.756      9.399
REMARK  9 active torsions:
REMARK  status: ('A' for Active; 'I' for Inactive)
REMARK    1  A    between atoms: N_2  and  C_4 
REMARK    2  A    between atoms: C_4  and  C_5 
REMARK    3  A    between atoms: N_6  and  C_7 
REMARK    4  A    between atoms: C_11  and  N_12 
REMARK    5  A    between atoms: C_15  and  C_16 
REMARK       I    between atoms: C_16  and  N_17 
REMARK    6  A    between atoms: N_17  and  N_18 
REMARK    7  A    between atoms: C_19  and  C_20 
REMARK    8  A    between atoms: C_21  and  C_22 
REMARK    9  A    between atoms: N_29  and  C_30 
ROOT
HETATM    1  C   UNL     1       7.056  27.022  56.033  1.00  0.00     0.293 C 
HETATM    2  N   UNL     1       6.528  27.427  57.245  1.00  0.00    -0.242 N 
HETATM    3  O   UNL     1       7.055  27.670  54.991  1.00  0.00    -0.264 OA
HETATM    4  H   UNL     1       6.556  26.803  58.050  1.00  0.00     0.192 HD
ENDROOT
BRANCH   2   5
HETATM    5  N   UNL     1       5.929  28.649  57.341  1.00  0.00    -0.183 NA
HETATM    6  C   UNL     1       6.694  29.631  57.695  1.00  0.00     0.154 C 
BRANCH   6   7
HETATM    7  C   UNL     1       6.118  30.947  57.825  1.00  0.00     0.032 A 
HETATM    8  C   UNL     1       6.434  31.977  58.753  1.00  0.00     0.101 A 
HETATM    9  N   UNL     1       5.710  33.078  58.509  1.00  0.00    -0.166 NA
HETATM   10  N   UNL     1       4.893  32.766  57.475  1.00  0.00    -0.244 N 
HETATM   11  C   UNL     1       5.115  31.481  57.040  1.00  0.00     0.134 A 
BRANCH   8  12
HETATM   12  C   UNL     1       7.382  31.947  59.866  1.00  0.00    -0.005 A 
HETATM   13  C   UNL     1       8.760  32.007  59.618  1.00  0.00     0.014 A 
HETATM   14  C   UNL     1       9.672  31.986  60.675  1.00  0.00     0.001 A 
HETATM   15  C   UNL     1       9.215  31.909  61.990  1.00  0.00     0.000 A 
HETATM   16  C   UNL     1       7.847  31.864  62.250  1.00  0.00     0.001 A 
HETATM   17  C   UNL     1       6.933  31.888  61.194  1.00  0.00     0.014 A 
ENDBRANCH   8  12
BRANCH  10  18
HETATM   18  C   UNL     1       3.959  33.714  56.969  1.00  0.00     0.058 A 
HETATM   19  C   UNL     1       3.068  34.342  57.852  1.00  0.00     0.031 A 
HETATM   20  C   UNL     1       2.142  35.272  57.376  1.00  0.00     0.002 A 
HETATM   21  C   UNL     1       2.100  35.584  56.019  1.00  0.00     0.000 A 
HETATM   22  C   UNL     1       2.983  34.966  55.135  1.00  0.00     0.002 A 
HETATM   23  C   UNL     1       3.912  34.031  55.604  1.00  0.00     0.031 A 
ENDBRANCH  10  18
ENDBRANCH   6   7
ENDBRANCH   2   5
BRANCH   1  24
HETATM   24  C   UNL     1       7.640  25.688  56.062  1.00  0.00     0.170 A 
HETATM   25  C   UNL     1       7.317  24.620  55.238  1.00  0.00     0.096 A 
HETATM   26  N   UNL     1       8.206  23.615  55.613  1.00  0.00    -0.215 N 
HETATM   27  N   UNL     1       8.920  24.046  56.686  1.00  0.00     0.012 NA
HETATM   28  N   UNL     1       8.604  25.303  56.945  1.00  0.00    -0.152 NA
BRANCH  25  29
HETATM   29  C   UNL     1       6.219  24.474  54.253  1.00  0.00     0.295 C 
BRANCH  29  30
HETATM   30  N   UNL     1       6.625  24.622  52.808  1.00  0.00    -0.073 N 
HETATM   31  C   UNL     1       7.879  25.431  52.617  1.00  0.00     0.269 C 
HETATM   32  H   UNL     1       6.789  23.673  52.443  1.00  0.00     0.279 HD
HETATM   33  C   UNL     1       5.497  25.187  51.986  1.00  0.00     0.269 C 
ENDBRANCH  29  30
ENDBRANCH  25  29
BRANCH  26  34
HETATM   34  C   UNL     1       8.429  22.359  55.001  1.00  0.00     0.225 A 
HETATM   35  N   UNL     1       8.708  22.294  53.696  1.00  0.00    -0.081 NA
HETATM   36  O   UNL     1       8.881  20.925  53.465  1.00  0.00    -0.103 OA
HETATM   37  N   UNL     1       8.736  20.196  54.636  1.00  0.00    -0.083 NA
HETATM   38  C   UNL     1       8.458  21.084  55.591  1.00  0.00     0.201 A 
BRANCH  38  39
HETATM   39  N   UNL     1       8.245  20.776  56.879  1.00  0.00    -0.379 N 
HETATM   40  H   UNL     1       7.624  20.010  57.125  1.00  0.00     0.158 HD
HETATM   41  H   UNL     1       8.815  21.123  57.648  1.00  0.00     0.158 HD
ENDBRANCH  38  39
ENDBRANCH  26  34
ENDBRANCH   1  24
TORSDOF 9
ENDMDL
