MODEL 1
REMARK VINA RESULT:      -9.1      0.000      0.000
REMARK  10 active torsions:
REMARK  status: ('A' for Active; 'I' for Inactive)
REMARK    1  A    between atoms: C_3  and  C_4 
REMARK    2  A    between atoms: C_8  and  N_9 
REMARK    3  A    between atoms: N_9  and  C_10 
REMARK    4  A    between atoms: C_10  and  N_11 
REMARK    5  A    between atoms: N_11  and  N_12 
REMARK       I    between atoms: N_12  and  C_13 
REMARK    6  A    between atoms: C_13  and  C_14 
REMARK    7  A    between atoms: C_14  and  C_15 
REMARK    8  A    between atoms: C_15  and  C_16 
REMARK    9  A    between atoms: C_18  and  O_19 
REMARK   10  A    between atoms: C_20  and  O_21 
ROOT
HETATM    1  N   UNL     1       4.198  26.246  53.153  1.00  0.00    -0.274 N 
HETATM    2  H   UNL     1       3.336  25.702  53.097  1.00  0.00     0.189 HD
ENDROOT
BRANCH   1   3
HETATM    3  C   UNL     1       4.184  27.448  53.809  1.00  0.00     0.191 C 
HETATM    4  S   UNL     1       3.710  28.899  53.114  1.00  0.00    -0.039 SA
BRANCH   3   5
HETATM    5  N   UNL     1       4.614  27.467  55.107  1.00  0.00    -0.331 N 
HETATM    6  H   UNL     1       3.885  27.169  55.755  1.00  0.00     0.168 HD
BRANCH   5   7
HETATM    7  C   UNL     1       5.893  27.708  55.665  1.00  0.00     0.049 A 
HETATM    8  C   UNL     1       6.530  26.695  56.411  1.00  0.00     0.074 A 
HETATM    9  C   UNL     1       7.815  26.933  56.946  1.00  0.00     0.018 A 
HETATM   10  C   UNL     1       8.474  28.138  56.723  1.00  0.00     0.001 A 
HETATM   11  C   UNL     1       7.862  29.121  55.958  1.00  0.00     0.002 A 
HETATM   12  C   UNL     1       6.587  28.905  55.427  1.00  0.00     0.030 A 
BRANCH   8  13
HETATM   13  C   UNL     1       5.867  25.379  56.726  1.00  0.00     0.419 C 
HETATM   14  F   UNL     1       5.553  24.653  55.615  1.00  0.00    -0.166 F 
HETATM   15  F   UNL     1       6.652  24.570  57.489  1.00  0.00    -0.166 F 
HETATM   16  F   UNL     1       4.695  25.515  57.414  1.00  0.00    -0.166 F 
ENDBRANCH   8  13
ENDBRANCH   5   7
ENDBRANCH   3   5
ENDBRANCH   1   3
BRANCH   1  17
HETATM   17  N   UNL     1       5.370  25.490  53.032  1.00  0.00    -0.268 N 
HETATM   18  C   UNL     1       6.124  25.630  51.885  1.00  0.00     0.236 C 
HETATM   19  O   UNL     1       5.752  26.296  50.922  1.00  0.00    -0.272 OA
HETATM   20  H   UNL     1       5.675  24.967  53.850  1.00  0.00     0.190 HD
BRANCH  18  21
HETATM   21  C   UNL     1       7.457  24.918  51.968  1.00  0.00     0.109 C 
BRANCH  21  22
HETATM   22  C   UNL     1       7.921  24.756  53.414  1.00  0.00     0.048 C 
BRANCH  22  23
HETATM   23  C   UNL     1       8.167  23.340  53.896  1.00  0.00    -0.055 A 
HETATM   24  C   UNL     1       8.034  22.296  52.961  1.00  0.00     0.046 A 
HETATM   25  C   UNL     1       8.275  20.980  53.343  1.00  0.00     0.099 A 
HETATM   26  C   UNL     1       8.648  20.687  54.650  1.00  0.00     0.098 A 
HETATM   27  C   UNL     1       8.776  21.694  55.590  1.00  0.00     0.040 A 
HETATM   28  C   UNL     1       8.533  23.020  55.216  1.00  0.00     0.010 A 
BRANCH  25  29
HETATM   29  O   UNL     1       8.163  19.940  52.464  1.00  0.00    -0.358 OA
HETATM   30  H   UNL     1       9.029  19.811  52.038  1.00  0.00     0.218 HD
ENDBRANCH  25  29
BRANCH  26  31
HETATM   31  O   UNL     1       8.893  19.394  55.016  1.00  0.00    -0.358 OA
HETATM   32  H   UNL     1       8.126  18.895  54.674  1.00  0.00     0.218 HD
ENDBRANCH  26  31
ENDBRANCH  22  23
ENDBRANCH  21  22
ENDBRANCH  18  21
ENDBRANCH   1  17
TORSDOF 10
ENDMDL
MODEL 2
REMARK VINA RESULT:      -9.0      1.731      2.292
REMARK  10 active torsions:
REMARK  status: ('A' for Active; 'I' for Inactive)
REMARK    1  A    between atoms: C_3  and  C_4 
REMARK    2  A    between atoms: C_8  and  N_9 
REMARK    3  A    between atoms: N_9  and  C_10 
REMARK    4  A    between atoms: C_10  and  N_11 
REMARK    5  A    between atoms: N_11  and  N_12 
REMARK       I    between atoms: N_12  and  C_13 
REMARK    6  A    between atoms: C_13  and  C_14 
REMARK    7  A    between atoms: C_14  and  C_15 
REMARK    8  A    between atoms: C_15  and  C_16 
REMARK    9  A    between atoms: C_18  and  O_19 
REMARK   10  A    between atoms: C_20  and  O_21 
ROOT
HETATM    1  N   UNL     1       4.176  26.179  53.135  1.00  0.00    -0.274 N 
HETATM    2  H   UNL     1       3.330  25.608  53.138  1.00  0.00     0.189 HD
ENDROOT
BRANCH   1   3
HETATM    3  C   UNL     1       4.144  27.420  53.711  1.00  0.00     0.191 C 
HETATM    4  S   UNL     1       3.725  28.829  52.902  1.00  0.00    -0.039 SA
BRANCH   3   5
HETATM    5  N   UNL     1       4.504  27.517  55.028  1.00  0.00    -0.331 N 
HETATM    6  H   UNL     1       3.866  28.114  55.555  1.00  0.00     0.168 HD
BRANCH   5   7
HETATM    7  C   UNL     1       5.509  26.854  55.772  1.00  0.00     0.049 A 
HETATM    8  C   UNL     1       6.812  27.390  55.815  1.00  0.00     0.074 A 
HETATM    9  C   UNL     1       7.805  26.737  56.577  1.00  0.00     0.018 A 
HETATM   10  C   UNL     1       7.511  25.591  57.309  1.00  0.00     0.001 A 
HETATM   11  C   UNL     1       6.219  25.084  57.296  1.00  0.00     0.002 A 
HETATM   12  C   UNL     1       5.226  25.714  56.541  1.00  0.00     0.030 A 
BRANCH   8  13
HETATM   13  C   UNL     1       7.217  28.606  55.020  1.00  0.00     0.419 C 
HETATM   14  F   UNL     1       6.413  29.685  55.237  1.00  0.00    -0.166 F 
HETATM   15  F   UNL     1       8.482  29.019  55.311  1.00  0.00    -0.166 F 
HETATM   16  F   UNL     1       7.195  28.401  53.670  1.00  0.00    -0.166 F 
ENDBRANCH   8  13
ENDBRANCH   5   7
ENDBRANCH   3   5
ENDBRANCH   1   3
BRANCH   1  17
HETATM   17  N   UNL     1       5.366  25.450  53.031  1.00  0.00    -0.268 N 
HETATM   18  C   UNL     1       6.140  25.616  51.900  1.00  0.00     0.236 C 
HETATM   19  O   UNL     1       5.771  26.281  50.935  1.00  0.00    -0.272 OA
HETATM   20  H   UNL     1       5.667  24.926  53.850  1.00  0.00     0.190 HD
BRANCH  18  21
HETATM   21  C   UNL     1       7.486  24.933  52.003  1.00  0.00     0.109 C 
BRANCH  21  22
HETATM   22  C   UNL     1       7.907  24.732  53.458  1.00  0.00     0.048 C 
BRANCH  22  23
HETATM   23  C   UNL     1       8.197  23.310  53.894  1.00  0.00    -0.055 A 
HETATM   24  C   UNL     1       7.996  22.281  52.953  1.00  0.00     0.046 A 
HETATM   25  C   UNL     1       8.273  20.960  53.291  1.00  0.00     0.099 A 
HETATM   26  C   UNL     1       8.749  20.647  54.559  1.00  0.00     0.098 A 
HETATM   27  C   UNL     1       8.945  21.638  55.505  1.00  0.00     0.040 A 
HETATM   28  C   UNL     1       8.667  22.969  55.174  1.00  0.00     0.010 A 
BRANCH  25  29
HETATM   29  O   UNL     1       8.097  19.935  52.405  1.00  0.00    -0.358 OA
HETATM   30  H   UNL     1       7.221  20.038  51.995  1.00  0.00     0.218 HD
ENDBRANCH  25  29
BRANCH  26  31
HETATM   31  O   UNL     1       9.029  19.350  54.882  1.00  0.00    -0.358 OA
HETATM   32  H   UNL     1       9.191  18.915  54.022  1.00  0.00     0.218 HD
ENDBRANCH  26  31
ENDBRANCH  22  23
ENDBRANCH  21  22
ENDBRANCH  18  21
ENDBRANCH   1  17
TORSDOF 10
ENDMDL
MODEL 3
REMARK VINA RESULT:      -8.6      3.109      3.858
REMARK  10 active torsions:
REMARK  status: ('A' for Active; 'I' for Inactive)
REMARK    1  A    between atoms: C_3  and  C_4 
REMARK    2  A    between atoms: C_8  and  N_9 
REMARK    3  A    between atoms: N_9  and  C_10 
REMARK    4  A    between atoms: C_10  and  N_11 
REMARK    5  A    between atoms: N_11  and  N_12 
REMARK       I    between atoms: N_12  and  C_13 
REMARK    6  A    between atoms: C_13  and  C_14 
REMARK    7  A    between atoms: C_14  and  C_15 
REMARK    8  A    between atoms: C_15  and  C_16 
REMARK    9  A    between atoms: C_18  and  O_19 
REMARK   10  A    between atoms: C_20  and  O_21 
ROOT
HETATM    1  N   UNL     1       4.982  27.919  57.129  1.00  0.00    -0.274 N 
HETATM    2  H   UNL     1       4.589  27.522  57.983  1.00  0.00     0.189 HD
ENDROOT
BRANCH   1   3
HETATM    3  C   UNL     1       5.789  29.022  57.218  1.00  0.00     0.191 C 
HETATM    4  S   UNL     1       5.566  30.430  56.335  1.00  0.00    -0.039 SA
BRANCH   3   5
HETATM    5  N   UNL     1       6.862  28.956  58.064  1.00  0.00    -0.331 N 
HETATM    6  H   UNL     1       7.049  28.000  58.369  1.00  0.00     0.168 HD
BRANCH   5   7
HETATM    7  C   UNL     1       7.792  29.942  58.474  1.00  0.00     0.049 A 
HETATM    8  C   UNL     1       9.057  30.007  57.854  1.00  0.00     0.074 A 
HETATM    9  C   UNL     1       9.971  31.006  58.251  1.00  0.00     0.018 A 
HETATM   10  C   UNL     1       9.634  31.946  59.220  1.00  0.00     0.001 A 
HETATM   11  C   UNL     1       8.375  31.904  59.804  1.00  0.00     0.002 A 
HETATM   12  C   UNL     1       7.460  30.916  59.428  1.00  0.00     0.030 A 
BRANCH   8  13
HETATM   13  C   UNL     1       9.509  29.004  56.824  1.00  0.00     0.419 C 
HETATM   14  F   UNL     1       8.851  29.117  55.635  1.00  0.00    -0.166 F 
HETATM   15  F   UNL     1      10.833  29.123  56.529  1.00  0.00    -0.166 F 
HETATM   16  F   UNL     1       9.331  27.708  57.216  1.00  0.00    -0.166 F 
ENDBRANCH   8  13
ENDBRANCH   5   7
ENDBRANCH   3   5
ENDBRANCH   1   3
BRANCH   1  17
HETATM   17  N   UNL     1       5.091  27.015  56.066  1.00  0.00    -0.268 N 
HETATM   18  C   UNL     1       5.969  25.958  56.193  1.00  0.00     0.236 C 
HETATM   19  O   UNL     1       6.740  25.845  57.143  1.00  0.00    -0.272 OA
HETATM   20  H   UNL     1       4.427  27.110  55.301  1.00  0.00     0.190 HD
BRANCH  18  21
HETATM   21  C   UNL     1       5.843  24.951  55.070  1.00  0.00     0.109 C 
BRANCH  21  22
HETATM   22  C   UNL     1       7.204  24.611  54.464  1.00  0.00     0.048 C 
BRANCH  22  23
HETATM   23  C   UNL     1       7.689  23.185  54.636  1.00  0.00    -0.055 A 
HETATM   24  C   UNL     1       7.602  22.324  53.525  1.00  0.00     0.046 A 
HETATM   25  C   UNL     1       8.058  21.013  53.619  1.00  0.00     0.099 A 
HETATM   26  C   UNL     1       8.600  20.543  54.810  1.00  0.00     0.098 A 
HETATM   27  C   UNL     1       8.687  21.367  55.919  1.00  0.00     0.040 A 
HETATM   28  C   UNL     1       8.229  22.686  55.835  1.00  0.00     0.010 A 
BRANCH  25  29
HETATM   29  O   UNL     1       7.998  20.148  52.562  1.00  0.00    -0.358 OA
HETATM   30  H   UNL     1       8.214  20.646  51.754  1.00  0.00     0.218 HD
ENDBRANCH  25  29
BRANCH  26  31
HETATM   31  O   UNL     1       9.056  19.258  54.893  1.00  0.00    -0.358 OA
HETATM   32  H   UNL     1       9.165  18.979  53.963  1.00  0.00     0.218 HD
ENDBRANCH  26  31
ENDBRANCH  22  23
ENDBRANCH  21  22
ENDBRANCH  18  21
ENDBRANCH   1  17
TORSDOF 10
ENDMDL
MODEL 4
REMARK VINA RESULT:      -8.5      3.486      4.280
REMARK  10 active torsions:
REMARK  status: ('A' for Active; 'I' for Inactive)
REMARK    1  A    between atoms: C_3  and  C_4 
REMARK    2  A    between atoms: C_8  and  N_9 
REMARK    3  A    between atoms: N_9  and  C_10 
REMARK    4  A    between atoms: C_10  and  N_11 
REMARK    5  A    between atoms: N_11  and  N_12 
REMARK       I    between atoms: N_12  and  C_13 
REMARK    6  A    between atoms: C_13  and  C_14 
REMARK    7  A    between atoms: C_14  and  C_15 
REMARK    8  A    between atoms: C_15  and  C_16 
REMARK    9  A    between atoms: C_18  and  O_19 
REMARK   10  A    between atoms: C_20  and  O_21 
ROOT
HETATM    1  N   UNL     1       5.572  27.685  57.082  1.00  0.00    -0.274 N 
HETATM    2  H   UNL     1       5.477  27.098  57.912  1.00  0.00     0.189 HD
ENDROOT
BRANCH   1   3
HETATM    3  C   UNL     1       6.010  28.975  57.226  1.00  0.00     0.191 C 
HETATM    4  S   UNL     1       5.379  30.286  56.391  1.00  0.00    -0.039 SA
BRANCH   3   5
HETATM    5  N   UNL     1       7.049  29.199  58.086  1.00  0.00    -0.331 N 
HETATM    6  H   UNL     1       6.826  28.908  59.038  1.00  0.00     0.168 HD
BRANCH   5   7
HETATM    7  C   UNL     1       8.375  29.640  57.856  1.00  0.00     0.049 A 
HETATM    8  C   UNL     1       8.854  30.785  58.525  1.00  0.00     0.074 A 
HETATM    9  C   UNL     1      10.183  31.209  58.309  1.00  0.00     0.018 A 
HETATM   10  C   UNL     1      11.036  30.498  57.470  1.00  0.00     0.001 A 
HETATM   11  C   UNL     1      10.575  29.350  56.840  1.00  0.00     0.002 A 
HETATM   12  C   UNL     1       9.259  28.921  57.037  1.00  0.00     0.030 A 
BRANCH   8  13
HETATM   13  C   UNL     1       7.980  31.628  59.419  1.00  0.00     0.419 C 
HETATM   14  F   UNL     1       8.616  32.730  59.911  1.00  0.00    -0.166 F 
HETATM   15  F   UNL     1       6.874  32.094  58.776  1.00  0.00    -0.166 F 
HETATM   16  F   UNL     1       7.518  30.956  60.514  1.00  0.00    -0.166 F 
ENDBRANCH   8  13
ENDBRANCH   5   7
ENDBRANCH   3   5
ENDBRANCH   1   3
BRANCH   1  17
HETATM   17  N   UNL     1       5.758  26.977  55.889  1.00  0.00    -0.268 N 
HETATM   18  C   UNL     1       5.926  25.609  55.959  1.00  0.00     0.236 C 
HETATM   19  O   UNL     1       6.039  25.007  57.024  1.00  0.00    -0.272 OA
HETATM   20  H   UNL     1       5.635  27.488  55.018  1.00  0.00     0.190 HD
BRANCH  18  21
HETATM   21  C   UNL     1       5.913  24.944  54.600  1.00  0.00     0.109 C 
BRANCH  21  22
HETATM   22  C   UNL     1       7.324  24.587  54.134  1.00  0.00     0.048 C 
BRANCH  22  23
HETATM   23  C   UNL     1       7.780  23.162  54.372  1.00  0.00    -0.055 A 
HETATM   24  C   UNL     1       7.712  22.262  53.291  1.00  0.00     0.046 A 
HETATM   25  C   UNL     1       8.143  20.948  53.446  1.00  0.00     0.099 A 
HETATM   26  C   UNL     1       8.642  20.514  54.669  1.00  0.00     0.098 A 
HETATM   27  C   UNL     1       8.709  21.376  55.750  1.00  0.00     0.040 A 
HETATM   28  C   UNL     1       8.276  22.699  55.603  1.00  0.00     0.010 A 
BRANCH  25  29
HETATM   29  O   UNL     1       8.100  20.046  52.420  1.00  0.00    -0.358 OA
HETATM   30  H   UNL     1       7.312  19.489  52.542  1.00  0.00     0.218 HD
ENDBRANCH  25  29
BRANCH  26  31
HETATM   31  O   UNL     1       9.074  19.227  54.813  1.00  0.00    -0.358 OA
HETATM   32  H   UNL     1       8.915  19.021  55.755  1.00  0.00     0.218 HD
ENDBRANCH  26  31
ENDBRANCH  22  23
ENDBRANCH  21  22
ENDBRANCH  18  21
ENDBRANCH   1  17
TORSDOF 10
ENDMDL
MODEL 5
REMARK VINA RESULT:      -8.4      4.857      5.808
REMARK  10 active torsions:
REMARK  status: ('A' for Active; 'I' for Inactive)
REMARK    1  A    between atoms: C_3  and  C_4 
REMARK    2  A    between atoms: C_8  and  N_9 
REMARK    3  A    between atoms: N_9  and  C_10 
REMARK    4  A    between atoms: C_10  and  N_11 
REMARK    5  A    between atoms: N_11  and  N_12 
REMARK       I    between atoms: N_12  and  C_13 
REMARK    6  A    between atoms: C_13  and  C_14 
REMARK    7  A    between atoms: C_14  and  C_15 
REMARK    8  A    between atoms: C_15  and  C_16 
REMARK    9  A    between atoms: C_18  and  O_19 
REMARK   10  A    between atoms: C_20  and  O_21 
ROOT
HETATM    1  N   UNL     1       7.778  28.744  57.714  1.00  0.00    -0.274 N 
HETATM    2  H   UNL     1       7.124  28.537  58.471  1.00  0.00     0.189 HD
ENDROOT
BRANCH   1   3
HETATM    3  C   UNL     1       8.828  29.589  57.956  1.00  0.00     0.191 C 
HETATM    4  S   UNL     1      10.209  29.675  57.008  1.00  0.00    -0.039 SA
BRANCH   3   5
HETATM    5  N   UNL     1       8.754  30.392  59.060  1.00  0.00    -0.331 N 
HETATM    6  H   UNL     1       9.638  30.426  59.568  1.00  0.00     0.168 HD
BRANCH   5   7
HETATM    7  C   UNL     1       7.724  31.245  59.528  1.00  0.00     0.049 A 
HETATM    8  C   UNL     1       7.830  31.828  60.807  1.00  0.00     0.074 A 
HETATM    9  C   UNL     1       6.812  32.694  61.260  1.00  0.00     0.018 A 
HETATM   10  C   UNL     1       5.723  33.006  60.453  1.00  0.00     0.001 A 
HETATM   11  C   UNL     1       5.637  32.462  59.179  1.00  0.00     0.002 A 
HETATM   12  C   UNL     1       6.633  31.595  58.718  1.00  0.00     0.030 A 
BRANCH   8  13
HETATM   13  C   UNL     1       8.959  31.510  61.754  1.00  0.00     0.419 C 
HETATM   14  F   UNL     1       9.172  30.172  61.910  1.00  0.00    -0.166 F 
HETATM   15  F   UNL     1      10.148  32.030  61.339  1.00  0.00    -0.166 F 
HETATM   16  F   UNL     1       8.762  31.996  63.015  1.00  0.00    -0.166 F 
ENDBRANCH   8  13
ENDBRANCH   5   7
ENDBRANCH   3   5
ENDBRANCH   1   3
BRANCH   1  17
HETATM   17  N   UNL     1       7.839  27.765  56.716  1.00  0.00    -0.268 N 
HETATM   18  C   UNL     1       7.864  26.440  57.100  1.00  0.00     0.236 C 
HETATM   19  O   UNL     1       7.955  26.089  58.274  1.00  0.00    -0.272 OA
HETATM   20  H   UNL     1       7.735  28.073  55.752  1.00  0.00     0.190 HD
BRANCH  18  21
HETATM   21  C   UNL     1       7.726  25.486  55.932  1.00  0.00     0.109 C 
BRANCH  21  22
HETATM   22  C   UNL     1       7.735  24.029  56.391  1.00  0.00     0.048 C 
BRANCH  22  23
HETATM   23  C   UNL     1       7.887  22.976  55.312  1.00  0.00    -0.055 A 
HETATM   24  C   UNL     1       8.336  21.698  55.701  1.00  0.00     0.046 A 
HETATM   25  C   UNL     1       8.468  20.686  54.755  1.00  0.00     0.099 A 
HETATM   26  C   UNL     1       8.159  20.929  53.421  1.00  0.00     0.098 A 
HETATM   27  C   UNL     1       7.726  22.178  53.013  1.00  0.00     0.040 A 
HETATM   28  C   UNL     1       7.593  23.202  53.956  1.00  0.00     0.010 A 
BRANCH  25  29
HETATM   29  O   UNL     1       8.893  19.432  55.093  1.00  0.00    -0.358 OA
HETATM   30  H   UNL     1       9.654  19.524  55.693  1.00  0.00     0.218 HD
ENDBRANCH  25  29
BRANCH  26  31
HETATM   31  O   UNL     1       8.281  19.928  52.500  1.00  0.00    -0.358 OA
HETATM   32  H   UNL     1       9.124  20.118  52.045  1.00  0.00     0.218 HD
ENDBRANCH  26  31
ENDBRANCH  22  23
ENDBRANCH  21  22
ENDBRANCH  18  21
ENDBRANCH   1  17
TORSDOF 10
ENDMDL
MODEL 6
REMARK VINA RESULT:      -8.3      4.403      6.242
REMARK  10 active torsions:
REMARK  status: ('A' for Active; 'I' for Inactive)
REMARK    1  A    between atoms: C_3  and  C_4 
REMARK    2  A    between atoms: C_8  and  N_9 
REMARK    3  A    between atoms: N_9  and  C_10 
REMARK    4  A    between atoms: C_10  and  N_11 
REMARK    5  A    between atoms: N_11  and  N_12 
REMARK       I    between atoms: N_12  and  C_13 
REMARK    6  A    between atoms: C_13  and  C_14 
REMARK    7  A    between atoms: C_14  and  C_15 
REMARK    8  A    between atoms: C_15  and  C_16 
REMARK    9  A    between atoms: C_18  and  O_19 
REMARK   10  A    between atoms: C_20  and  O_21 
ROOT
HETATM    1  N   UNL     1       3.865  27.614  52.230  1.00  0.00    -0.274 N 
HETATM    2  H   UNL     1       3.655  28.283  52.972  1.00  0.00     0.189 HD
ENDROOT
BRANCH   1   3
HETATM    3  C   UNL     1       4.197  28.082  50.987  1.00  0.00     0.191 C 
HETATM    4  S   UNL     1       5.127  29.450  50.709  1.00  0.00    -0.039 SA
BRANCH   3   5
HETATM    5  N   UNL     1       3.712  27.402  49.903  1.00  0.00    -0.331 N 
HETATM    6  H   UNL     1       4.088  26.455  49.847  1.00  0.00     0.168 HD
BRANCH   5   7
HETATM    7  C   UNL     1       2.720  27.745  48.953  1.00  0.00     0.049 A 
HETATM    8  C   UNL     1       2.442  26.863  47.888  1.00  0.00     0.074 A 
HETATM    9  C   UNL     1       1.437  27.199  46.956  1.00  0.00     0.018 A 
HETATM   10  C   UNL     1       0.697  28.370  47.088  1.00  0.00     0.001 A 
HETATM   11  C   UNL     1       0.946  29.220  48.157  1.00  0.00     0.002 A 
HETATM   12  C   UNL     1       1.943  28.906  49.085  1.00  0.00     0.030 A 
BRANCH   8  13
HETATM   13  C   UNL     1       3.225  25.596  47.657  1.00  0.00     0.419 C 
HETATM   14  F   UNL     1       3.122  24.703  48.682  1.00  0.00    -0.166 F 
HETATM   15  F   UNL     1       2.817  24.929  46.542  1.00  0.00    -0.166 F 
HETATM   16  F   UNL     1       4.563  25.809  47.494  1.00  0.00    -0.166 F 
ENDBRANCH   8  13
ENDBRANCH   5   7
ENDBRANCH   3   5
ENDBRANCH   1   3
BRANCH   1  17
HETATM   17  N   UNL     1       4.302  26.364  52.684  1.00  0.00    -0.268 N 
HETATM   18  C   UNL     1       5.566  26.270  53.228  1.00  0.00     0.236 C 
HETATM   19  O   UNL     1       6.363  27.205  53.223  1.00  0.00    -0.272 OA
HETATM   20  H   UNL     1       3.620  25.609  52.704  1.00  0.00     0.190 HD
BRANCH  18  21
HETATM   21  C   UNL     1       5.837  24.921  53.860  1.00  0.00     0.109 C 
BRANCH  21  22
HETATM   22  C   UNL     1       7.307  24.524  53.733  1.00  0.00     0.048 C 
BRANCH  22  23
HETATM   23  C   UNL     1       7.668  23.110  54.140  1.00  0.00    -0.055 A 
HETATM   24  C   UNL     1       7.823  22.152  53.119  1.00  0.00     0.046 A 
HETATM   25  C   UNL     1       8.181  20.845  53.434  1.00  0.00     0.099 A 
HETATM   26  C   UNL     1       8.387  20.475  54.759  1.00  0.00     0.098 A 
HETATM   27  C   UNL     1       8.232  21.396  55.781  1.00  0.00     0.040 A 
HETATM   28  C   UNL     1       7.870  22.711  55.473  1.00  0.00     0.010 A 
BRANCH  25  29
HETATM   29  O   UNL     1       8.348  19.889  52.473  1.00  0.00    -0.358 OA
HETATM   30  H   UNL     1       7.470  19.534  52.246  1.00  0.00     0.218 HD
ENDBRANCH  25  29
BRANCH  26  31
HETATM   31  O   UNL     1       8.749  19.194  55.061  1.00  0.00    -0.358 OA
HETATM   32  H   UNL     1       8.608  19.123  56.026  1.00  0.00     0.218 HD
ENDBRANCH  26  31
ENDBRANCH  22  23
ENDBRANCH  21  22
ENDBRANCH  18  21
ENDBRANCH   1  17
TORSDOF 10
ENDMDL
MODEL 7
REMARK VINA RESULT:      -8.3      3.491      6.970
REMARK  10 active torsions:
REMARK  status: ('A' for Active; 'I' for Inactive)
REMARK    1  A    between atoms: C_3  and  C_4 
REMARK    2  A    between atoms: C_8  and  N_9 
REMARK    3  A    between atoms: N_9  and  C_10 
REMARK    4  A    between atoms: C_10  and  N_11 
REMARK    5  A    between atoms: N_11  and  N_12 
REMARK       I    between atoms: N_12  and  C_13 
REMARK    6  A    between atoms: C_13  and  C_14 
REMARK    7  A    between atoms: C_14  and  C_15 
REMARK    8  A    between atoms: C_15  and  C_16 
REMARK    9  A    between atoms: C_18  and  O_19 
REMARK   10  A    between atoms: C_20  and  O_21 
ROOT
HETATM    1  N   UNL     1       5.006  25.577  54.495  1.00  0.00    -0.274 N 
HETATM    2  H   UNL     1       4.001  25.534  54.319  1.00  0.00     0.189 HD
ENDROOT
BRANCH   1   3
HETATM    3  C   UNL     1       5.873  25.298  53.473  1.00  0.00     0.191 C 
HETATM    4  S   UNL     1       5.524  25.528  51.848  1.00  0.00    -0.039 SA
BRANCH   3   5
HETATM    5  N   UNL     1       7.092  24.771  53.801  1.00  0.00    -0.331 N 
HETATM    6  H   UNL     1       7.782  25.496  53.995  1.00  0.00     0.168 HD
BRANCH   5   7
HETATM    7  C   UNL     1       7.502  23.434  54.022  1.00  0.00     0.049 A 
HETATM    8  C   UNL     1       7.835  23.014  55.327  1.00  0.00     0.074 A 
HETATM    9  C   UNL     1       8.222  21.674  55.546  1.00  0.00     0.018 A 
HETATM   10  C   UNL     1       8.252  20.755  54.501  1.00  0.00     0.001 A 
HETATM   11  C   UNL     1       7.889  21.159  53.224  1.00  0.00     0.002 A 
HETATM   12  C   UNL     1       7.510  22.484  52.989  1.00  0.00     0.030 A 
BRANCH   8  13
HETATM   13  C   UNL     1       7.863  23.958  56.501  1.00  0.00     0.419 C 
HETATM   14  F   UNL     1       8.348  25.194  56.189  1.00  0.00    -0.166 F 
HETATM   15  F   UNL     1       6.626  24.167  57.031  1.00  0.00    -0.166 F 
HETATM   16  F   UNL     1       8.639  23.514  57.534  1.00  0.00    -0.166 F 
ENDBRANCH   8  13
ENDBRANCH   5   7
ENDBRANCH   3   5
ENDBRANCH   1   3
BRANCH   1  17
HETATM   17  N   UNL     1       5.373  26.405  55.562  1.00  0.00    -0.268 N 
HETATM   18  C   UNL     1       5.001  27.733  55.517  1.00  0.00     0.236 C 
HETATM   19  O   UNL     1       4.470  28.242  54.534  1.00  0.00    -0.272 OA
HETATM   20  H   UNL     1       5.788  25.961  56.378  1.00  0.00     0.190 HD
BRANCH  18  21
HETATM   21  C   UNL     1       5.279  28.466  56.813  1.00  0.00     0.109 C 
BRANCH  21  22
HETATM   22  C   UNL     1       6.574  27.984  57.465  1.00  0.00     0.048 C 
BRANCH  22  23
HETATM   23  C   UNL     1       7.656  29.024  57.682  1.00  0.00    -0.055 A 
HETATM   24  C   UNL     1       7.306  30.200  58.373  1.00  0.00     0.046 A 
HETATM   25  C   UNL     1       8.267  31.175  58.623  1.00  0.00     0.099 A 
HETATM   26  C   UNL     1       9.576  30.997  58.192  1.00  0.00     0.098 A 
HETATM   27  C   UNL     1       9.942  29.854  57.501  1.00  0.00     0.040 A 
HETATM   28  C   UNL     1       8.983  28.869  57.243  1.00  0.00     0.010 A 
BRANCH  25  29
HETATM   29  O   UNL     1       7.969  32.327  59.296  1.00  0.00    -0.358 OA
HETATM   30  H   UNL     1       8.789  32.658  59.703  1.00  0.00     0.218 HD
ENDBRANCH  25  29
BRANCH  26  31
HETATM   31  O   UNL     1      10.516  31.953  58.450  1.00  0.00    -0.358 OA
HETATM   32  H   UNL     1      10.172  32.427  59.231  1.00  0.00     0.218 HD
ENDBRANCH  26  31
ENDBRANCH  22  23
ENDBRANCH  21  22
ENDBRANCH  18  21
ENDBRANCH   1  17
TORSDOF 10
ENDMDL
MODEL 8
REMARK VINA RESULT:      -8.1      3.803      6.546
REMARK  10 active torsions:
REMARK  status: ('A' for Active; 'I' for Inactive)
REMARK    1  A    between atoms: C_3  and  C_4 
REMARK    2  A    between atoms: C_8  and  N_9 
REMARK    3  A    between atoms: N_9  and  C_10 
REMARK    4  A    between atoms: C_10  and  N_11 
REMARK    5  A    between atoms: N_11  and  N_12 
REMARK       I    between atoms: N_12  and  C_13 
REMARK    6  A    between atoms: C_13  and  C_14 
REMARK    7  A    between atoms: C_14  and  C_15 
REMARK    8  A    between atoms: C_15  and  C_16 
REMARK    9  A    between atoms: C_18  and  O_19 
REMARK   10  A    between atoms: C_20  and  O_21 
ROOT
HETATM    1  N   UNL     1       4.475  26.260  53.794  1.00  0.00    -0.274 N 
HETATM    2  H   UNL     1       4.080  25.962  54.687  1.00  0.00     0.189 HD
ENDROOT
BRANCH   1   3
HETATM    3  C   UNL     1       5.477  25.516  53.228  1.00  0.00     0.191 C 
HETATM    4  S   UNL     1       6.143  25.820  51.719  1.00  0.00    -0.039 SA
BRANCH   3   5
HETATM    5  N   UNL     1       5.941  24.439  53.932  1.00  0.00    -0.331 N 
HETATM    6  H   UNL     1       5.590  23.558  53.558  1.00  0.00     0.168 HD
BRANCH   5   7
HETATM    7  C   UNL     1       6.888  24.347  54.981  1.00  0.00     0.049 A 
HETATM    8  C   UNL     1       8.047  23.563  54.806  1.00  0.00     0.074 A 
HETATM    9  C   UNL     1       8.998  23.491  55.846  1.00  0.00     0.018 A 
HETATM   10  C   UNL     1       8.826  24.205  57.028  1.00  0.00     0.001 A 
HETATM   11  C   UNL     1       7.703  25.006  57.186  1.00  0.00     0.002 A 
HETATM   12  C   UNL     1       6.747  25.081  56.168  1.00  0.00     0.030 A 
BRANCH   8  13
HETATM   13  C   UNL     1       8.286  22.732  53.571  1.00  0.00     0.419 C 
HETATM   14  F   UNL     1       7.323  21.790  53.359  1.00  0.00    -0.166 F 
HETATM   15  F   UNL     1       8.327  23.485  52.438  1.00  0.00    -0.166 F 
HETATM   16  F   UNL     1       9.466  22.044  53.602  1.00  0.00    -0.166 F 
ENDBRANCH   8  13
ENDBRANCH   5   7
ENDBRANCH   3   5
ENDBRANCH   1   3
BRANCH   1  17
HETATM   17  N   UNL     1       3.621  27.050  53.017  1.00  0.00    -0.268 N 
HETATM   18  C   UNL     1       3.768  28.421  53.069  1.00  0.00     0.236 C 
HETATM   19  O   UNL     1       4.532  28.977  53.853  1.00  0.00    -0.272 OA
HETATM   20  H   UNL     1       3.014  26.571  52.355  1.00  0.00     0.190 HD
BRANCH  18  21
HETATM   21  C   UNL     1       2.927  29.143  52.038  1.00  0.00     0.109 C 
BRANCH  21  22
HETATM   22  C   UNL     1       3.716  29.413  50.758  1.00  0.00     0.048 C 
BRANCH  22  23
HETATM   23  C   UNL     1       3.467  28.475  49.594  1.00  0.00    -0.055 A 
HETATM   24  C   UNL     1       4.589  27.941  48.930  1.00  0.00     0.046 A 
HETATM   25  C   UNL     1       4.419  27.054  47.872  1.00  0.00     0.099 A 
HETATM   26  C   UNL     1       3.142  26.689  47.462  1.00  0.00     0.098 A 
HETATM   27  C   UNL     1       2.024  27.207  48.091  1.00  0.00     0.040 A 
HETATM   28  C   UNL     1       2.185  28.102  49.155  1.00  0.00     0.010 A 
BRANCH  25  29
HETATM   29  O   UNL     1       5.482  26.509  47.207  1.00  0.00    -0.358 OA
HETATM   30  H   UNL     1       5.164  25.730  46.719  1.00  0.00     0.218 HD
ENDBRANCH  25  29
BRANCH  26  31
HETATM   31  O   UNL     1       2.982  25.809  46.430  1.00  0.00    -0.358 OA
HETATM   32  H   UNL     1       3.201  24.939  46.817  1.00  0.00     0.218 HD
ENDBRANCH  26  31
ENDBRANCH  22  23
ENDBRANCH  21  22
ENDBRANCH  18  21
ENDBRANCH   1  17
TORSDOF 10
ENDMDL
MODEL 9
REMARK VINA RESULT:      -8.0      7.051     10.098
REMARK  10 active torsions:
REMARK  status: ('A' for Active; 'I' for Inactive)
REMARK    1  A    between atoms: C_3  and  C_4 
REMARK    2  A    between atoms: C_8  and  N_9 
REMARK    3  A    between atoms: N_9  and  C_10 
REMARK    4  A    between atoms: C_10  and  N_11 
REMARK    5  A    between atoms: N_11  and  N_12 
REMARK       I    between atoms: N_12  and  C_13 
REMARK    6  A    between atoms: C_13  and  C_14 
REMARK    7  A    between atoms: C_14  and  C_15 
REMARK    8  A    between atoms: C_15  and  C_16 
REMARK    9  A    between atoms: C_18  and  O_19 
REMARK   10  A    between atoms: C_20  and  O_21 
ROOT
HETATM    1  N   UNL     1       7.547  29.408  58.856  1.00  0.00    -0.274 N 
HETATM    2  H   UNL     1       6.569  29.700  58.871  1.00  0.00     0.189 HD
ENDROOT
BRANCH   1   3
HETATM    3  C   UNL     1       8.011  28.689  57.787  1.00  0.00     0.191 C 
HETATM    4  S   UNL     1       9.425  29.037  56.955  1.00  0.00    -0.039 SA
BRANCH   3   5
HETATM    5  N   UNL     1       7.253  27.635  57.356  1.00  0.00    -0.331 N 
HETATM    6  H   UNL     1       6.260  27.869  57.319  1.00  0.00     0.168 HD
BRANCH   5   7
HETATM    7  C   UNL     1       7.621  26.361  56.859  1.00  0.00     0.049 A 
HETATM    8  C   UNL     1       7.363  26.039  55.511  1.00  0.00     0.074 A 
HETATM    9  C   UNL     1       7.751  24.776  55.014  1.00  0.00     0.018 A 
HETATM   10  C   UNL     1       8.411  23.857  55.825  1.00  0.00     0.001 A 
HETATM   11  C   UNL     1       8.698  24.189  57.141  1.00  0.00     0.002 A 
HETATM   12  C   UNL     1       8.313  25.432  57.651  1.00  0.00     0.030 A 
BRANCH   8  13
HETATM   13  C   UNL     1       6.620  26.965  54.582  1.00  0.00     0.419 C 
HETATM   14  F   UNL     1       7.265  28.147  54.370  1.00  0.00    -0.166 F 
HETATM   15  F   UNL     1       6.427  26.420  53.349  1.00  0.00    -0.166 F 
HETATM   16  F   UNL     1       5.378  27.305  55.036  1.00  0.00    -0.166 F 
ENDBRANCH   8  13
ENDBRANCH   5   7
ENDBRANCH   3   5
ENDBRANCH   1   3
BRANCH   1  17
HETATM   17  N   UNL     1       8.400  30.202  59.631  1.00  0.00    -0.268 N 
HETATM   18  C   UNL     1       8.240  31.572  59.587  1.00  0.00     0.236 C 
HETATM   19  O   UNL     1       7.465  32.125  58.811  1.00  0.00    -0.272 OA
HETATM   20  H   UNL     1       9.016  29.726  60.286  1.00  0.00     0.190 HD
BRANCH  18  21
HETATM   21  C   UNL     1       9.082  32.297  60.615  1.00  0.00     0.109 C 
BRANCH  21  22
HETATM   22  C   UNL     1       8.936  31.673  62.002  1.00  0.00     0.048 C 
BRANCH  22  23
HETATM   23  C   UNL     1       7.731  32.097  62.817  1.00  0.00    -0.055 A 
HETATM   24  C   UNL     1       7.952  32.929  63.932  1.00  0.00     0.046 A 
HETATM   25  C   UNL     1       6.878  33.370  64.700  1.00  0.00     0.099 A 
HETATM   26  C   UNL     1       5.581  32.992  64.372  1.00  0.00     0.098 A 
HETATM   27  C   UNL     1       5.338  32.168  63.287  1.00  0.00     0.040 A 
HETATM   28  C   UNL     1       6.412  31.717  62.511  1.00  0.00     0.010 A 
BRANCH  25  29
HETATM   29  O   UNL     1       7.050  34.183  65.785  1.00  0.00    -0.358 OA
HETATM   30  H   UNL     1       7.242  35.080  65.461  1.00  0.00     0.218 HD
ENDBRANCH  25  29
BRANCH  26  31
HETATM   31  O   UNL     1       4.530  33.437  65.122  1.00  0.00    -0.358 OA
HETATM   32  H   UNL     1       3.904  33.806  64.469  1.00  0.00     0.218 HD
ENDBRANCH  26  31
ENDBRANCH  22  23
ENDBRANCH  21  22
ENDBRANCH  18  21
ENDBRANCH   1  17
TORSDOF 10
ENDMDL
MODEL 10
REMARK VINA RESULT:      -7.9      3.015      5.035
REMARK  10 active torsions:
REMARK  status: ('A' for Active; 'I' for Inactive)
REMARK    1  A    between atoms: C_3  and  C_4 
REMARK    2  A    between atoms: C_8  and  N_9 
REMARK    3  A    between atoms: N_9  and  C_10 
REMARK    4  A    between atoms: C_10  and  N_11 
REMARK    5  A    between atoms: N_11  and  N_12 
REMARK       I    between atoms: N_12  and  C_13 
REMARK    6  A    between atoms: C_13  and  C_14 
REMARK    7  A    between atoms: C_14  and  C_15 
REMARK    8  A    between atoms: C_15  and  C_16 
REMARK    9  A    between atoms: C_18  and  O_19 
REMARK   10  A    between atoms: C_20  and  O_21 
ROOT
HETATM    1  N   UNL     1       5.938  29.169  52.817  1.00  0.00    -0.274 N 
HETATM    2  H   UNL     1       6.239  30.088  53.145  1.00  0.00     0.189 HD
ENDROOT
BRANCH   1   3
HETATM    3  C   UNL     1       5.125  29.087  51.718  1.00  0.00     0.191 C 
HETATM    4  S   UNL     1       3.577  29.728  51.638  1.00  0.00    -0.039 SA
BRANCH   3   5
HETATM    5  N   UNL     1       5.600  28.412  50.627  1.00  0.00    -0.331 N 
HETATM    6  H   UNL     1       6.620  28.388  50.608  1.00  0.00     0.168 HD
BRANCH   5   7
HETATM    7  C   UNL     1       4.932  27.670  49.624  1.00  0.00     0.049 A 
HETATM    8  C   UNL     1       4.567  26.331  49.876  1.00  0.00     0.074 A 
HETATM    9  C   UNL     1       3.881  25.602  48.880  1.00  0.00     0.018 A 
HETATM   10  C   UNL     1       3.533  26.191  47.669  1.00  0.00     0.001 A 
HETATM   11  C   UNL     1       3.860  27.520  47.436  1.00  0.00     0.002 A 
HETATM   12  C   UNL     1       4.546  28.254  48.408  1.00  0.00     0.030 A 
BRANCH   8  13
HETATM   13  C   UNL     1       4.940  25.612  51.147  1.00  0.00     0.419 C 
HETATM   14  F   UNL     1       6.287  25.519  51.338  1.00  0.00    -0.166 F 
HETATM   15  F   UNL     1       4.448  26.229  52.257  1.00  0.00    -0.166 F 
HETATM   16  F   UNL     1       4.476  24.329  51.199  1.00  0.00    -0.166 F 
ENDBRANCH   8  13
ENDBRANCH   5   7
ENDBRANCH   3   5
ENDBRANCH   1   3
BRANCH   1  17
HETATM   17  N   UNL     1       6.788  28.118  53.180  1.00  0.00    -0.268 N 
HETATM   18  C   UNL     1       6.453  27.354  54.279  1.00  0.00     0.236 C 
HETATM   19  O   UNL     1       5.510  27.630  55.018  1.00  0.00    -0.272 OA
HETATM   20  H   UNL     1       7.547  27.889  52.542  1.00  0.00     0.190 HD
BRANCH  18  21
HETATM   21  C   UNL     1       7.337  26.136  54.442  1.00  0.00     0.109 C 
BRANCH  21  22
HETATM   22  C   UNL     1       6.528  24.901  54.834  1.00  0.00     0.048 C 
BRANCH  22  23
HETATM   23  C   UNL     1       7.146  23.553  54.520  1.00  0.00    -0.055 A 
HETATM   24  C   UNL     1       7.391  22.677  55.595  1.00  0.00     0.046 A 
HETATM   25  C   UNL     1       7.932  21.417  55.360  1.00  0.00     0.099 A 
HETATM   26  C   UNL     1       8.234  21.014  54.064  1.00  0.00     0.098 A 
HETATM   27  C   UNL     1       8.012  21.861  52.992  1.00  0.00     0.040 A 
HETATM   28  C   UNL     1       7.471  23.131  53.219  1.00  0.00     0.010 A 
BRANCH  25  29
HETATM   29  O   UNL     1       8.178  20.535  56.375  1.00  0.00    -0.358 OA
HETATM   30  H   UNL     1       7.452  20.606  57.018  1.00  0.00     0.218 HD
ENDBRANCH  25  29
BRANCH  26  31
HETATM   31  O   UNL     1       8.755  19.772  53.839  1.00  0.00    -0.358 OA
HETATM   32  H   UNL     1       8.006  19.257  53.477  1.00  0.00     0.218 HD
ENDBRANCH  26  31
ENDBRANCH  22  23
ENDBRANCH  21  22
ENDBRANCH  18  21
ENDBRANCH   1  17
TORSDOF 10
ENDMDL
