MODEL 1
REMARK VINA RESULT:      -9.7      0.000      0.000
REMARK  5 active torsions:
REMARK  status: ('A' for Active; 'I' for Inactive)
REMARK    1  A    between atoms: C_4  and  C_5 
REMARK       I    between atoms: C_5  and  N_6 
REMARK    2  A    between atoms: N_6  and  C_7 
REMARK    3  A    between atoms: C_10  and  C_11 
REMARK    4  A    between atoms: C_11  and  N_12 
REMARK       I    between atoms: N_12  and  C_13 
REMARK       I    between atoms: C_13  and  N_14 
REMARK    5  A    between atoms: N_14  and  C_15 
ROOT
HETATM    1  C   UNL     1       7.728  30.075  58.464  1.00  0.00     0.035 A 
HETATM    2  C   UNL     1       8.828  29.423  57.908  1.00  0.00     0.030 A 
HETATM    3  C   UNL     1       8.768  28.909  56.609  1.00  0.00     0.011 A 
HETATM    4  C   UNL     1       7.607  29.048  55.838  1.00  0.00    -0.040 A 
HETATM    5  C   UNL     1       6.482  29.643  56.419  1.00  0.00     0.011 A 
HETATM    6  C   UNL     1       6.544  30.150  57.721  1.00  0.00     0.030 A 
ENDROOT
BRANCH   4   7
HETATM    7  C   UNL     1       7.594  28.606  54.402  1.00  0.00     0.162 C 
BRANCH   7   8
HETATM    8  N   UNL     1       6.460  27.777  54.073  1.00  0.00    -0.339 N 
HETATM    9  C   UNL     1       6.400  26.411  54.004  1.00  0.00     0.321 C 
HETATM   10  N   UNL     1       7.579  25.767  54.270  1.00  0.00    -0.306 N 
HETATM   11  O   UNL     1       5.327  25.903  53.705  1.00  0.00    -0.247 OA
HETATM   12  H   UNL     1       8.397  26.351  54.268  1.00  0.00     0.171 HD
HETATM   13  H   UNL     1       5.569  28.222  53.890  1.00  0.00     0.164 HD
BRANCH  10  14
HETATM   14  C   UNL     1       7.834  24.383  54.404  1.00  0.00     0.075 A 
HETATM   15  C   UNL     1       8.033  23.468  53.362  1.00  0.00     0.144 A 
HETATM   16  F   UNL     1       7.960  23.822  52.074  1.00  0.00    -0.204 F 
HETATM   17  C   UNL     1       8.273  22.117  53.623  1.00  0.00     0.063 A 
HETATM   18  C   UNL     1       8.301  21.660  54.936  1.00  0.00     0.014 A 
HETATM   19 BR   UNL     1       8.615  19.832  55.293  1.00  0.00    -0.051 Br
HETATM   20  C   UNL     1       8.087  22.542  55.989  1.00  0.00     0.021 A 
HETATM   21  C   UNL     1       7.854  23.895  55.722  1.00  0.00     0.034 A 
ENDBRANCH  10  14
ENDBRANCH   7   8
ENDBRANCH   4   7
BRANCH   1  22
HETATM   22  N   UNL     1       7.743  30.710  59.720  1.00  0.00    -0.321 N 
HETATM   23  C   UNL     1       8.326  31.920  60.059  1.00  0.00     0.279 C 
HETATM   24  O   UNL     1       9.033  32.601  59.325  1.00  0.00    -0.265 OA
HETATM   25  H   UNL     1       7.185  30.291  60.457  1.00  0.00     0.169 HD
BRANCH  23  26
HETATM   26  C   UNL     1       7.981  32.347  61.404  1.00  0.00     0.142 A 
HETATM   27  O   UNL     1       6.966  33.253  61.589  1.00  0.00    -0.317 OA
HETATM   28  C   UNL     1       6.881  33.489  62.924  1.00  0.00     0.143 A 
HETATM   29  C   UNL     1       7.822  32.756  63.606  1.00  0.00     0.027 A 
HETATM   30  C   UNL     1       8.529  32.016  62.629  1.00  0.00     0.045 A 
ENDBRANCH  23  26
ENDBRANCH   1  22
TORSDOF 5
ENDMDL
MODEL 2
REMARK VINA RESULT:      -9.6      4.423     10.442
REMARK  5 active torsions:
REMARK  status: ('A' for Active; 'I' for Inactive)
REMARK    1  A    between atoms: C_4  and  C_5 
REMARK       I    between atoms: C_5  and  N_6 
REMARK    2  A    between atoms: N_6  and  C_7 
REMARK    3  A    between atoms: C_10  and  C_11 
REMARK    4  A    between atoms: C_11  and  N_12 
REMARK       I    between atoms: N_12  and  C_13 
REMARK       I    between atoms: C_13  and  N_14 
REMARK    5  A    between atoms: N_14  and  C_15 
ROOT
HETATM    1  C   UNL     1       6.879  25.318  56.190  1.00  0.00     0.035 A 
HETATM    2  C   UNL     1       5.647  25.966  56.113  1.00  0.00     0.030 A 
HETATM    3  C   UNL     1       5.503  27.276  56.579  1.00  0.00     0.011 A 
HETATM    4  C   UNL     1       6.593  27.966  57.123  1.00  0.00    -0.040 A 
HETATM    5  C   UNL     1       7.812  27.294  57.262  1.00  0.00     0.011 A 
HETATM    6  C   UNL     1       7.951  25.980  56.799  1.00  0.00     0.030 A 
ENDROOT
BRANCH   4   7
HETATM    7  C   UNL     1       6.460  29.413  57.505  1.00  0.00     0.162 C 
BRANCH   7   8
HETATM    8  N   UNL     1       7.729  30.061  57.728  1.00  0.00    -0.339 N 
HETATM    9  C   UNL     1       8.110  30.834  58.791  1.00  0.00     0.321 C 
HETATM   10  N   UNL     1       7.147  31.018  59.747  1.00  0.00    -0.306 N 
HETATM   11  O   UNL     1       9.245  31.292  58.783  1.00  0.00    -0.247 OA
HETATM   12  H   UNL     1       6.215  30.760  59.472  1.00  0.00     0.171 HD
HETATM   13  H   UNL     1       8.468  29.929  57.048  1.00  0.00     0.164 HD
BRANCH  10  14
HETATM   14  C   UNL     1       7.245  31.647  61.009  1.00  0.00     0.075 A 
HETATM   15  C   UNL     1       8.169  31.347  62.018  1.00  0.00     0.144 A 
HETATM   16  F   UNL     1       9.069  30.365  61.898  1.00  0.00    -0.204 F 
HETATM   17  C   UNL     1       8.162  32.040  63.232  1.00  0.00     0.063 A 
HETATM   18  C   UNL     1       7.216  33.034  63.457  1.00  0.00     0.014 A 
HETATM   19 BR   UNL     1       7.197  33.965  65.100  1.00  0.00    -0.051 Br
HETATM   20  C   UNL     1       6.274  33.338  62.480  1.00  0.00     0.021 A 
HETATM   21  C   UNL     1       6.290  32.646  61.265  1.00  0.00     0.034 A 
ENDBRANCH  10  14
ENDBRANCH   7   8
ENDBRANCH   4   7
BRANCH   1  22
HETATM   22  N   UNL     1       7.133  24.043  55.650  1.00  0.00    -0.321 N 
HETATM   23  C   UNL     1       7.306  23.699  54.319  1.00  0.00     0.279 C 
HETATM   24  O   UNL     1       7.156  24.450  53.362  1.00  0.00    -0.265 OA
HETATM   25  H   UNL     1       7.306  23.289  56.305  1.00  0.00     0.169 HD
BRANCH  23  26
HETATM   26  C   UNL     1       7.733  22.320  54.151  1.00  0.00     0.142 A 
HETATM   27  O   UNL     1       7.975  21.546  55.259  1.00  0.00    -0.317 OA
HETATM   28  C   UNL     1       8.380  20.328  54.813  1.00  0.00     0.143 A 
HETATM   29  C   UNL     1       8.407  20.300  53.440  1.00  0.00     0.027 A 
HETATM   30  C   UNL     1       7.986  21.581  53.011  1.00  0.00     0.045 A 
ENDBRANCH  23  26
ENDBRANCH   1  22
TORSDOF 5
ENDMDL
MODEL 3
REMARK VINA RESULT:      -9.4      4.897      8.372
REMARK  5 active torsions:
REMARK  status: ('A' for Active; 'I' for Inactive)
REMARK    1  A    between atoms: C_4  and  C_5 
REMARK       I    between atoms: C_5  and  N_6 
REMARK    2  A    between atoms: N_6  and  C_7 
REMARK    3  A    between atoms: C_10  and  C_11 
REMARK    4  A    between atoms: C_11  and  N_12 
REMARK       I    between atoms: N_12  and  C_13 
REMARK       I    between atoms: C_13  and  N_14 
REMARK    5  A    between atoms: N_14  and  C_15 
ROOT
HETATM    1  C   UNL     1       6.355  33.966  65.884  1.00  0.00     0.035 A 
HETATM    2  C   UNL     1       5.176  33.670  65.201  1.00  0.00     0.030 A 
HETATM    3  C   UNL     1       5.219  33.111  63.919  1.00  0.00     0.011 A 
HETATM    4  C   UNL     1       6.445  32.830  63.303  1.00  0.00    -0.040 A 
HETATM    5  C   UNL     1       7.626  33.188  63.960  1.00  0.00     0.011 A 
HETATM    6  C   UNL     1       7.579  33.752  65.240  1.00  0.00     0.030 A 
ENDROOT
BRANCH   4   7
HETATM    7  C   UNL     1       6.481  32.115  61.982  1.00  0.00     0.162 C 
BRANCH   7   8
HETATM    8  N   UNL     1       7.531  32.584  61.111  1.00  0.00    -0.339 N 
HETATM    9  C   UNL     1       7.953  32.045  59.925  1.00  0.00     0.321 C 
HETATM   10  N   UNL     1       7.293  30.909  59.540  1.00  0.00    -0.306 N 
HETATM   11  O   UNL     1       8.869  32.607  59.339  1.00  0.00    -0.247 OA
HETATM   12  H   UNL     1       6.736  30.473  60.255  1.00  0.00     0.171 HD
HETATM   13  H   UNL     1       8.025  33.432  61.358  1.00  0.00     0.164 HD
BRANCH  10  14
HETATM   14  C   UNL     1       7.391  30.181  58.332  1.00  0.00     0.075 A 
HETATM   15  C   UNL     1       8.552  29.607  57.798  1.00  0.00     0.144 A 
HETATM   16  F   UNL     1       9.747  29.729  58.386  1.00  0.00    -0.204 F 
HETATM   17  C   UNL     1       8.523  28.913  56.586  1.00  0.00     0.063 A 
HETATM   18  C   UNL     1       7.329  28.796  55.883  1.00  0.00     0.014 A 
HETATM   19 BR   UNL     1       7.287  27.867  54.240  1.00  0.00    -0.051 Br
HETATM   20  C   UNL     1       6.165  29.374  56.380  1.00  0.00     0.021 A 
HETATM   21  C   UNL     1       6.199  30.062  57.597  1.00  0.00     0.034 A 
ENDBRANCH  10  14
ENDBRANCH   7   8
ENDBRANCH   4   7
BRANCH   1  22
HETATM   22  N   UNL     1       6.398  34.430  67.213  1.00  0.00    -0.321 N 
HETATM   23  C   UNL     1       5.498  34.176  68.235  1.00  0.00     0.279 C 
HETATM   24  O   UNL     1       4.433  33.579  68.118  1.00  0.00    -0.265 OA
HETATM   25  H   UNL     1       7.229  34.935  67.500  1.00  0.00     0.169 HD
BRANCH  23  26
HETATM   26  C   UNL     1       5.962  34.670  69.521  1.00  0.00     0.142 A 
HETATM   27  O   UNL     1       5.303  34.301  70.667  1.00  0.00    -0.317 OA
HETATM   28  C   UNL     1       5.926  34.921  71.702  1.00  0.00     0.143 A 
HETATM   29  C   UNL     1       6.972  35.687  71.249  1.00  0.00     0.027 A 
HETATM   30  C   UNL     1       7.000  35.523  69.843  1.00  0.00     0.045 A 
ENDBRANCH  23  26
ENDBRANCH   1  22
TORSDOF 5
ENDMDL
MODEL 4
REMARK VINA RESULT:      -9.1      1.533      2.153
REMARK  5 active torsions:
REMARK  status: ('A' for Active; 'I' for Inactive)
REMARK    1  A    between atoms: C_4  and  C_5 
REMARK       I    between atoms: C_5  and  N_6 
REMARK    2  A    between atoms: N_6  and  C_7 
REMARK    3  A    between atoms: C_10  and  C_11 
REMARK    4  A    between atoms: C_11  and  N_12 
REMARK       I    between atoms: N_12  and  C_13 
REMARK       I    between atoms: C_13  and  N_14 
REMARK    5  A    between atoms: N_14  and  C_15 
ROOT
HETATM    1  C   UNL     1       7.470  31.307  59.839  1.00  0.00     0.035 A 
HETATM    2  C   UNL     1       6.563  31.507  58.799  1.00  0.00     0.030 A 
HETATM    3  C   UNL     1       6.674  30.780  57.610  1.00  0.00     0.011 A 
HETATM    4  C   UNL     1       7.689  29.830  57.445  1.00  0.00    -0.040 A 
HETATM    5  C   UNL     1       8.638  29.676  58.461  1.00  0.00     0.011 A 
HETATM    6  C   UNL     1       8.527  30.410  59.647  1.00  0.00     0.030 A 
ENDROOT
BRANCH   4   7
HETATM    7  C   UNL     1       7.725  28.966  56.216  1.00  0.00     0.162 C 
BRANCH   7   8
HETATM    8  N   UNL     1       6.476  28.290  55.960  1.00  0.00    -0.339 N 
HETATM    9  C   UNL     1       6.278  27.066  55.382  1.00  0.00     0.321 C 
HETATM   10  N   UNL     1       7.420  26.421  54.989  1.00  0.00    -0.306 N 
HETATM   11  O   UNL     1       5.125  26.674  55.259  1.00  0.00    -0.247 OA
HETATM   12  H   UNL     1       8.248  26.992  54.961  1.00  0.00     0.171 HD
HETATM   13  H   UNL     1       5.615  28.733  56.256  1.00  0.00     0.164 HD
BRANCH  10  14
HETATM   14  C   UNL     1       7.581  25.111  54.481  1.00  0.00     0.075 A 
HETATM   15  C   UNL     1       7.888  24.764  53.159  1.00  0.00     0.144 A 
HETATM   16  F   UNL     1       8.029  25.676  52.192  1.00  0.00    -0.204 F 
HETATM   17  C   UNL     1       8.016  23.426  52.776  1.00  0.00     0.063 A 
HETATM   18  C   UNL     1       7.822  22.416  53.711  1.00  0.00     0.014 A 
HETATM   19 BR   UNL     1       7.985  20.606  53.195  1.00  0.00    -0.051 Br
HETATM   20  C   UNL     1       7.496  22.732  55.026  1.00  0.00     0.021 A 
HETATM   21  C   UNL     1       7.376  24.072  55.405  1.00  0.00     0.034 A 
ENDBRANCH  10  14
ENDBRANCH   7   8
ENDBRANCH   4   7
BRANCH   1  22
HETATM   22  N   UNL     1       7.365  31.919  61.103  1.00  0.00    -0.321 N 
HETATM   23  C   UNL     1       6.317  32.677  61.600  1.00  0.00     0.279 C 
HETATM   24  O   UNL     1       5.331  33.035  60.966  1.00  0.00    -0.265 OA
HETATM   25  H   UNL     1       8.094  31.715  61.777  1.00  0.00     0.169 HD
BRANCH  23  26
HETATM   26  C   UNL     1       6.478  32.992  63.009  1.00  0.00     0.142 A 
HETATM   27  O   UNL     1       5.376  33.313  63.763  1.00  0.00    -0.317 OA
HETATM   28  C   UNL     1       5.818  33.585  65.019  1.00  0.00     0.143 A 
HETATM   29  C   UNL     1       7.183  33.450  65.092  1.00  0.00     0.027 A 
HETATM   30  C   UNL     1       7.610  33.063  63.799  1.00  0.00     0.045 A 
ENDBRANCH  23  26
ENDBRANCH   1  22
TORSDOF 5
ENDMDL
MODEL 5
REMARK VINA RESULT:      -9.1      4.978     10.864
REMARK  5 active torsions:
REMARK  status: ('A' for Active; 'I' for Inactive)
REMARK    1  A    between atoms: C_4  and  C_5 
REMARK       I    between atoms: C_5  and  N_6 
REMARK    2  A    between atoms: N_6  and  C_7 
REMARK    3  A    between atoms: C_10  and  C_11 
REMARK    4  A    between atoms: C_11  and  N_12 
REMARK       I    between atoms: N_12  and  C_13 
REMARK       I    between atoms: C_13  and  N_14 
REMARK    5  A    between atoms: N_14  and  C_15 
ROOT
HETATM    1  C   UNL     1       7.671  28.129  56.408  1.00  0.00     0.035 A 
HETATM    2  C   UNL     1       8.836  28.539  57.053  1.00  0.00     0.030 A 
HETATM    3  C   UNL     1       8.793  29.536  58.033  1.00  0.00     0.011 A 
HETATM    4  C   UNL     1       7.579  30.133  58.392  1.00  0.00    -0.040 A 
HETATM    5  C   UNL     1       6.420  29.769  57.699  1.00  0.00     0.011 A 
HETATM    6  C   UNL     1       6.468  28.775  56.715  1.00  0.00     0.030 A 
ENDROOT
BRANCH   4   7
HETATM    7  C   UNL     1       7.524  31.110  59.532  1.00  0.00     0.162 C 
BRANCH   7   8
HETATM    8  N   UNL     1       8.145  30.615  60.736  1.00  0.00    -0.339 N 
HETATM    9  C   UNL     1       7.963  31.045  62.022  1.00  0.00     0.321 C 
HETATM   10  N   UNL     1       7.087  32.089  62.164  1.00  0.00    -0.306 N 
HETATM   11  O   UNL     1       8.593  30.480  62.906  1.00  0.00    -0.247 OA
HETATM   12  H   UNL     1       6.847  32.566  61.312  1.00  0.00     0.171 HD
HETATM   13  H   UNL     1       8.782  29.831  60.667  1.00  0.00     0.164 HD
BRANCH  10  14
HETATM   14  C   UNL     1       6.585  32.685  63.343  1.00  0.00     0.075 A 
HETATM   15  C   UNL     1       5.236  32.870  63.673  1.00  0.00     0.144 A 
HETATM   16  F   UNL     1       4.243  32.520  62.849  1.00  0.00    -0.204 F 
HETATM   17  C   UNL     1       4.864  33.480  64.874  1.00  0.00     0.063 A 
HETATM   18  C   UNL     1       5.841  33.928  65.756  1.00  0.00     0.014 A 
HETATM   19 BR   UNL     1       5.341  34.761  67.375  1.00  0.00    -0.051 Br
HETATM   20  C   UNL     1       7.188  33.775  65.444  1.00  0.00     0.021 A 
HETATM   21  C   UNL     1       7.555  33.157  64.245  1.00  0.00     0.034 A 
ENDBRANCH  10  14
ENDBRANCH   7   8
ENDBRANCH   4   7
BRANCH   1  22
HETATM   22  N   UNL     1       7.613  27.063  55.490  1.00  0.00    -0.321 N 
HETATM   23  C   UNL     1       7.479  25.710  55.758  1.00  0.00     0.279 C 
HETATM   24  O   UNL     1       7.496  25.199  56.872  1.00  0.00    -0.265 OA
HETATM   25  H   UNL     1       7.570  27.303  54.505  1.00  0.00     0.169 HD
BRANCH  23  26
HETATM   26  C   UNL     1       7.272  24.922  54.556  1.00  0.00     0.142 A 
HETATM   27  O   UNL     1       6.179  25.169  53.762  1.00  0.00    -0.317 OA
HETATM   28  C   UNL     1       6.222  24.279  52.736  1.00  0.00     0.143 A 
HETATM   29  C   UNL     1       7.318  23.460  52.852  1.00  0.00     0.027 A 
HETATM   30  C   UNL     1       7.999  23.875  54.021  1.00  0.00     0.045 A 
ENDBRANCH  23  26
ENDBRANCH   1  22
TORSDOF 5
ENDMDL
MODEL 6
REMARK VINA RESULT:      -9.1      4.606     10.477
REMARK  5 active torsions:
REMARK  status: ('A' for Active; 'I' for Inactive)
REMARK    1  A    between atoms: C_4  and  C_5 
REMARK       I    between atoms: C_5  and  N_6 
REMARK    2  A    between atoms: N_6  and  C_7 
REMARK    3  A    between atoms: C_10  and  C_11 
REMARK    4  A    between atoms: C_11  and  N_12 
REMARK       I    between atoms: N_12  and  C_13 
REMARK       I    between atoms: C_13  and  N_14 
REMARK    5  A    between atoms: N_14  and  C_15 
ROOT
HETATM    1  C   UNL     1       7.144  26.958  55.807  1.00  0.00     0.035 A 
HETATM    2  C   UNL     1       8.102  27.939  56.058  1.00  0.00     0.030 A 
HETATM    3  C   UNL     1       7.768  29.091  56.778  1.00  0.00     0.011 A 
HETATM    4  C   UNL     1       6.469  29.275  57.269  1.00  0.00    -0.040 A 
HETATM    5  C   UNL     1       5.492  28.323  56.960  1.00  0.00     0.011 A 
HETATM    6  C   UNL     1       5.829  27.175  56.234  1.00  0.00     0.030 A 
ENDROOT
BRANCH   4   7
HETATM    7  C   UNL     1       6.152  30.452  58.147  1.00  0.00     0.162 C 
BRANCH   7   8
HETATM    8  N   UNL     1       7.289  31.310  58.381  1.00  0.00    -0.339 N 
HETATM    9  C   UNL     1       7.605  32.008  59.514  1.00  0.00     0.321 C 
HETATM   10  N   UNL     1       6.710  31.877  60.542  1.00  0.00    -0.306 N 
HETATM   11  O   UNL     1       8.627  32.682  59.502  1.00  0.00    -0.247 OA
HETATM   12  H   UNL     1       5.824  31.473  60.291  1.00  0.00     0.171 HD
HETATM   13  H   UNL     1       7.979  31.412  57.647  1.00  0.00     0.164 HD
BRANCH  10  14
HETATM   14  C   UNL     1       6.793  32.354  61.870  1.00  0.00     0.075 A 
HETATM   15  C   UNL     1       7.904  32.265  62.718  1.00  0.00     0.144 A 
HETATM   16  F   UNL     1       9.038  31.656  62.353  1.00  0.00    -0.204 F 
HETATM   17  C   UNL     1       7.862  32.772  64.019  1.00  0.00     0.063 A 
HETATM   18  C   UNL     1       6.697  33.364  64.495  1.00  0.00     0.014 A 
HETATM   19 BR   UNL     1       6.633  34.042  66.256  1.00  0.00    -0.051 Br
HETATM   20  C   UNL     1       5.573  33.448  63.681  1.00  0.00     0.021 A 
HETATM   21  C   UNL     1       5.623  32.945  62.377  1.00  0.00     0.034 A 
ENDBRANCH  10  14
ENDBRANCH   7   8
ENDBRANCH   4   7
BRANCH   1  22
HETATM   22  N   UNL     1       7.424  25.727  55.184  1.00  0.00    -0.321 N 
HETATM   23  C   UNL     1       7.710  24.511  55.784  1.00  0.00     0.279 C 
HETATM   24  O   UNL     1       7.875  24.330  56.985  1.00  0.00    -0.265 OA
HETATM   25  H   UNL     1       7.316  25.684  54.176  1.00  0.00     0.169 HD
BRANCH  23  26
HETATM   26  C   UNL     1       7.764  23.418  54.829  1.00  0.00     0.142 A 
HETATM   27  O   UNL     1       7.752  22.121  55.280  1.00  0.00    -0.317 OA
HETATM   28  C   UNL     1       7.838  21.318  54.189  1.00  0.00     0.143 A 
HETATM   29  C   UNL     1       7.909  22.068  53.040  1.00  0.00     0.027 A 
HETATM   30  C   UNL     1       7.857  23.422  53.450  1.00  0.00     0.045 A 
ENDBRANCH  23  26
ENDBRANCH   1  22
TORSDOF 5
ENDMDL
MODEL 7
REMARK VINA RESULT:      -8.9      1.886      2.693
REMARK  5 active torsions:
REMARK  status: ('A' for Active; 'I' for Inactive)
REMARK    1  A    between atoms: C_4  and  C_5 
REMARK       I    between atoms: C_5  and  N_6 
REMARK    2  A    between atoms: N_6  and  C_7 
REMARK    3  A    between atoms: C_10  and  C_11 
REMARK    4  A    between atoms: C_11  and  N_12 
REMARK       I    between atoms: N_12  and  C_13 
REMARK       I    between atoms: C_13  and  N_14 
REMARK    5  A    between atoms: N_14  and  C_15 
ROOT
HETATM    1  C   UNL     1       6.836  29.337  56.027  1.00  0.00     0.035 A 
HETATM    2  C   UNL     1       7.790  28.690  55.241  1.00  0.00     0.030 A 
HETATM    3  C   UNL     1       7.438  28.139  54.006  1.00  0.00     0.011 A 
HETATM    4  C   UNL     1       6.125  28.234  53.528  1.00  0.00    -0.040 A 
HETATM    5  C   UNL     1       5.154  28.823  54.345  1.00  0.00     0.011 A 
HETATM    6  C   UNL     1       5.509  29.369  55.583  1.00  0.00     0.030 A 
ENDROOT
BRANCH   4   7
HETATM    7  C   UNL     1       5.784  27.751  52.147  1.00  0.00     0.162 C 
BRANCH   7   8
HETATM    8  N   UNL     1       4.909  26.605  52.145  1.00  0.00    -0.339 N 
HETATM    9  C   UNL     1       5.169  25.339  52.595  1.00  0.00     0.321 C 
HETATM   10  N   UNL     1       6.431  25.151  53.094  1.00  0.00    -0.306 N 
HETATM   11  O   UNL     1       4.276  24.507  52.501  1.00  0.00    -0.247 OA
HETATM   12  H   UNL     1       7.090  25.879  52.878  1.00  0.00     0.171 HD
HETATM   13  H   UNL     1       3.963  26.716  51.801  1.00  0.00     0.164 HD
BRANCH  10  14
HETATM   14  C   UNL     1       6.979  24.021  53.742  1.00  0.00     0.075 A 
HETATM   15  C   UNL     1       6.986  23.774  55.121  1.00  0.00     0.144 A 
HETATM   16  F   UNL     1       6.485  24.642  56.007  1.00  0.00    -0.204 F 
HETATM   17  C   UNL     1       7.567  22.616  55.644  1.00  0.00     0.063 A 
HETATM   18  C   UNL     1       8.165  21.695  54.792  1.00  0.00     0.014 A 
HETATM   19 BR   UNL     1       8.960  20.133  55.497  1.00  0.00    -0.051 Br
HETATM   20  C   UNL     1       8.190  21.924  53.420  1.00  0.00     0.021 A 
HETATM   21  C   UNL     1       7.601  23.081  52.901  1.00  0.00     0.034 A 
ENDBRANCH  10  14
ENDBRANCH   7   8
ENDBRANCH   4   7
BRANCH   1  22
HETATM   22  N   UNL     1       7.131  30.007  57.229  1.00  0.00    -0.321 N 
HETATM   23  C   UNL     1       7.778  29.509  58.348  1.00  0.00     0.279 C 
HETATM   24  O   UNL     1       8.114  28.342  58.518  1.00  0.00    -0.265 OA
HETATM   25  H   UNL     1       6.936  31.002  57.263  1.00  0.00     0.169 HD
BRANCH  23  26
HETATM   26  C   UNL     1       8.069  30.542  59.328  1.00  0.00     0.142 A 
HETATM   27  O   UNL     1       7.192  31.584  59.495  1.00  0.00    -0.317 OA
HETATM   28  C   UNL     1       7.721  32.402  60.443  1.00  0.00     0.143 A 
HETATM   29  C   UNL     1       8.923  31.911  60.889  1.00  0.00     0.027 A 
HETATM   30  C   UNL     1       9.147  30.709  60.176  1.00  0.00     0.045 A 
ENDBRANCH  23  26
ENDBRANCH   1  22
TORSDOF 5
ENDMDL
MODEL 8
REMARK VINA RESULT:      -8.7      8.037     14.087
REMARK  5 active torsions:
REMARK  status: ('A' for Active; 'I' for Inactive)
REMARK    1  A    between atoms: C_4  and  C_5 
REMARK       I    between atoms: C_5  and  N_6 
REMARK    2  A    between atoms: N_6  and  C_7 
REMARK    3  A    between atoms: C_10  and  C_11 
REMARK    4  A    between atoms: C_11  and  N_12 
REMARK       I    between atoms: N_12  and  C_13 
REMARK       I    between atoms: C_13  and  N_14 
REMARK    5  A    between atoms: N_14  and  C_15 
ROOT
HETATM    1  C   UNL     1       6.966  32.186  62.733  1.00  0.00     0.035 A 
HETATM    2  C   UNL     1       5.603  32.324  62.992  1.00  0.00     0.030 A 
HETATM    3  C   UNL     1       5.160  33.076  64.084  1.00  0.00     0.011 A 
HETATM    4  C   UNL     1       6.074  33.713  64.932  1.00  0.00    -0.040 A 
HETATM    5  C   UNL     1       7.442  33.520  64.711  1.00  0.00     0.011 A 
HETATM    6  C   UNL     1       7.882  32.762  63.621  1.00  0.00     0.030 A 
ENDROOT
BRANCH   4   7
HETATM    7  C   UNL     1       5.588  34.621  66.026  1.00  0.00     0.162 C 
BRANCH   7   8
HETATM    8  N   UNL     1       5.072  33.907  67.169  1.00  0.00    -0.339 N 
HETATM    9  C   UNL     1       5.553  33.897  68.450  1.00  0.00     0.321 C 
HETATM   10  N   UNL     1       6.677  34.654  68.651  1.00  0.00    -0.306 N 
HETATM   11  O   UNL     1       4.958  33.218  69.276  1.00  0.00    -0.247 OA
HETATM   12  H   UNL     1       7.149  34.952  67.814  1.00  0.00     0.171 HD
HETATM   13  H   UNL     1       4.231  33.354  67.057  1.00  0.00     0.164 HD
BRANCH  10  14
HETATM   14  C   UNL     1       7.349  34.958  69.856  1.00  0.00     0.075 A 
HETATM   15  C   UNL     1       7.797  34.039  70.814  1.00  0.00     0.144 A 
HETATM   16  F   UNL     1       7.591  32.723  70.696  1.00  0.00    -0.204 F 
HETATM   17  C   UNL     1       8.448  34.466  71.974  1.00  0.00     0.063 A 
HETATM   18  C   UNL     1       8.644  35.824  72.199  1.00  0.00     0.014 A 
HETATM   19 BR   UNL     1       9.514  36.404  73.772  1.00  0.00    -0.051 Br
HETATM   20  C   UNL     1       8.191  36.759  71.275  1.00  0.00     0.021 A 
HETATM   21  C   UNL     1       7.547  36.326  70.112  1.00  0.00     0.034 A 
ENDBRANCH  10  14
ENDBRANCH   7   8
ENDBRANCH   4   7
BRANCH   1  22
HETATM   22  N   UNL     1       7.489  31.536  61.598  1.00  0.00    -0.321 N 
HETATM   23  C   UNL     1       7.147  31.731  60.270  1.00  0.00     0.279 C 
HETATM   24  O   UNL     1       6.235  32.442  59.864  1.00  0.00    -0.265 OA
HETATM   25  H   UNL     1       8.277  30.915  61.744  1.00  0.00     0.169 HD
BRANCH  23  26
HETATM   26  C   UNL     1       8.025  31.015  59.359  1.00  0.00     0.142 A 
HETATM   27  O   UNL     1       7.536  29.950  58.643  1.00  0.00    -0.317 OA
HETATM   28  C   UNL     1       8.566  29.461  57.905  1.00  0.00     0.143 A 
HETATM   29  C   UNL     1       9.711  30.185  58.131  1.00  0.00     0.027 A 
HETATM   30  C   UNL     1       9.363  31.190  59.064  1.00  0.00     0.045 A 
ENDBRANCH  23  26
ENDBRANCH   1  22
TORSDOF 5
ENDMDL
MODEL 9
REMARK VINA RESULT:      -8.6      7.048      9.713
REMARK  5 active torsions:
REMARK  status: ('A' for Active; 'I' for Inactive)
REMARK    1  A    between atoms: C_4  and  C_5 
REMARK       I    between atoms: C_5  and  N_6 
REMARK    2  A    between atoms: N_6  and  C_7 
REMARK    3  A    between atoms: C_10  and  C_11 
REMARK    4  A    between atoms: C_11  and  N_12 
REMARK       I    between atoms: N_12  and  C_13 
REMARK       I    between atoms: C_13  and  N_14 
REMARK    5  A    between atoms: N_14  and  C_15 
ROOT
HETATM    1  C   UNL     1       6.293  25.072  54.021  1.00  0.00     0.035 A 
HETATM    2  C   UNL     1       5.001  25.320  53.561  1.00  0.00     0.030 A 
HETATM    3  C   UNL     1       4.671  26.557  52.998  1.00  0.00     0.011 A 
HETATM    4  C   UNL     1       5.634  27.566  52.877  1.00  0.00    -0.040 A 
HETATM    5  C   UNL     1       6.913  27.341  53.398  1.00  0.00     0.011 A 
HETATM    6  C   UNL     1       7.237  26.104  53.966  1.00  0.00     0.030 A 
ENDROOT
BRANCH   4   7
HETATM    7  C   UNL     1       5.306  28.844  52.158  1.00  0.00     0.162 C 
BRANCH   7   8
HETATM    8  N   UNL     1       5.820  28.887  50.811  1.00  0.00    -0.339 N 
HETATM    9  C   UNL     1       5.163  28.604  49.644  1.00  0.00     0.321 C 
HETATM   10  N   UNL     1       3.858  28.218  49.794  1.00  0.00    -0.306 N 
HETATM   11  O   UNL     1       5.792  28.705  48.598  1.00  0.00    -0.247 OA
HETATM   12  H   UNL     1       3.588  27.973  50.731  1.00  0.00     0.171 HD
HETATM   13  H   UNL     1       6.776  29.186  50.665  1.00  0.00     0.164 HD
BRANCH  10  14
HETATM   14  C   UNL     1       2.875  27.978  48.807  1.00  0.00     0.075 A 
HETATM   15  C   UNL     1       2.664  26.776  48.118  1.00  0.00     0.144 A 
HETATM   16  F   UNL     1       3.432  25.698  48.306  1.00  0.00    -0.204 F 
HETATM   17  C   UNL     1       1.658  26.663  47.155  1.00  0.00     0.063 A 
HETATM   18  C   UNL     1       0.857  27.760  46.858  1.00  0.00     0.014 A 
HETATM   19 BR   UNL     1      -0.498  27.614  45.550  1.00  0.00    -0.051 Br
HETATM   20  C   UNL     1       1.058  28.971  47.512  1.00  0.00     0.021 A 
HETATM   21  C   UNL     1       2.061  29.076  48.480  1.00  0.00     0.034 A 
ENDBRANCH  10  14
ENDBRANCH   7   8
ENDBRANCH   4   7
BRANCH   1  22
HETATM   22  N   UNL     1       6.731  23.823  54.501  1.00  0.00    -0.321 N 
HETATM   23  C   UNL     1       7.520  22.887  53.852  1.00  0.00     0.279 C 
HETATM   24  O   UNL     1       7.885  22.949  52.684  1.00  0.00    -0.265 OA
HETATM   25  H   UNL     1       6.533  23.606  55.472  1.00  0.00     0.169 HD
BRANCH  23  26
HETATM   26  C   UNL     1       7.922  21.797  54.725  1.00  0.00     0.142 A 
HETATM   27  O   UNL     1       8.088  22.029  56.068  1.00  0.00    -0.317 OA
HETATM   28  C   UNL     1       8.487  20.858  56.628  1.00  0.00     0.143 A 
HETATM   29  C   UNL     1       8.586  19.874  55.675  1.00  0.00     0.027 A 
HETATM   30  C   UNL     1       8.217  20.476  54.448  1.00  0.00     0.045 A 
ENDBRANCH  23  26
ENDBRANCH   1  22
TORSDOF 5
ENDMDL
MODEL 10
REMARK VINA RESULT:      -8.6      3.668      5.250
REMARK  5 active torsions:
REMARK  status: ('A' for Active; 'I' for Inactive)
REMARK    1  A    between atoms: C_4  and  C_5 
REMARK       I    between atoms: C_5  and  N_6 
REMARK    2  A    between atoms: N_6  and  C_7 
REMARK    3  A    between atoms: C_10  and  C_11 
REMARK    4  A    between atoms: C_11  and  N_12 
REMARK       I    between atoms: N_12  and  C_13 
REMARK       I    between atoms: C_13  and  N_14 
REMARK    5  A    between atoms: N_14  and  C_15 
ROOT
HETATM    1  C   UNL     1       6.280  33.063  61.423  1.00  0.00     0.035 A 
HETATM    2  C   UNL     1       5.655  32.722  60.224  1.00  0.00     0.030 A 
HETATM    3  C   UNL     1       6.363  32.058  59.218  1.00  0.00     0.011 A 
HETATM    4  C   UNL     1       7.708  31.715  59.397  1.00  0.00    -0.040 A 
HETATM    5  C   UNL     1       8.353  32.116  60.571  1.00  0.00     0.011 A 
HETATM    6  C   UNL     1       7.643  32.786  61.574  1.00  0.00     0.030 A 
ENDROOT
BRANCH   4   7
HETATM    7  C   UNL     1       8.424  30.893  58.363  1.00  0.00     0.162 C 
BRANCH   7   8
HETATM    8  N   UNL     1       8.308  29.472  58.587  1.00  0.00    -0.339 N 
HETATM    9  C   UNL     1       7.766  28.526  57.761  1.00  0.00     0.321 C 
HETATM   10  N   UNL     1       7.261  29.008  56.582  1.00  0.00    -0.306 N 
HETATM   11  O   UNL     1       7.769  27.364  58.146  1.00  0.00    -0.247 OA
HETATM   12  H   UNL     1       7.140  30.006  56.544  1.00  0.00     0.171 HD
HETATM   13  H   UNL     1       8.688  29.082  59.440  1.00  0.00     0.164 HD
BRANCH  10  14
HETATM   14  C   UNL     1       6.751  28.302  55.469  1.00  0.00     0.075 A 
HETATM   15  C   UNL     1       5.422  27.905  55.272  1.00  0.00     0.144 A 
HETATM   16  F   UNL     1       4.465  28.132  56.178  1.00  0.00    -0.204 F 
HETATM   17  C   UNL     1       5.041  27.202  54.126  1.00  0.00     0.063 A 
HETATM   18  C   UNL     1       5.992  26.873  53.167  1.00  0.00     0.014 A 
HETATM   19 BR   UNL     1       5.481  25.915  51.621  1.00  0.00    -0.051 Br
HETATM   20  C   UNL     1       7.322  27.237  53.346  1.00  0.00     0.021 A 
HETATM   21  C   UNL     1       7.697  27.946  54.492  1.00  0.00     0.034 A 
ENDBRANCH  10  14
ENDBRANCH   7   8
ENDBRANCH   4   7
BRANCH   1  22
HETATM   22  N   UNL     1       5.612  33.636  62.523  1.00  0.00    -0.321 N 
HETATM   23  C   UNL     1       4.969  32.986  63.563  1.00  0.00     0.279 C 
HETATM   24  O   UNL     1       4.779  31.777  63.641  1.00  0.00    -0.265 OA
HETATM   25  H   UNL     1       5.681  34.641  62.633  1.00  0.00     0.169 HD
BRANCH  23  26
HETATM   26  C   UNL     1       4.552  33.897  64.616  1.00  0.00     0.142 A 
HETATM   27  O   UNL     1       4.478  33.448  65.911  1.00  0.00    -0.317 OA
HETATM   28  C   UNL     1       4.042  34.488  66.669  1.00  0.00     0.143 A 
HETATM   29  C   UNL     1       3.830  35.600  65.889  1.00  0.00     0.027 A 
HETATM   30  C   UNL     1       4.163  35.222  64.567  1.00  0.00     0.045 A 
ENDBRANCH  23  26
ENDBRANCH   1  22
TORSDOF 5
ENDMDL
