MODEL 1
REMARK VINA RESULT:      -9.1      0.000      0.000
REMARK  7 active torsions:
REMARK  status: ('A' for Active; 'I' for Inactive)
REMARK    1  A    between atoms: O_2  and  C_3 
REMARK    2  A    between atoms: C_4  and  C_5 
REMARK    3  A    between atoms: C_5  and  N_6 
REMARK    4  A    between atoms: C_5  and  C_12 
REMARK    5  A    between atoms: C_12  and  N_13 
REMARK       I    between atoms: N_13  and  C_14 
REMARK       I    between atoms: C_14  and  N_15 
REMARK    6  A    between atoms: N_15  and  C_16 
REMARK    7  A    between atoms: C_17  and  O_18 
ROOT
HETATM    1  N   UNL     1       7.950  26.877  56.805  1.00  0.00    -0.341 N 
HETATM    2  C   UNL     1       7.157  25.843  56.383  1.00  0.00     0.316 C 
HETATM    3  N   UNL     1       7.744  25.115  55.395  1.00  0.00    -0.332 N 
HETATM    4  O   UNL     1       6.101  25.549  56.926  1.00  0.00    -0.247 OA
HETATM    5  H   UNL     1       8.592  27.229  56.107  1.00  0.00     0.164 HD
HETATM    6  H   UNL     1       8.281  25.623  54.706  1.00  0.00     0.165 HD
ENDROOT
BRANCH   1   7
HETATM    7  C   UNL     1       7.466  27.822  57.804  1.00  0.00     0.162 C 
BRANCH   7   8
HETATM    8  C   UNL     1       7.308  29.317  57.357  1.00  0.00     0.241 C 
BRANCH   8   9
HETATM    9  C   UNL     1       8.015  30.321  58.272  1.00  0.00     0.007 A 
HETATM   10  C   UNL     1       9.364  30.650  58.013  1.00  0.00     0.076 A 
HETATM   11  C   UNL     1      10.034  31.586  58.805  1.00  0.00     0.037 A 
HETATM   12  C   UNL     1       9.377  32.196  59.872  1.00  0.00     0.003 A 
HETATM   13  C   UNL     1       8.049  31.886  60.141  1.00  0.00     0.001 A 
HETATM   14  C   UNL     1       7.369  30.959  59.346  1.00  0.00     0.012 A 
BRANCH  10  15
HETATM   15  O   UNL     1       9.928  30.059  56.908  1.00  0.00    -0.355 OA
HETATM   16  C   UNL     1      11.291  29.655  57.072  1.00  0.00     0.210 C 
ENDBRANCH  10  15
ENDBRANCH   8   9
BRANCH   8  17
HETATM   17  N   UNL     1       5.846  29.749  57.165  1.00  0.00    -0.061 N 
HETATM   18  H   UNL     1       5.699  30.367  57.977  1.00  0.00     0.280 HD
HETATM   19  C   UNL     1       4.794  28.682  57.224  1.00  0.00     0.236 C 
HETATM   20  C   UNL     1       4.332  28.543  55.791  1.00  0.00     0.029 C 
HETATM   21  C   UNL     1       4.375  29.965  55.267  1.00  0.00     0.029 C 
HETATM   22  C   UNL     1       5.561  30.616  55.961  1.00  0.00     0.236 C 
ENDBRANCH   8  17
ENDBRANCH   7   8
ENDBRANCH   1   7
BRANCH   3  23
HETATM   23  C   UNL     1       7.070  23.949  54.849  1.00  0.00     0.149 C 
HETATM   24  C   UNL     1       7.201  23.830  53.301  1.00  0.00     0.149 C 
HETATM   25  C   UNL     1       7.312  22.328  52.981  1.00  0.00     0.073 C 
HETATM   26  C   UNL     1       7.847  21.765  54.264  1.00  0.00    -0.047 A 
HETATM   27  C   UNL     1       7.706  22.672  55.321  1.00  0.00    -0.026 A 
HETATM   28  C   UNL     1       8.375  20.501  54.472  1.00  0.00     0.008 A 
HETATM   29  C   UNL     1       8.084  22.322  56.610  1.00  0.00     0.010 A 
HETATM   30  C   UNL     1       8.627  21.054  56.826  1.00  0.00     0.001 A 
HETATM   31  C   UNL     1       8.773  20.151  55.764  1.00  0.00     0.001 A 
BRANCH  24  32
HETATM   32  O   UNL     1       8.384  24.502  52.828  1.00  0.00    -0.393 OA
HETATM   33  H   UNL     1       8.485  25.295  53.384  1.00  0.00     0.210 HD
ENDBRANCH  24  32
ENDBRANCH   3  23
TORSDOF 7
ENDMDL
MODEL 2
REMARK VINA RESULT:      -8.8      2.101      8.298
REMARK  7 active torsions:
REMARK  status: ('A' for Active; 'I' for Inactive)
REMARK    1  A    between atoms: O_2  and  C_3 
REMARK    2  A    between atoms: C_4  and  C_5 
REMARK    3  A    between atoms: C_5  and  N_6 
REMARK    4  A    between atoms: C_5  and  C_12 
REMARK    5  A    between atoms: C_12  and  N_13 
REMARK       I    between atoms: N_13  and  C_14 
REMARK       I    between atoms: C_14  and  N_15 
REMARK    6  A    between atoms: N_15  and  C_16 
REMARK    7  A    between atoms: C_17  and  O_18 
ROOT
HETATM    1  N   UNL     1       7.194  27.754  56.701  1.00  0.00    -0.341 N 
HETATM    2  C   UNL     1       7.419  29.097  56.864  1.00  0.00     0.316 C 
HETATM    3  N   UNL     1       6.808  29.589  57.975  1.00  0.00    -0.332 N 
HETATM    4  O   UNL     1       8.181  29.735  56.151  1.00  0.00    -0.247 OA
HETATM    5  H   UNL     1       6.329  27.420  57.104  1.00  0.00     0.164 HD
HETATM    6  H   UNL     1       5.893  29.223  58.198  1.00  0.00     0.165 HD
ENDROOT
BRANCH   1   7
HETATM    7  C   UNL     1       7.699  27.056  55.525  1.00  0.00     0.162 C 
BRANCH   7   8
HETATM    8  C   UNL     1       6.709  26.088  54.790  1.00  0.00     0.241 C 
BRANCH   8   9
HETATM    9  C   UNL     1       7.310  24.722  54.446  1.00  0.00     0.007 A 
HETATM   10  C   UNL     1       7.769  23.894  55.494  1.00  0.00     0.076 A 
HETATM   11  C   UNL     1       8.294  22.627  55.225  1.00  0.00     0.037 A 
HETATM   12  C   UNL     1       8.382  22.173  53.910  1.00  0.00     0.003 A 
HETATM   13  C   UNL     1       7.934  22.974  52.865  1.00  0.00     0.001 A 
HETATM   14  C   UNL     1       7.397  24.237  53.129  1.00  0.00     0.012 A 
BRANCH  10  15
HETATM   15  O   UNL     1       7.593  24.379  56.768  1.00  0.00    -0.355 OA
HETATM   16  C   UNL     1       8.766  24.357  57.587  1.00  0.00     0.210 C 
ENDBRANCH  10  15
ENDBRANCH   8   9
BRANCH   8  17
HETATM   17  N   UNL     1       6.081  26.697  53.526  1.00  0.00    -0.061 N 
HETATM   18  H   UNL     1       6.503  26.122  52.781  1.00  0.00     0.280 HD
HETATM   19  C   UNL     1       6.399  28.129  53.215  1.00  0.00     0.236 C 
HETATM   20  C   UNL     1       5.108  28.861  53.505  1.00  0.00     0.029 C 
HETATM   21  C   UNL     1       4.039  27.887  53.050  1.00  0.00     0.029 C 
HETATM   22  C   UNL     1       4.591  26.506  53.365  1.00  0.00     0.236 C 
ENDBRANCH   8  17
ENDBRANCH   7   8
ENDBRANCH   1   7
BRANCH   3  23
HETATM   23  C   UNL     1       6.968  30.988  58.336  1.00  0.00     0.149 C 
HETATM   24  C   UNL     1       5.614  31.723  58.570  1.00  0.00     0.149 C 
HETATM   25  C   UNL     1       5.847  32.724  59.717  1.00  0.00     0.073 C 
HETATM   26  C   UNL     1       7.008  32.113  60.445  1.00  0.00    -0.047 A 
HETATM   27  C   UNL     1       7.647  31.141  59.668  1.00  0.00    -0.026 A 
HETATM   28  C   UNL     1       7.485  32.453  61.701  1.00  0.00     0.008 A 
HETATM   29  C   UNL     1       8.785  30.496  60.134  1.00  0.00     0.010 A 
HETATM   30  C   UNL     1       9.266  30.824  61.404  1.00  0.00     0.001 A 
HETATM   31  C   UNL     1       8.619  31.795  62.181  1.00  0.00     0.001 A 
BRANCH  24  32
HETATM   32  O   UNL     1       4.581  30.795  58.956  1.00  0.00    -0.393 OA
HETATM   33  H   UNL     1       4.740  30.590  59.893  1.00  0.00     0.210 HD
ENDBRANCH  24  32
ENDBRANCH   3  23
TORSDOF 7
ENDMDL
MODEL 3
REMARK VINA RESULT:      -8.8      3.451      9.094
REMARK  7 active torsions:
REMARK  status: ('A' for Active; 'I' for Inactive)
REMARK    1  A    between atoms: O_2  and  C_3 
REMARK    2  A    between atoms: C_4  and  C_5 
REMARK    3  A    between atoms: C_5  and  N_6 
REMARK    4  A    between atoms: C_5  and  C_12 
REMARK    5  A    between atoms: C_12  and  N_13 
REMARK       I    between atoms: N_13  and  C_14 
REMARK       I    between atoms: C_14  and  N_15 
REMARK    6  A    between atoms: N_15  and  C_16 
REMARK    7  A    between atoms: C_17  and  O_18 
ROOT
HETATM    1  N   UNL     1       5.286  30.607  58.745  1.00  0.00    -0.341 N 
HETATM    2  C   UNL     1       5.507  31.878  59.208  1.00  0.00     0.316 C 
HETATM    3  N   UNL     1       4.908  32.100  60.408  1.00  0.00    -0.332 N 
HETATM    4  O   UNL     1       6.259  32.667  58.652  1.00  0.00    -0.247 OA
HETATM    5  H   UNL     1       4.426  30.184  59.070  1.00  0.00     0.164 HD
HETATM    6  H   UNL     1       3.997  31.686  60.551  1.00  0.00     0.165 HD
ENDROOT
BRANCH   1   7
HETATM    7  C   UNL     1       5.780  30.199  57.436  1.00  0.00     0.162 C 
BRANCH   7   8
HETATM    8  C   UNL     1       6.771  28.984  57.393  1.00  0.00     0.241 C 
BRANCH   8   9
HETATM    9  C   UNL     1       8.228  29.373  57.132  1.00  0.00     0.007 A 
HETATM   10  C   UNL     1       9.020  29.818  58.214  1.00  0.00     0.076 A 
HETATM   11  C   UNL     1      10.364  30.152  58.024  1.00  0.00     0.037 A 
HETATM   12  C   UNL     1      10.933  30.062  56.755  1.00  0.00     0.003 A 
HETATM   13  C   UNL     1      10.169  29.625  55.678  1.00  0.00     0.001 A 
HETATM   14  C   UNL     1       8.828  29.279  55.864  1.00  0.00     0.012 A 
BRANCH  10  15
HETATM   15  O   UNL     1       8.414  29.821  59.446  1.00  0.00    -0.355 OA
HETATM   16  C   UNL     1       9.106  30.562  60.456  1.00  0.00     0.210 C 
ENDBRANCH  10  15
ENDBRANCH   8   9
BRANCH   8  17
HETATM   17  N   UNL     1       6.355  27.887  56.399  1.00  0.00    -0.061 N 
HETATM   18  H   UNL     1       6.556  28.336  55.493  1.00  0.00     0.280 HD
HETATM   19  C   UNL     1       4.911  27.480  56.381  1.00  0.00     0.236 C 
HETATM   20  C   UNL     1       4.913  26.102  57.004  1.00  0.00     0.029 C 
HETATM   21  C   UNL     1       6.199  25.483  56.491  1.00  0.00     0.029 C 
HETATM   22  C   UNL     1       7.192  26.630  56.405  1.00  0.00     0.236 C 
ENDBRANCH   8  17
ENDBRANCH   7   8
ENDBRANCH   1   7
BRANCH   3  23
HETATM   23  C   UNL     1       5.066  33.380  61.077  1.00  0.00     0.149 C 
HETATM   24  C   UNL     1       3.759  33.886  61.758  1.00  0.00     0.149 C 
HETATM   25  C   UNL     1       4.185  34.603  63.054  1.00  0.00     0.073 C 
HETATM   26  C   UNL     1       5.510  33.965  63.353  1.00  0.00    -0.047 A 
HETATM   27  C   UNL     1       6.014  33.283  62.240  1.00  0.00    -0.026 A 
HETATM   28  C   UNL     1       6.233  34.044  64.532  1.00  0.00     0.008 A 
HETATM   29  C   UNL     1       7.260  32.672  62.288  1.00  0.00     0.010 A 
HETATM   30  C   UNL     1       7.990  32.737  63.476  1.00  0.00     0.001 A 
HETATM   31  C   UNL     1       7.479  33.417  64.590  1.00  0.00     0.001 A 
BRANCH  24  32
HETATM   32  O   UNL     1       2.889  32.787  62.091  1.00  0.00    -0.393 OA
HETATM   33  H   UNL     1       2.820  32.782  63.062  1.00  0.00     0.210 HD
ENDBRANCH  24  32
ENDBRANCH   3  23
TORSDOF 7
ENDMDL
MODEL 4
REMARK VINA RESULT:      -8.8      2.026      8.416
REMARK  7 active torsions:
REMARK  status: ('A' for Active; 'I' for Inactive)
REMARK    1  A    between atoms: O_2  and  C_3 
REMARK    2  A    between atoms: C_4  and  C_5 
REMARK    3  A    between atoms: C_5  and  N_6 
REMARK    4  A    between atoms: C_5  and  C_12 
REMARK    5  A    between atoms: C_12  and  N_13 
REMARK       I    between atoms: N_13  and  C_14 
REMARK       I    between atoms: C_14  and  N_15 
REMARK    6  A    between atoms: N_15  and  C_16 
REMARK    7  A    between atoms: C_17  and  O_18 
ROOT
HETATM    1  N   UNL     1       7.740  29.476  55.810  1.00  0.00    -0.341 N 
HETATM    2  C   UNL     1       8.121  29.368  57.122  1.00  0.00     0.316 C 
HETATM    3  N   UNL     1       7.981  30.541  57.797  1.00  0.00    -0.332 N 
HETATM    4  O   UNL     1       8.432  28.304  57.639  1.00  0.00    -0.247 OA
HETATM    5  H   UNL     1       7.835  30.405  55.419  1.00  0.00     0.164 HD
HETATM    6  H   UNL     1       8.208  31.389  57.297  1.00  0.00     0.165 HD
ENDROOT
BRANCH   1   7
HETATM    7  C   UNL     1       7.891  28.348  54.899  1.00  0.00     0.162 C 
BRANCH   7   8
HETATM    8  C   UNL     1       7.053  27.061  55.213  1.00  0.00     0.241 C 
BRANCH   8   9
HETATM    9  C   UNL     1       7.399  25.858  54.330  1.00  0.00     0.007 A 
HETATM   10  C   UNL     1       7.425  24.570  54.910  1.00  0.00     0.076 A 
HETATM   11  C   UNL     1       7.705  23.444  54.132  1.00  0.00     0.037 A 
HETATM   12  C   UNL     1       7.977  23.584  52.772  1.00  0.00     0.003 A 
HETATM   13  C   UNL     1       7.956  24.844  52.184  1.00  0.00     0.001 A 
HETATM   14  C   UNL     1       7.665  25.973  52.954  1.00  0.00     0.012 A 
BRANCH  10  15
HETATM   15  O   UNL     1       7.084  24.499  56.239  1.00  0.00    -0.355 OA
HETATM   16  C   UNL     1       8.116  24.007  57.099  1.00  0.00     0.210 C 
ENDBRANCH  10  15
ENDBRANCH   8   9
BRANCH   8  17
HETATM   17  N   UNL     1       5.533  27.293  55.177  1.00  0.00    -0.061 N 
HETATM   18  H   UNL     1       5.175  26.334  55.054  1.00  0.00     0.280 HD
HETATM   19  C   UNL     1       4.985  28.119  54.051  1.00  0.00     0.236 C 
HETATM   20  C   UNL     1       4.582  29.417  54.713  1.00  0.00     0.029 C 
HETATM   21  C   UNL     1       4.052  28.975  56.063  1.00  0.00     0.029 C 
HETATM   22  C   UNL     1       4.904  27.780  56.460  1.00  0.00     0.236 C 
ENDBRANCH   8  17
ENDBRANCH   7   8
ENDBRANCH   1   7
BRANCH   3  23
HETATM   23  C   UNL     1       8.295  30.609  59.214  1.00  0.00     0.149 C 
HETATM   24  C   UNL     1       9.702  31.214  59.504  1.00  0.00     0.149 C 
HETATM   25  C   UNL     1       9.570  32.036  60.801  1.00  0.00     0.073 C 
HETATM   26  C   UNL     1       8.107  32.367  60.823  1.00  0.00    -0.047 A 
HETATM   27  C   UNL     1       7.384  31.561  59.937  1.00  0.00    -0.026 A 
HETATM   28  C   UNL     1       7.468  33.296  61.629  1.00  0.00     0.008 A 
HETATM   29  C   UNL     1       6.003  31.666  59.849  1.00  0.00     0.010 A 
HETATM   30  C   UNL     1       5.352  32.607  60.650  1.00  0.00     0.001 A 
HETATM   31  C   UNL     1       6.081  33.417  61.533  1.00  0.00     0.001 A 
BRANCH  24  32
HETATM   32  O   UNL     1      10.123  32.084  58.435  1.00  0.00    -0.393 OA
HETATM   33  H   UNL     1      10.925  31.680  58.060  1.00  0.00     0.210 HD
ENDBRANCH  24  32
ENDBRANCH   3  23
TORSDOF 7
ENDMDL
MODEL 5
REMARK VINA RESULT:      -8.7      3.416      8.485
REMARK  7 active torsions:
REMARK  status: ('A' for Active; 'I' for Inactive)
REMARK    1  A    between atoms: O_2  and  C_3 
REMARK    2  A    between atoms: C_4  and  C_5 
REMARK    3  A    between atoms: C_5  and  N_6 
REMARK    4  A    between atoms: C_5  and  C_12 
REMARK    5  A    between atoms: C_12  and  N_13 
REMARK       I    between atoms: N_13  and  C_14 
REMARK       I    between atoms: C_14  and  N_15 
REMARK    6  A    between atoms: N_15  and  C_16 
REMARK    7  A    between atoms: C_17  and  O_18 
ROOT
HETATM    1  N   UNL     1       6.420  28.574  53.895  1.00  0.00    -0.341 N 
HETATM    2  C   UNL     1       7.082  28.256  55.052  1.00  0.00     0.316 C 
HETATM    3  N   UNL     1       7.890  29.266  55.476  1.00  0.00    -0.332 N 
HETATM    4  O   UNL     1       6.868  27.230  55.682  1.00  0.00    -0.247 OA
HETATM    5  H   UNL     1       6.898  29.243  53.306  1.00  0.00     0.164 HD
HETATM    6  H   UNL     1       8.382  29.790  54.766  1.00  0.00     0.165 HD
ENDROOT
BRANCH   1   7
HETATM    7  C   UNL     1       5.566  27.593  53.238  1.00  0.00     0.162 C 
BRANCH   7   8
HETATM    8  C   UNL     1       6.142  26.885  51.962  1.00  0.00     0.241 C 
BRANCH   8   9
HETATM    9  C   UNL     1       5.359  27.175  50.678  1.00  0.00     0.007 A 
HETATM   10  C   UNL     1       5.276  28.507  50.215  1.00  0.00     0.076 A 
HETATM   11  C   UNL     1       4.598  28.809  49.031  1.00  0.00     0.037 A 
HETATM   12  C   UNL     1       3.983  27.794  48.300  1.00  0.00     0.003 A 
HETATM   13  C   UNL     1       4.055  26.477  48.741  1.00  0.00     0.001 A 
HETATM   14  C   UNL     1       4.741  26.167  49.918  1.00  0.00     0.012 A 
BRANCH  10  15
HETATM   15  O   UNL     1       5.959  29.446  50.950  1.00  0.00    -0.355 OA
HETATM   16  C   UNL     1       5.321  30.725  51.034  1.00  0.00     0.210 C 
ENDBRANCH  10  15
ENDBRANCH   8   9
BRANCH   8  17
HETATM   17  N   UNL     1       6.304  25.365  52.123  1.00  0.00    -0.061 N 
HETATM   18  H   UNL     1       5.793  25.009  51.301  1.00  0.00     0.280 HD
HETATM   19  C   UNL     1       5.692  24.728  53.335  1.00  0.00     0.236 C 
HETATM   20  C   UNL     1       6.881  24.359  54.194  1.00  0.00     0.029 C 
HETATM   21  C   UNL     1       7.928  23.934  53.183  1.00  0.00     0.029 C 
HETATM   22  C   UNL     1       7.706  24.825  51.972  1.00  0.00     0.236 C 
ENDBRANCH   8  17
ENDBRANCH   7   8
ENDBRANCH   1   7
BRANCH   3  23
HETATM   23  C   UNL     1       8.642  29.128  56.712  1.00  0.00     0.149 C 
HETATM   24  C   UNL     1      10.170  29.371  56.533  1.00  0.00     0.149 C 
HETATM   25  C   UNL     1      10.658  30.077  57.813  1.00  0.00     0.073 C 
HETATM   26  C   UNL     1       9.404  30.725  58.320  1.00  0.00    -0.047 A 
HETATM   27  C   UNL     1       8.266  30.189  57.709  1.00  0.00    -0.026 A 
HETATM   28  C   UNL     1       9.298  31.694  59.305  1.00  0.00     0.008 A 
HETATM   29  C   UNL     1       6.996  30.610  58.082  1.00  0.00     0.010 A 
HETATM   30  C   UNL     1       6.881  31.594  59.065  1.00  0.00     0.001 A 
HETATM   31  C   UNL     1       8.025  32.132  59.672  1.00  0.00     0.001 A 
BRANCH  24  32
HETATM   32  O   UNL     1      10.431  30.220  55.398  1.00  0.00    -0.393 OA
HETATM   33  H   UNL     1      10.374  31.135  55.727  1.00  0.00     0.210 HD
ENDBRANCH  24  32
ENDBRANCH   3  23
TORSDOF 7
ENDMDL
MODEL 6
REMARK VINA RESULT:      -8.7      3.563      5.803
REMARK  7 active torsions:
REMARK  status: ('A' for Active; 'I' for Inactive)
REMARK    1  A    between atoms: O_2  and  C_3 
REMARK    2  A    between atoms: C_4  and  C_5 
REMARK    3  A    between atoms: C_5  and  N_6 
REMARK    4  A    between atoms: C_5  and  C_12 
REMARK    5  A    between atoms: C_12  and  N_13 
REMARK       I    between atoms: N_13  and  C_14 
REMARK       I    between atoms: C_14  and  N_15 
REMARK    6  A    between atoms: N_15  and  C_16 
REMARK    7  A    between atoms: C_17  and  O_18 
ROOT
HETATM    1  N   UNL     1       5.463  25.316  52.443  1.00  0.00    -0.341 N 
HETATM    2  C   UNL     1       6.703  25.019  52.946  1.00  0.00     0.316 C 
HETATM    3  N   UNL     1       6.648  24.600  54.239  1.00  0.00    -0.332 N 
HETATM    4  O   UNL     1       7.717  25.019  52.260  1.00  0.00    -0.247 OA
HETATM    5  H   UNL     1       4.786  25.608  53.136  1.00  0.00     0.164 HD
HETATM    6  H   UNL     1       5.980  25.059  54.842  1.00  0.00     0.165 HD
ENDROOT
BRANCH   1   7
HETATM    7  C   UNL     1       5.319  25.857  51.098  1.00  0.00     0.162 C 
BRANCH   7   8
HETATM    8  C   UNL     1       5.415  27.415  50.940  1.00  0.00     0.241 C 
BRANCH   8   9
HETATM    9  C   UNL     1       4.886  28.199  52.144  1.00  0.00     0.007 A 
HETATM   10  C   UNL     1       5.779  28.536  53.186  1.00  0.00     0.076 A 
HETATM   11  C   UNL     1       5.343  29.279  54.286  1.00  0.00     0.037 A 
HETATM   12  C   UNL     1       4.012  29.684  54.372  1.00  0.00     0.003 A 
HETATM   13  C   UNL     1       3.119  29.361  53.356  1.00  0.00     0.001 A 
HETATM   14  C   UNL     1       3.551  28.629  52.248  1.00  0.00     0.012 A 
BRANCH  10  15
HETATM   15  O   UNL     1       7.088  28.161  53.004  1.00  0.00    -0.355 OA
HETATM   16  C   UNL     1       7.890  28.182  54.190  1.00  0.00     0.210 C 
ENDBRANCH  10  15
ENDBRANCH   8   9
BRANCH   8  17
HETATM   17  N   UNL     1       4.749  27.944  49.660  1.00  0.00    -0.061 N 
HETATM   18  H   UNL     1       4.122  28.673  50.033  1.00  0.00     0.280 HD
HETATM   19  C   UNL     1       3.901  26.989  48.874  1.00  0.00     0.236 C 
HETATM   20  C   UNL     1       4.722  26.706  47.635  1.00  0.00     0.029 C 
HETATM   21  C   UNL     1       5.379  28.039  47.335  1.00  0.00     0.029 C 
HETATM   22  C   UNL     1       5.653  28.669  48.690  1.00  0.00     0.236 C 
ENDBRANCH   8  17
ENDBRANCH   7   8
ENDBRANCH   1   7
BRANCH   3  23
HETATM   23  C   UNL     1       7.862  24.199  54.928  1.00  0.00     0.149 C 
HETATM   24  C   UNL     1       7.878  24.602  56.434  1.00  0.00     0.149 C 
HETATM   25  C   UNL     1       8.601  23.469  57.186  1.00  0.00     0.073 C 
HETATM   26  C   UNL     1       8.398  22.296  56.273  1.00  0.00    -0.047 A 
HETATM   27  C   UNL     1       7.990  22.703  54.998  1.00  0.00    -0.026 A 
HETATM   28  C   UNL     1       8.621  20.959  56.560  1.00  0.00     0.008 A 
HETATM   29  C   UNL     1       7.805  21.774  53.983  1.00  0.00     0.010 A 
HETATM   30  C   UNL     1       8.016  20.423  54.267  1.00  0.00     0.001 A 
HETATM   31  C   UNL     1       8.420  20.019  55.548  1.00  0.00     0.001 A 
BRANCH  24  32
HETATM   32  O   UNL     1       6.539  24.732  56.949  1.00  0.00    -0.393 OA
HETATM   33  H   UNL     1       5.963  24.859  56.175  1.00  0.00     0.210 HD
ENDBRANCH  24  32
ENDBRANCH   3  23
TORSDOF 7
ENDMDL
MODEL 7
REMARK VINA RESULT:      -8.7      4.958      8.024
REMARK  7 active torsions:
REMARK  status: ('A' for Active; 'I' for Inactive)
REMARK    1  A    between atoms: O_2  and  C_3 
REMARK    2  A    between atoms: C_4  and  C_5 
REMARK    3  A    between atoms: C_5  and  N_6 
REMARK    4  A    between atoms: C_5  and  C_12 
REMARK    5  A    between atoms: C_12  and  N_13 
REMARK       I    between atoms: N_13  and  C_14 
REMARK       I    between atoms: C_14  and  N_15 
REMARK    6  A    between atoms: N_15  and  C_16 
REMARK    7  A    between atoms: C_17  and  O_18 
ROOT
HETATM    1  N   UNL     1       5.330  25.505  51.802  1.00  0.00    -0.341 N 
HETATM    2  C   UNL     1       6.531  25.195  52.385  1.00  0.00     0.316 C 
HETATM    3  N   UNL     1       6.392  24.840  53.691  1.00  0.00    -0.332 N 
HETATM    4  O   UNL     1       7.579  25.134  51.758  1.00  0.00    -0.247 OA
HETATM    5  H   UNL     1       4.626  25.849  52.442  1.00  0.00     0.164 HD
HETATM    6  H   UNL     1       5.707  25.345  54.235  1.00  0.00     0.165 HD
ENDROOT
BRANCH   1   7
HETATM    7  C   UNL     1       5.276  25.987  50.427  1.00  0.00     0.162 C 
BRANCH   7   8
HETATM    8  C   UNL     1       4.498  27.323  50.168  1.00  0.00     0.241 C 
BRANCH   8   9
HETATM    9  C   UNL     1       3.442  27.228  49.064  1.00  0.00     0.007 A 
HETATM   10  C   UNL     1       2.264  27.999  49.178  1.00  0.00     0.076 A 
HETATM   11  C   UNL     1       1.290  27.965  48.176  1.00  0.00     0.037 A 
HETATM   12  C   UNL     1       1.468  27.155  47.056  1.00  0.00     0.003 A 
HETATM   13  C   UNL     1       2.622  26.389  46.927  1.00  0.00     0.001 A 
HETATM   14  C   UNL     1       3.604  26.428  47.919  1.00  0.00     0.012 A 
BRANCH  10  15
HETATM   15  O   UNL     1       2.184  28.823  50.274  1.00  0.00    -0.355 OA
HETATM   16  C   UNL     1       1.292  29.932  50.130  1.00  0.00     0.210 C 
ENDBRANCH  10  15
ENDBRANCH   8   9
BRANCH   8  17
HETATM   17  N   UNL     1       5.416  28.524  49.888  1.00  0.00    -0.061 N 
HETATM   18  H   UNL     1       6.332  28.066  49.761  1.00  0.00     0.280 HD
HETATM   19  C   UNL     1       5.577  29.542  50.977  1.00  0.00     0.236 C 
HETATM   20  C   UNL     1       4.817  30.746  50.466  1.00  0.00     0.029 C 
HETATM   21  C   UNL     1       5.093  30.731  48.975  1.00  0.00     0.029 C 
HETATM   22  C   UNL     1       5.170  29.262  48.593  1.00  0.00     0.236 C 
ENDBRANCH   8  17
ENDBRANCH   7   8
ENDBRANCH   1   7
BRANCH   3  23
HETATM   23  C   UNL     1       7.554  24.436  54.464  1.00  0.00     0.149 C 
HETATM   24  C   UNL     1       7.412  24.729  55.988  1.00  0.00     0.149 C 
HETATM   25  C   UNL     1       8.111  23.572  56.727  1.00  0.00     0.073 C 
HETATM   26  C   UNL     1       8.047  22.462  55.720  1.00  0.00    -0.047 A 
HETATM   27  C   UNL     1       7.741  22.945  54.443  1.00  0.00    -0.026 A 
HETATM   28  C   UNL     1       8.301  21.117  55.935  1.00  0.00     0.008 A 
HETATM   29  C   UNL     1       7.693  22.086  53.354  1.00  0.00     0.010 A 
HETATM   30  C   UNL     1       7.937  20.727  53.563  1.00  0.00     0.001 A 
HETATM   31  C   UNL     1       8.237  20.247  54.846  1.00  0.00     0.001 A 
BRANCH  24  32
HETATM   32  O   UNL     1       6.026  24.770  56.381  1.00  0.00    -0.393 OA
HETATM   33  H   UNL     1       5.532  25.069  55.597  1.00  0.00     0.210 HD
ENDBRANCH  24  32
ENDBRANCH   3  23
TORSDOF 7
ENDMDL
MODEL 8
REMARK VINA RESULT:      -8.4      5.002      7.686
REMARK  7 active torsions:
REMARK  status: ('A' for Active; 'I' for Inactive)
REMARK    1  A    between atoms: O_2  and  C_3 
REMARK    2  A    between atoms: C_4  and  C_5 
REMARK    3  A    between atoms: C_5  and  N_6 
REMARK    4  A    between atoms: C_5  and  C_12 
REMARK    5  A    between atoms: C_12  and  N_13 
REMARK       I    between atoms: N_13  and  C_14 
REMARK       I    between atoms: C_14  and  N_15 
REMARK    6  A    between atoms: N_15  and  C_16 
REMARK    7  A    between atoms: C_17  and  O_18 
ROOT
HETATM    1  N   UNL     1       3.472  27.462  52.912  1.00  0.00    -0.341 N 
HETATM    2  C   UNL     1       4.690  27.399  53.538  1.00  0.00     0.316 C 
HETATM    3  N   UNL     1       4.867  26.225  54.201  1.00  0.00    -0.332 N 
HETATM    4  O   UNL     1       5.552  28.256  53.404  1.00  0.00    -0.247 OA
HETATM    5  H   UNL     1       2.746  26.906  53.345  1.00  0.00     0.164 HD
HETATM    6  H   UNL     1       4.062  25.836  54.672  1.00  0.00     0.165 HD
ENDROOT
BRANCH   1   7
HETATM    7  C   UNL     1       3.060  28.673  52.213  1.00  0.00     0.162 C 
BRANCH   7   8
HETATM    8  C   UNL     1       3.483  28.809  50.709  1.00  0.00     0.241 C 
BRANCH   8   9
HETATM    9  C   UNL     1       2.713  29.884  49.938  1.00  0.00     0.007 A 
HETATM   10  C   UNL     1       3.407  30.680  48.999  1.00  0.00     0.076 A 
HETATM   11  C   UNL     1       2.734  31.650  48.251  1.00  0.00     0.037 A 
HETATM   12  C   UNL     1       1.368  31.851  48.437  1.00  0.00     0.003 A 
HETATM   13  C   UNL     1       0.668  31.077  49.356  1.00  0.00     0.001 A 
HETATM   14  C   UNL     1       1.332  30.097  50.098  1.00  0.00     0.012 A 
BRANCH  10  15
HETATM   15  O   UNL     1       4.737  30.384  48.822  1.00  0.00    -0.355 OA
HETATM   16  C   UNL     1       5.641  31.428  49.195  1.00  0.00     0.210 C 
ENDBRANCH  10  15
ENDBRANCH   8   9
BRANCH   8  17
HETATM   17  N   UNL     1       3.418  27.484  49.931  1.00  0.00    -0.061 N 
HETATM   18  H   UNL     1       2.957  26.861  50.612  1.00  0.00     0.280 HD
HETATM   19  C   UNL     1       4.718  26.840  49.551  1.00  0.00     0.236 C 
HETATM   20  C   UNL     1       4.801  27.042  48.054  1.00  0.00     0.029 C 
HETATM   21  C   UNL     1       3.364  26.888  47.596  1.00  0.00     0.029 C 
HETATM   22  C   UNL     1       2.518  27.468  48.718  1.00  0.00     0.236 C 
ENDBRANCH   8  17
ENDBRANCH   7   8
ENDBRANCH   1   7
BRANCH   3  23
HETATM   23  C   UNL     1       6.118  25.959  54.891  1.00  0.00     0.149 C 
HETATM   24  C   UNL     1       5.942  25.739  56.424  1.00  0.00     0.149 C 
HETATM   25  C   UNL     1       6.965  24.665  56.837  1.00  0.00     0.073 C 
HETATM   26  C   UNL     1       7.194  23.927  55.550  1.00  0.00    -0.047 A 
HETATM   27  C   UNL     1       6.725  24.656  54.451  1.00  0.00    -0.026 A 
HETATM   28  C   UNL     1       7.830  22.708  55.382  1.00  0.00     0.008 A 
HETATM   29  C   UNL     1       6.895  24.177  53.159  1.00  0.00     0.010 A 
HETATM   30  C   UNL     1       7.525  22.944  52.982  1.00  0.00     0.001 A 
HETATM   31  C   UNL     1       7.988  22.214  54.086  1.00  0.00     0.001 A 
BRANCH  24  32
HETATM   32  O   UNL     1       4.615  25.269  56.731  1.00  0.00    -0.393 OA
HETATM   33  H   UNL     1       4.523  24.409  56.285  1.00  0.00     0.210 HD
ENDBRANCH  24  32
ENDBRANCH   3  23
TORSDOF 7
ENDMDL
MODEL 9
REMARK VINA RESULT:      -8.4      4.909      7.961
REMARK  7 active torsions:
REMARK  status: ('A' for Active; 'I' for Inactive)
REMARK    1  A    between atoms: O_2  and  C_3 
REMARK    2  A    between atoms: C_4  and  C_5 
REMARK    3  A    between atoms: C_5  and  N_6 
REMARK    4  A    between atoms: C_5  and  C_12 
REMARK    5  A    between atoms: C_12  and  N_13 
REMARK       I    between atoms: N_13  and  C_14 
REMARK       I    between atoms: C_14  and  N_15 
REMARK    6  A    between atoms: N_15  and  C_16 
REMARK    7  A    between atoms: C_17  and  O_18 
ROOT
HETATM    1  N   UNL     1       3.496  27.638  52.733  1.00  0.00    -0.341 N 
HETATM    2  C   UNL     1       4.669  27.567  53.439  1.00  0.00     0.316 C 
HETATM    3  N   UNL     1       4.887  26.325  53.951  1.00  0.00    -0.332 N 
HETATM    4  O   UNL     1       5.472  28.488  53.490  1.00  0.00    -0.247 OA
HETATM    5  H   UNL     1       2.785  26.982  53.028  1.00  0.00     0.164 HD
HETATM    6  H   UNL     1       4.081  25.824  54.300  1.00  0.00     0.165 HD
ENDROOT
BRANCH   1   7
HETATM    7  C   UNL     1       3.045  28.906  52.172  1.00  0.00     0.162 C 
BRANCH   7   8
HETATM    8  C   UNL     1       3.463  29.223  50.695  1.00  0.00     0.241 C 
BRANCH   8   9
HETATM    9  C   UNL     1       3.422  28.012  49.759  1.00  0.00     0.007 A 
HETATM   10  C   UNL     1       2.335  27.875  48.867  1.00  0.00     0.076 A 
HETATM   11  C   UNL     1       2.276  26.801  47.974  1.00  0.00     0.037 A 
HETATM   12  C   UNL     1       3.288  25.844  47.966  1.00  0.00     0.003 A 
HETATM   13  C   UNL     1       4.366  25.962  48.836  1.00  0.00     0.001 A 
HETATM   14  C   UNL     1       4.437  27.040  49.723  1.00  0.00     0.012 A 
BRANCH  10  15
HETATM   15  O   UNL     1       1.407  28.888  48.885  1.00  0.00    -0.355 OA
HETATM   16  C   UNL     1       0.987  29.342  47.594  1.00  0.00     0.210 C 
ENDBRANCH  10  15
ENDBRANCH   8   9
BRANCH   8  17
HETATM   17  N   UNL     1       4.836  29.905  50.578  1.00  0.00    -0.061 N 
HETATM   18  H   UNL     1       5.464  29.185  50.967  1.00  0.00     0.280 HD
HETATM   19  C   UNL     1       5.056  31.159  51.370  1.00  0.00     0.236 C 
HETATM   20  C   UNL     1       5.073  32.253  50.326  1.00  0.00     0.029 C 
HETATM   21  C   UNL     1       5.771  31.604  49.147  1.00  0.00     0.029 C 
HETATM   22  C   UNL     1       5.343  30.146  49.176  1.00  0.00     0.236 C 
ENDBRANCH   8  17
ENDBRANCH   7   8
ENDBRANCH   1   7
BRANCH   3  23
HETATM   23  C   UNL     1       6.102  26.046  54.695  1.00  0.00     0.149 C 
HETATM   24  C   UNL     1       5.861  25.868  56.225  1.00  0.00     0.149 C 
HETATM   25  C   UNL     1       6.841  24.780  56.703  1.00  0.00     0.073 C 
HETATM   26  C   UNL     1       7.102  24.007  55.444  1.00  0.00    -0.047 A 
HETATM   27  C   UNL     1       6.694  24.719  54.310  1.00  0.00    -0.026 A 
HETATM   28  C   UNL     1       7.714  22.769  55.329  1.00  0.00     0.008 A 
HETATM   29  C   UNL     1       6.902  24.206  53.038  1.00  0.00     0.010 A 
HETATM   30  C   UNL     1       7.508  22.954  52.913  1.00  0.00     0.001 A 
HETATM   31  C   UNL     1       7.910  22.240  54.052  1.00  0.00     0.001 A 
BRANCH  24  32
HETATM   32  O   UNL     1       4.512  25.437  56.490  1.00  0.00    -0.393 OA
HETATM   33  H   UNL     1       4.014  26.240  56.726  1.00  0.00     0.210 HD
ENDBRANCH  24  32
ENDBRANCH   3  23
TORSDOF 7
ENDMDL
MODEL 10
REMARK VINA RESULT:      -8.4      4.399      7.376
REMARK  7 active torsions:
REMARK  status: ('A' for Active; 'I' for Inactive)
REMARK    1  A    between atoms: O_2  and  C_3 
REMARK    2  A    between atoms: C_4  and  C_5 
REMARK    3  A    between atoms: C_5  and  N_6 
REMARK    4  A    between atoms: C_5  and  C_12 
REMARK    5  A    between atoms: C_12  and  N_13 
REMARK       I    between atoms: N_13  and  C_14 
REMARK       I    between atoms: C_14  and  N_15 
REMARK    6  A    between atoms: N_15  and  C_16 
REMARK    7  A    between atoms: C_17  and  O_18 
ROOT
HETATM    1  N   UNL     1       5.723  25.615  51.729  1.00  0.00    -0.341 N 
HETATM    2  C   UNL     1       6.902  25.418  52.400  1.00  0.00     0.316 C 
HETATM    3  N   UNL     1       6.798  24.446  53.347  1.00  0.00    -0.332 N 
HETATM    4  O   UNL     1       7.946  25.974  52.089  1.00  0.00    -0.247 OA
HETATM    5  H   UNL     1       4.892  25.384  52.258  1.00  0.00     0.164 HD
HETATM    6  H   UNL     1       5.933  24.401  53.867  1.00  0.00     0.165 HD
ENDROOT
BRANCH   1   7
HETATM    7  C   UNL     1       5.608  26.669  50.729  1.00  0.00     0.162 C 
BRANCH   7   8
HETATM    8  C   UNL     1       4.314  27.555  50.770  1.00  0.00     0.241 C 
BRANCH   8   9
HETATM    9  C   UNL     1       3.960  28.208  49.432  1.00  0.00     0.007 A 
HETATM   10  C   UNL     1       3.359  27.420  48.425  1.00  0.00     0.076 A 
HETATM   11  C   UNL     1       2.990  27.986  47.202  1.00  0.00     0.037 A 
HETATM   12  C   UNL     1       3.228  29.337  46.958  1.00  0.00     0.003 A 
HETATM   13  C   UNL     1       3.819  30.128  47.937  1.00  0.00     0.001 A 
HETATM   14  C   UNL     1       4.178  29.572  49.167  1.00  0.00     0.012 A 
BRANCH  10  15
HETATM   15  O   UNL     1       3.096  26.113  48.757  1.00  0.00    -0.355 OA
HETATM   16  C   UNL     1       3.100  25.200  47.656  1.00  0.00     0.210 C 
ENDBRANCH  10  15
ENDBRANCH   8   9
BRANCH   8  17
HETATM   17  N   UNL     1       4.343  28.632  51.867  1.00  0.00    -0.061 N 
HETATM   18  H   UNL     1       4.095  29.481  51.336  1.00  0.00     0.280 HD
HETATM   19  C   UNL     1       5.655  28.899  52.542  1.00  0.00     0.236 C 
HETATM   20  C   UNL     1       5.477  28.320  53.928  1.00  0.00     0.029 C 
HETATM   21  C   UNL     1       4.030  28.630  54.257  1.00  0.00     0.029 C 
HETATM   22  C   UNL     1       3.283  28.520  52.938  1.00  0.00     0.236 C 
ENDBRANCH   8  17
ENDBRANCH   7   8
ENDBRANCH   1   7
BRANCH   3  23
HETATM   23  C   UNL     1       7.960  24.067  54.133  1.00  0.00     0.149 C 
HETATM   24  C   UNL     1       7.808  24.386  55.650  1.00  0.00     0.149 C 
HETATM   25  C   UNL     1       8.514  23.249  56.414  1.00  0.00     0.073 C 
HETATM   26  C   UNL     1       8.464  22.120  55.427  1.00  0.00    -0.047 A 
HETATM   27  C   UNL     1       8.161  22.578  54.139  1.00  0.00    -0.026 A 
HETATM   28  C   UNL     1       8.729  20.782  55.667  1.00  0.00     0.008 A 
HETATM   29  C   UNL     1       8.125  21.698  53.065  1.00  0.00     0.010 A 
HETATM   30  C   UNL     1       8.380  20.346  53.301  1.00  0.00     0.001 A 
HETATM   31  C   UNL     1       8.679  19.891  54.593  1.00  0.00     0.001 A 
BRANCH  24  32
HETATM   32  O   UNL     1       6.420  24.422  56.036  1.00  0.00    -0.393 OA
HETATM   33  H   UNL     1       5.914  24.153  55.249  1.00  0.00     0.210 HD
ENDBRANCH  24  32
ENDBRANCH   3  23
TORSDOF 7
ENDMDL
