MODEL 1
REMARK VINA RESULT:      -8.7      0.000      0.000
REMARK  7 active torsions:
REMARK  status: ('A' for Active; 'I' for Inactive)
REMARK    1  A    between atoms: C_2  and  C_3 
REMARK    2  A    between atoms: C_3  and  C_4 
REMARK    3  A    between atoms: C_8  and  C_9 
REMARK       I    between atoms: C_9  and  N_10 
REMARK    4  A    between atoms: N_10  and  C_11 
REMARK    5  A    between atoms: C_12  and  O_13 
REMARK    6  A    between atoms: O_13  and  C_14 
REMARK    7  A    between atoms: C_14  and  C_15 
ROOT
HETATM    1  C   UNL     1       5.474  27.471  53.074  1.00  0.00     0.113 C 
HETATM    2  C   UNL     1       6.123  26.158  52.562  1.00  0.00     0.144 C 
HETATM    3  C   UNL     1       5.271  25.544  51.445  1.00  0.00     0.034 C 
HETATM    4  C   UNL     1       5.041  26.523  50.299  1.00  0.00     0.003 C 
HETATM    5  C   UNL     1       4.452  27.840  50.788  1.00  0.00     0.002 C 
HETATM    6  C   UNL     1       5.290  28.454  51.906  1.00  0.00     0.028 C 
ENDROOT
BRANCH   1   7
HETATM    7  N   UNL     1       6.280  28.045  54.154  1.00  0.00    -0.349 N 
HETATM    8  C   UNL     1       5.776  28.215  55.424  1.00  0.00     0.270 C 
HETATM    9  O   UNL     1       4.593  28.046  55.704  1.00  0.00    -0.266 OA
HETATM   10  H   UNL     1       7.276  27.876  54.086  1.00  0.00     0.163 HD
BRANCH   8  11
HETATM   11  C   UNL     1       6.743  28.586  56.422  1.00  0.00     0.119 A 
HETATM   12  N   UNL     1       7.146  27.695  57.382  1.00  0.00    -0.273 N 
HETATM   13  N   UNL     1       8.057  28.185  58.239  1.00  0.00    -0.179 NA
HETATM   14  H   UNL     1       6.829  26.737  57.492  1.00  0.00     0.189 HD
HETATM   15  C   UNL     1       8.244  29.443  57.825  1.00  0.00     0.057 A 
HETATM   16  C   UNL     1       7.440  29.745  56.699  1.00  0.00     0.065 A 
BRANCH  15  17
HETATM   17  C   UNL     1       9.200  30.338  58.541  1.00  0.00     0.061 C 
BRANCH  17  18
HETATM   18  C   UNL     1      10.396  30.762  57.684  1.00  0.00     0.002 C 
HETATM   19  C   UNL     1      11.076  29.593  56.985  1.00  0.00     0.005 C 
ENDBRANCH  17  18
ENDBRANCH  15  17
ENDBRANCH   8  11
ENDBRANCH   1   7
BRANCH   2  20
HETATM   20  O   UNL     1       6.247  25.269  53.684  1.00  0.00    -0.379 OA
BRANCH  20  21
HETATM   21  C   UNL     1       7.586  24.838  53.932  1.00  0.00     0.206 C 
BRANCH  21  22
HETATM   22  C   UNL     1       7.673  23.335  54.057  1.00  0.00    -0.035 A 
HETATM   23  C   UNL     1       7.878  22.500  52.950  1.00  0.00     0.009 A 
HETATM   24  C   UNL     1       7.997  21.118  53.113  1.00  0.00     0.001 A 
HETATM   25  C   UNL     1       7.921  20.554  54.385  1.00  0.00     0.000 A 
HETATM   26  C   UNL     1       7.728  21.372  55.496  1.00  0.00     0.001 A 
HETATM   27  C   UNL     1       7.606  22.753  55.334  1.00  0.00     0.009 A 
ENDBRANCH  21  22
ENDBRANCH  20  21
ENDBRANCH   2  20
TORSDOF 7
ENDMDL
MODEL 2
REMARK VINA RESULT:      -8.6      1.173      1.393
REMARK  7 active torsions:
REMARK  status: ('A' for Active; 'I' for Inactive)
REMARK    1  A    between atoms: C_2  and  C_3 
REMARK    2  A    between atoms: C_3  and  C_4 
REMARK    3  A    between atoms: C_8  and  C_9 
REMARK       I    between atoms: C_9  and  N_10 
REMARK    4  A    between atoms: N_10  and  C_11 
REMARK    5  A    between atoms: C_12  and  O_13 
REMARK    6  A    between atoms: O_13  and  C_14 
REMARK    7  A    between atoms: C_14  and  C_15 
ROOT
HETATM    1  C   UNL     1       5.517  27.363  53.598  1.00  0.00     0.113 C 
HETATM    2  C   UNL     1       6.307  26.066  53.277  1.00  0.00     0.144 C 
HETATM    3  C   UNL     1       5.598  25.272  52.173  1.00  0.00     0.034 C 
HETATM    4  C   UNL     1       5.385  26.108  50.916  1.00  0.00     0.003 C 
HETATM    5  C   UNL     1       4.656  27.412  51.219  1.00  0.00     0.002 C 
HETATM    6  C   UNL     1       5.351  28.204  52.323  1.00  0.00     0.028 C 
ENDROOT
BRANCH   1   7
HETATM    7  N   UNL     1       6.186  28.109  54.666  1.00  0.00    -0.349 N 
HETATM    8  C   UNL     1       5.560  28.384  55.861  1.00  0.00     0.270 C 
HETATM    9  O   UNL     1       4.369  28.165  56.061  1.00  0.00    -0.266 OA
HETATM   10  H   UNL     1       7.192  28.005  54.701  1.00  0.00     0.163 HD
BRANCH   8  11
HETATM   11  C   UNL     1       6.408  28.932  56.886  1.00  0.00     0.119 A 
HETATM   12  N   UNL     1       7.333  28.153  57.531  1.00  0.00    -0.273 N 
HETATM   13  N   UNL     1       8.053  28.808  58.456  1.00  0.00    -0.179 NA
HETATM   14  H   UNL     1       7.512  27.166  57.371  1.00  0.00     0.189 HD
HETATM   15  C   UNL     1       7.571  30.054  58.417  1.00  0.00     0.057 A 
HETATM   16  C   UNL     1       6.536  30.182  57.459  1.00  0.00     0.065 A 
BRANCH  15  17
HETATM   17  C   UNL     1       8.122  31.105  59.323  1.00  0.00     0.061 C 
BRANCH  17  18
HETATM   18  C   UNL     1       8.933  30.538  60.491  1.00  0.00     0.002 C 
HETATM   19  C   UNL     1       9.461  31.613  61.431  1.00  0.00     0.005 C 
ENDBRANCH  17  18
ENDBRANCH  15  17
ENDBRANCH   8  11
ENDBRANCH   1   7
BRANCH   2  20
HETATM   20  O   UNL     1       6.409  25.308  54.493  1.00  0.00    -0.379 OA
BRANCH  20  21
HETATM   21  C   UNL     1       7.716  24.782  54.735  1.00  0.00     0.206 C 
BRANCH  21  22
HETATM   22  C   UNL     1       7.768  23.291  54.497  1.00  0.00    -0.035 A 
HETATM   23  C   UNL     1       7.995  22.741  53.228  1.00  0.00     0.009 A 
HETATM   24  C   UNL     1       8.080  21.357  53.057  1.00  0.00     0.001 A 
HETATM   25  C   UNL     1       7.949  20.507  54.154  1.00  0.00     0.000 A 
HETATM   26  C   UNL     1       7.734  21.040  55.423  1.00  0.00     0.001 A 
HETATM   27  C   UNL     1       7.646  22.422  55.594  1.00  0.00     0.009 A 
ENDBRANCH  21  22
ENDBRANCH  20  21
ENDBRANCH   2  20
TORSDOF 7
ENDMDL
MODEL 3
REMARK VINA RESULT:      -8.6      3.204      7.047
REMARK  7 active torsions:
REMARK  status: ('A' for Active; 'I' for Inactive)
REMARK    1  A    between atoms: C_2  and  C_3 
REMARK    2  A    between atoms: C_3  and  C_4 
REMARK    3  A    between atoms: C_8  and  C_9 
REMARK       I    between atoms: C_9  and  N_10 
REMARK    4  A    between atoms: N_10  and  C_11 
REMARK    5  A    between atoms: C_12  and  O_13 
REMARK    6  A    between atoms: O_13  and  C_14 
REMARK    7  A    between atoms: C_14  and  C_15 
ROOT
HETATM    1  C   UNL     1       5.205  27.160  53.539  1.00  0.00     0.113 C 
HETATM    2  C   UNL     1       5.345  25.772  54.218  1.00  0.00     0.144 C 
HETATM    3  C   UNL     1       5.992  25.920  55.601  1.00  0.00     0.034 C 
HETATM    4  C   UNL     1       5.220  26.889  56.491  1.00  0.00     0.003 C 
HETATM    5  C   UNL     1       5.027  28.243  55.819  1.00  0.00     0.002 C 
HETATM    6  C   UNL     1       4.392  28.104  54.439  1.00  0.00     0.028 C 
ENDROOT
BRANCH   1   7
HETATM    7  N   UNL     1       4.606  27.014  52.210  1.00  0.00    -0.349 N 
HETATM    8  C   UNL     1       5.001  27.792  51.146  1.00  0.00     0.270 C 
HETATM    9  O   UNL     1       5.758  28.752  51.261  1.00  0.00    -0.266 OA
HETATM   10  H   UNL     1       4.275  26.084  51.987  1.00  0.00     0.163 HD
BRANCH   8  11
HETATM   11  C   UNL     1       4.481  27.391  49.867  1.00  0.00     0.119 A 
HETATM   12  N   UNL     1       5.260  26.712  48.967  1.00  0.00    -0.273 N 
HETATM   13  N   UNL     1       4.633  26.401  47.821  1.00  0.00    -0.179 NA
HETATM   14  H   UNL     1       6.229  26.435  49.091  1.00  0.00     0.189 HD
HETATM   15  C   UNL     1       3.404  26.905  47.979  1.00  0.00     0.057 A 
HETATM   16  C   UNL     1       3.261  27.541  49.237  1.00  0.00     0.065 A 
BRANCH  15  17
HETATM   17  C   UNL     1       2.387  26.766  46.896  1.00  0.00     0.061 C 
BRANCH  17  18
HETATM   18  C   UNL     1       0.971  27.146  47.337  1.00  0.00     0.002 C 
HETATM   19  C   UNL     1       0.064  27.524  46.175  1.00  0.00     0.005 C 
ENDBRANCH  17  18
ENDBRANCH  15  17
ENDBRANCH   8  11
ENDBRANCH   1   7
BRANCH   2  20
HETATM   20  O   UNL     1       6.135  24.942  53.351  1.00  0.00    -0.379 OA
BRANCH  20  21
HETATM   21  C   UNL     1       7.430  24.635  53.870  1.00  0.00     0.206 C 
BRANCH  21  22
HETATM   22  C   UNL     1       7.634  23.145  54.010  1.00  0.00    -0.035 A 
HETATM   23  C   UNL     1       7.921  22.319  52.914  1.00  0.00     0.009 A 
HETATM   24  C   UNL     1       8.146  20.952  53.093  1.00  0.00     0.001 A 
HETATM   25  C   UNL     1       8.096  20.395  54.369  1.00  0.00     0.000 A 
HETATM   26  C   UNL     1       7.823  21.204  55.469  1.00  0.00     0.001 A 
HETATM   27  C   UNL     1       7.594  22.570  55.292  1.00  0.00     0.009 A 
ENDBRANCH  21  22
ENDBRANCH  20  21
ENDBRANCH   2  20
TORSDOF 7
ENDMDL
MODEL 4
REMARK VINA RESULT:      -8.4      2.000      4.944
REMARK  7 active torsions:
REMARK  status: ('A' for Active; 'I' for Inactive)
REMARK    1  A    between atoms: C_2  and  C_3 
REMARK    2  A    between atoms: C_3  and  C_4 
REMARK    3  A    between atoms: C_8  and  C_9 
REMARK       I    between atoms: C_9  and  N_10 
REMARK    4  A    between atoms: N_10  and  C_11 
REMARK    5  A    between atoms: C_12  and  O_13 
REMARK    6  A    between atoms: O_13  and  C_14 
REMARK    7  A    between atoms: C_14  and  C_15 
ROOT
HETATM    1  C   UNL     1       8.107  23.030  55.065  1.00  0.00     0.113 C 
HETATM    2  C   UNL     1       7.778  22.993  53.550  1.00  0.00     0.144 C 
HETATM    3  C   UNL     1       8.346  21.717  52.914  1.00  0.00     0.034 C 
HETATM    4  C   UNL     1       7.846  20.459  53.614  1.00  0.00     0.003 C 
HETATM    5  C   UNL     1       8.114  20.500  55.114  1.00  0.00     0.002 C 
HETATM    6  C   UNL     1       7.558  21.770  55.752  1.00  0.00     0.028 C 
ENDROOT
BRANCH   1   7
HETATM    7  N   UNL     1       7.580  24.258  55.666  1.00  0.00    -0.349 N 
HETATM    8  C   UNL     1       8.251  24.923  56.667  1.00  0.00     0.270 C 
HETATM    9  O   UNL     1       9.242  24.465  57.229  1.00  0.00    -0.266 OA
HETATM   10  H   UNL     1       7.011  24.829  55.052  1.00  0.00     0.163 HD
BRANCH   8  11
HETATM   11  C   UNL     1       7.724  26.218  57.004  1.00  0.00     0.119 A 
HETATM   12  N   UNL     1       6.373  26.437  57.071  1.00  0.00    -0.273 N 
HETATM   13  N   UNL     1       6.035  27.693  57.404  1.00  0.00    -0.179 NA
HETATM   14  H   UNL     1       5.639  25.756  56.899  1.00  0.00     0.189 HD
HETATM   15  C   UNL     1       7.210  28.314  57.549  1.00  0.00     0.057 A 
HETATM   16  C   UNL     1       8.296  27.439  57.302  1.00  0.00     0.065 A 
BRANCH  15  17
HETATM   17  C   UNL     1       7.259  29.759  57.920  1.00  0.00     0.061 C 
BRANCH  17  18
HETATM   18  C   UNL     1       8.226  30.063  59.067  1.00  0.00     0.002 C 
HETATM   19  C   UNL     1       9.486  30.786  58.611  1.00  0.00     0.005 C 
ENDBRANCH  17  18
ENDBRANCH  15  17
ENDBRANCH   8  11
ENDBRANCH   1   7
BRANCH   2  20
HETATM   20  O   UNL     1       8.336  24.175  52.954  1.00  0.00    -0.379 OA
BRANCH  20  21
HETATM   21  C   UNL     1       7.476  24.798  51.998  1.00  0.00     0.206 C 
BRANCH  21  22
HETATM   22  C   UNL     1       6.719  25.957  52.603  1.00  0.00    -0.035 A 
HETATM   23  C   UNL     1       5.319  26.029  52.587  1.00  0.00     0.009 A 
HETATM   24  C   UNL     1       4.654  27.096  53.197  1.00  0.00     0.001 A 
HETATM   25  C   UNL     1       5.380  28.097  53.839  1.00  0.00     0.000 A 
HETATM   26  C   UNL     1       6.771  28.034  53.873  1.00  0.00     0.001 A 
HETATM   27  C   UNL     1       7.436  26.970  53.261  1.00  0.00     0.009 A 
ENDBRANCH  21  22
ENDBRANCH  20  21
ENDBRANCH   2  20
TORSDOF 7
ENDMDL
MODEL 5
REMARK VINA RESULT:      -8.2      2.048      6.383
REMARK  7 active torsions:
REMARK  status: ('A' for Active; 'I' for Inactive)
REMARK    1  A    between atoms: C_2  and  C_3 
REMARK    2  A    between atoms: C_3  and  C_4 
REMARK    3  A    between atoms: C_8  and  C_9 
REMARK       I    between atoms: C_9  and  N_10 
REMARK    4  A    between atoms: N_10  and  C_11 
REMARK    5  A    between atoms: C_12  and  O_13 
REMARK    6  A    between atoms: O_13  and  C_14 
REMARK    7  A    between atoms: C_14  and  C_15 
ROOT
HETATM    1  C   UNL     1       7.385  26.741  54.830  1.00  0.00     0.113 C 
HETATM    2  C   UNL     1       6.499  26.069  55.912  1.00  0.00     0.144 C 
HETATM    3  C   UNL     1       7.177  26.159  57.285  1.00  0.00     0.034 C 
HETATM    4  C   UNL     1       7.507  27.598  57.665  1.00  0.00     0.003 C 
HETATM    5  C   UNL     1       8.334  28.292  56.589  1.00  0.00     0.002 C 
HETATM    6  C   UNL     1       7.670  28.200  55.218  1.00  0.00     0.028 C 
ENDROOT
BRANCH   1   7
HETATM    7  N   UNL     1       6.745  26.636  53.516  1.00  0.00    -0.349 N 
HETATM    8  C   UNL     1       5.525  27.216  53.255  1.00  0.00     0.270 C 
HETATM    9  O   UNL     1       4.823  27.722  54.126  1.00  0.00    -0.266 OA
HETATM   10  H   UNL     1       7.381  26.556  52.732  1.00  0.00     0.163 HD
BRANCH   8  11
HETATM   11  C   UNL     1       5.127  27.212  51.873  1.00  0.00     0.119 A 
HETATM   12  N   UNL     1       4.472  28.282  51.321  1.00  0.00    -0.273 N 
HETATM   13  N   UNL     1       4.174  28.133  50.021  1.00  0.00    -0.179 NA
HETATM   14  H   UNL     1       4.209  29.141  51.795  1.00  0.00     0.189 HD
HETATM   15  C   UNL     1       4.643  26.918  49.720  1.00  0.00     0.057 A 
HETATM   16  C   UNL     1       5.241  26.298  50.844  1.00  0.00     0.065 A 
BRANCH  15  17
HETATM   17  C   UNL     1       4.496  26.373  48.338  1.00  0.00     0.061 C 
BRANCH  17  18
HETATM   18  C   UNL     1       3.311  25.416  48.183  1.00  0.00     0.002 C 
HETATM   19  C   UNL     1       2.593  25.563  46.849  1.00  0.00     0.005 C 
ENDBRANCH  17  18
ENDBRANCH  15  17
ENDBRANCH   8  11
ENDBRANCH   1   7
BRANCH   2  20
HETATM   20  O   UNL     1       6.287  24.704  55.514  1.00  0.00    -0.379 OA
BRANCH  20  21
HETATM   21  C   UNL     1       7.201  23.783  56.112  1.00  0.00     0.206 C 
BRANCH  21  22
HETATM   22  C   UNL     1       7.570  22.670  55.159  1.00  0.00    -0.035 A 
HETATM   23  C   UNL     1       7.834  21.364  55.596  1.00  0.00     0.009 A 
HETATM   24  C   UNL     1       8.128  20.352  54.679  1.00  0.00     0.001 A 
HETATM   25  C   UNL     1       8.154  20.631  53.314  1.00  0.00     0.000 A 
HETATM   26  C   UNL     1       7.884  21.922  52.863  1.00  0.00     0.001 A 
HETATM   27  C   UNL     1       7.592  22.934  53.780  1.00  0.00     0.009 A 
ENDBRANCH  21  22
ENDBRANCH  20  21
ENDBRANCH   2  20
TORSDOF 7
ENDMDL
MODEL 6
REMARK VINA RESULT:      -8.0      2.472      6.036
REMARK  7 active torsions:
REMARK  status: ('A' for Active; 'I' for Inactive)
REMARK    1  A    between atoms: C_2  and  C_3 
REMARK    2  A    between atoms: C_3  and  C_4 
REMARK    3  A    between atoms: C_8  and  C_9 
REMARK       I    between atoms: C_9  and  N_10 
REMARK    4  A    between atoms: N_10  and  C_11 
REMARK    5  A    between atoms: C_12  and  O_13 
REMARK    6  A    between atoms: O_13  and  C_14 
REMARK    7  A    between atoms: C_14  and  C_15 
ROOT
HETATM    1  C   UNL     1       6.968  24.034  54.188  1.00  0.00     0.113 C 
HETATM    2  C   UNL     1       7.848  24.063  55.465  1.00  0.00     0.144 C 
HETATM    3  C   UNL     1       8.384  22.659  55.771  1.00  0.00     0.034 C 
HETATM    4  C   UNL     1       9.151  22.070  54.592  1.00  0.00     0.003 C 
HETATM    5  C   UNL     1       8.320  22.082  53.315  1.00  0.00     0.002 C 
HETATM    6  C   UNL     1       7.776  23.474  53.007  1.00  0.00     0.028 C 
ENDROOT
BRANCH   1   7
HETATM    7  N   UNL     1       6.441  25.372  53.908  1.00  0.00    -0.349 N 
HETATM    8  C   UNL     1       5.233  25.560  53.275  1.00  0.00     0.270 C 
HETATM    9  O   UNL     1       4.592  24.643  52.770  1.00  0.00    -0.266 OA
HETATM   10  H   UNL     1       6.719  26.091  54.565  1.00  0.00     0.163 HD
BRANCH   8  11
HETATM   11  C   UNL     1       4.750  26.914  53.263  1.00  0.00     0.119 A 
HETATM   12  N   UNL     1       3.414  27.189  53.133  1.00  0.00    -0.273 N 
HETATM   13  N   UNL     1       3.118  28.498  53.146  1.00  0.00    -0.179 NA
HETATM   14  H   UNL     1       2.663  26.513  53.034  1.00  0.00     0.189 HD
HETATM   15  C   UNL     1       4.307  29.096  53.280  1.00  0.00     0.057 A 
HETATM   16  C   UNL     1       5.359  28.151  53.350  1.00  0.00     0.065 A 
BRANCH  15  17
HETATM   17  C   UNL     1       4.401  30.585  53.331  1.00  0.00     0.061 C 
BRANCH  17  18
HETATM   18  C   UNL     1       3.771  31.193  54.586  1.00  0.00     0.002 C 
HETATM   19  C   UNL     1       4.652  32.243  55.249  1.00  0.00     0.005 C 
ENDBRANCH  17  18
ENDBRANCH  15  17
ENDBRANCH   8  11
ENDBRANCH   1   7
BRANCH   2  20
HETATM   20  O   UNL     1       7.038  24.567  56.540  1.00  0.00    -0.379 OA
BRANCH  20  21
HETATM   21  C   UNL     1       7.704  25.531  57.358  1.00  0.00     0.206 C 
BRANCH  21  22
HETATM   22  C   UNL     1       7.015  26.874  57.306  1.00  0.00    -0.035 A 
HETATM   23  C   UNL     1       5.680  27.019  56.903  1.00  0.00     0.009 A 
HETATM   24  C   UNL     1       5.067  28.274  56.911  1.00  0.00     0.001 A 
HETATM   25  C   UNL     1       5.777  29.398  57.329  1.00  0.00     0.000 A 
HETATM   26  C   UNL     1       7.101  29.268  57.742  1.00  0.00     0.001 A 
HETATM   27  C   UNL     1       7.716  28.015  57.732  1.00  0.00     0.009 A 
ENDBRANCH  21  22
ENDBRANCH  20  21
ENDBRANCH   2  20
TORSDOF 7
ENDMDL
MODEL 7
REMARK VINA RESULT:      -7.9      2.516      5.436
REMARK  7 active torsions:
REMARK  status: ('A' for Active; 'I' for Inactive)
REMARK    1  A    between atoms: C_2  and  C_3 
REMARK    2  A    between atoms: C_3  and  C_4 
REMARK    3  A    between atoms: C_8  and  C_9 
REMARK       I    between atoms: C_9  and  N_10 
REMARK    4  A    between atoms: N_10  and  C_11 
REMARK    5  A    between atoms: C_12  and  O_13 
REMARK    6  A    between atoms: O_13  and  C_14 
REMARK    7  A    between atoms: C_14  and  C_15 
ROOT
HETATM    1  C   UNL     1       4.921  28.092  56.419  1.00  0.00     0.113 C 
HETATM    2  C   UNL     1       4.815  28.651  54.975  1.00  0.00     0.144 C 
HETATM    3  C   UNL     1       3.722  29.725  54.900  1.00  0.00     0.034 C 
HETATM    4  C   UNL     1       3.955  30.847  55.905  1.00  0.00     0.003 C 
HETATM    5  C   UNL     1       4.114  30.313  57.324  1.00  0.00     0.002 C 
HETATM    6  C   UNL     1       5.194  29.238  57.405  1.00  0.00     0.028 C 
ENDROOT
BRANCH   1   7
HETATM    7  N   UNL     1       5.951  27.053  56.483  1.00  0.00    -0.349 N 
HETATM    8  C   UNL     1       5.678  25.788  56.951  1.00  0.00     0.270 C 
HETATM    9  O   UNL     1       4.614  25.484  57.483  1.00  0.00    -0.266 OA
HETATM   10  H   UNL     1       6.680  27.124  55.784  1.00  0.00     0.163 HD
BRANCH   8  11
HETATM   11  C   UNL     1       6.725  24.822  56.755  1.00  0.00     0.119 A 
HETATM   12  N   UNL     1       7.834  24.805  57.560  1.00  0.00    -0.273 N 
HETATM   13  N   UNL     1       8.719  23.842  57.257  1.00  0.00    -0.179 NA
HETATM   14  H   UNL     1       8.030  25.432  58.334  1.00  0.00     0.189 HD
HETATM   15  C   UNL     1       8.169  23.216  56.211  1.00  0.00     0.057 A 
HETATM   16  C   UNL     1       6.928  23.796  55.853  1.00  0.00     0.065 A 
BRANCH  15  17
HETATM   17  C   UNL     1       8.868  22.065  55.568  1.00  0.00     0.061 C 
BRANCH  17  18
HETATM   18  C   UNL     1       7.924  20.935  55.149  1.00  0.00     0.002 C 
HETATM   19  C   UNL     1       8.018  20.595  53.668  1.00  0.00     0.005 C 
ENDBRANCH  17  18
ENDBRANCH  15  17
ENDBRANCH   8  11
ENDBRANCH   1   7
BRANCH   2  20
HETATM   20  O   UNL     1       4.532  27.546  54.101  1.00  0.00    -0.379 OA
BRANCH  20  21
HETATM   21  C   UNL     1       5.278  27.572  52.882  1.00  0.00     0.206 C 
BRANCH  21  22
HETATM   22  C   UNL     1       6.089  26.311  52.701  1.00  0.00    -0.035 A 
HETATM   23  C   UNL     1       7.490  26.322  52.636  1.00  0.00     0.009 A 
HETATM   24  C   UNL     1       8.206  25.128  52.512  1.00  0.00     0.001 A 
HETATM   25  C   UNL     1       7.532  23.910  52.460  1.00  0.00     0.000 A 
HETATM   26  C   UNL     1       6.141  23.882  52.534  1.00  0.00     0.001 A 
HETATM   27  C   UNL     1       5.425  25.074  52.655  1.00  0.00     0.009 A 
ENDBRANCH  21  22
ENDBRANCH  20  21
ENDBRANCH   2  20
TORSDOF 7
ENDMDL
MODEL 8
REMARK VINA RESULT:      -7.8      2.496      5.955
REMARK  7 active torsions:
REMARK  status: ('A' for Active; 'I' for Inactive)
REMARK    1  A    between atoms: C_2  and  C_3 
REMARK    2  A    between atoms: C_3  and  C_4 
REMARK    3  A    between atoms: C_8  and  C_9 
REMARK       I    between atoms: C_9  and  N_10 
REMARK    4  A    between atoms: N_10  and  C_11 
REMARK    5  A    between atoms: C_12  and  O_13 
REMARK    6  A    between atoms: O_13  and  C_14 
REMARK    7  A    between atoms: C_14  and  C_15 
ROOT
HETATM    1  C   UNL     1       7.245  22.859  54.018  1.00  0.00     0.113 C 
HETATM    2  C   UNL     1       8.047  22.558  55.312  1.00  0.00     0.144 C 
HETATM    3  C   UNL     1       8.206  21.043  55.497  1.00  0.00     0.034 C 
HETATM    4  C   UNL     1       8.856  20.385  54.285  1.00  0.00     0.003 C 
HETATM    5  C   UNL     1       8.112  20.713  52.996  1.00  0.00     0.002 C 
HETATM    6  C   UNL     1       7.943  22.218  52.808  1.00  0.00     0.028 C 
ENDROOT
BRANCH   1   7
HETATM    7  N   UNL     1       7.078  24.305  53.854  1.00  0.00    -0.349 N 
HETATM    8  C   UNL     1       5.947  24.846  53.284  1.00  0.00     0.270 C 
HETATM    9  O   UNL     1       5.080  24.167  52.741  1.00  0.00    -0.266 OA
HETATM   10  H   UNL     1       7.546  24.875  54.548  1.00  0.00     0.163 HD
BRANCH   8  11
HETATM   11  C   UNL     1       5.832  26.276  53.386  1.00  0.00     0.119 A 
HETATM   12  N   UNL     1       6.938  27.064  53.570  1.00  0.00    -0.273 N 
HETATM   13  N   UNL     1       6.671  28.378  53.639  1.00  0.00    -0.179 NA
HETATM   14  H   UNL     1       7.900  26.749  53.651  1.00  0.00     0.189 HD
HETATM   15  C   UNL     1       5.342  28.444  53.505  1.00  0.00     0.057 A 
HETATM   16  C   UNL     1       4.770  27.158  53.353  1.00  0.00     0.065 A 
BRANCH  15  17
HETATM   17  C   UNL     1       4.646  29.764  53.536  1.00  0.00     0.061 C 
BRANCH  17  18
HETATM   18  C   UNL     1       3.874  30.076  52.251  1.00  0.00     0.002 C 
HETATM   19  C   UNL     1       4.776  30.239  51.036  1.00  0.00     0.005 C 
ENDBRANCH  17  18
ENDBRANCH  15  17
ENDBRANCH   8  11
ENDBRANCH   1   7
BRANCH   2  20
HETATM   20  O   UNL     1       7.339  23.154  56.411  1.00  0.00    -0.379 OA
BRANCH  20  21
HETATM   21  C   UNL     1       8.075  24.180  57.080  1.00  0.00     0.206 C 
BRANCH  21  22
HETATM   22  C   UNL     1       7.300  25.475  57.134  1.00  0.00    -0.035 A 
HETATM   23  C   UNL     1       7.929  26.723  57.246  1.00  0.00     0.009 A 
HETATM   24  C   UNL     1       7.179  27.901  57.248  1.00  0.00     0.001 A 
HETATM   25  C   UNL     1       5.791  27.847  57.128  1.00  0.00     0.000 A 
HETATM   26  C   UNL     1       5.152  26.615  57.006  1.00  0.00     0.001 A 
HETATM   27  C   UNL     1       5.901  25.438  57.007  1.00  0.00     0.009 A 
ENDBRANCH  21  22
ENDBRANCH  20  21
ENDBRANCH   2  20
TORSDOF 7
ENDMDL
MODEL 9
REMARK VINA RESULT:      -7.7      2.669      6.351
REMARK  7 active torsions:
REMARK  status: ('A' for Active; 'I' for Inactive)
REMARK    1  A    between atoms: C_2  and  C_3 
REMARK    2  A    between atoms: C_3  and  C_4 
REMARK    3  A    between atoms: C_8  and  C_9 
REMARK       I    between atoms: C_9  and  N_10 
REMARK    4  A    between atoms: N_10  and  C_11 
REMARK    5  A    between atoms: C_12  and  O_13 
REMARK    6  A    between atoms: O_13  and  C_14 
REMARK    7  A    between atoms: C_14  and  C_15 
ROOT
HETATM    1  C   UNL     1       4.971  27.570  55.018  1.00  0.00     0.113 C 
HETATM    2  C   UNL     1       4.939  27.999  53.527  1.00  0.00     0.144 C 
HETATM    3  C   UNL     1       3.860  29.066  53.305  1.00  0.00     0.034 C 
HETATM    4  C   UNL     1       4.054  30.273  54.216  1.00  0.00     0.003 C 
HETATM    5  C   UNL     1       4.140  29.866  55.682  1.00  0.00     0.002 C 
HETATM    6  C   UNL     1       5.206  28.799  55.911  1.00  0.00     0.028 C 
ENDROOT
BRANCH   1   7
HETATM    7  N   UNL     1       5.989  26.537  55.225  1.00  0.00    -0.349 N 
HETATM    8  C   UNL     1       5.838  25.548  56.170  1.00  0.00     0.270 C 
HETATM    9  O   UNL     1       4.933  25.546  57.000  1.00  0.00    -0.266 OA
HETATM   10  H   UNL     1       6.528  26.293  54.403  1.00  0.00     0.163 HD
BRANCH   8  11
HETATM   11  C   UNL     1       6.809  24.489  56.110  1.00  0.00     0.119 A 
HETATM   12  N   UNL     1       7.559  24.153  57.207  1.00  0.00    -0.273 N 
HETATM   13  N   UNL     1       8.417  23.141  56.997  1.00  0.00    -0.179 NA
HETATM   14  H   UNL     1       7.519  24.585  58.125  1.00  0.00     0.189 HD
HETATM   15  C   UNL     1       8.223  22.815  55.715  1.00  0.00     0.057 A 
HETATM   16  C   UNL     1       7.235  23.633  55.114  1.00  0.00     0.065 A 
BRANCH  15  17
HETATM   17  C   UNL     1       9.012  21.713  55.089  1.00  0.00     0.061 C 
BRANCH  17  18
HETATM   18  C   UNL     1       8.144  20.575  54.546  1.00  0.00     0.002 C 
HETATM   19  C   UNL     1       8.056  20.562  53.027  1.00  0.00     0.005 C 
ENDBRANCH  17  18
ENDBRANCH  15  17
ENDBRANCH   8  11
ENDBRANCH   1   7
BRANCH   2  20
HETATM   20  O   UNL     1       4.690  26.822  52.742  1.00  0.00    -0.379 OA
BRANCH  20  21
HETATM   21  C   UNL     1       5.685  26.573  51.747  1.00  0.00     0.206 C 
BRANCH  21  22
HETATM   22  C   UNL     1       5.183  26.909  50.363  1.00  0.00    -0.035 A 
HETATM   23  C   UNL     1       4.479  25.988  49.575  1.00  0.00     0.009 A 
HETATM   24  C   UNL     1       3.992  26.353  48.317  1.00  0.00     0.001 A 
HETATM   25  C   UNL     1       4.195  27.644  47.836  1.00  0.00     0.000 A 
HETATM   26  C   UNL     1       4.884  28.574  48.611  1.00  0.00     0.001 A 
HETATM   27  C   UNL     1       5.373  28.210  49.867  1.00  0.00     0.009 A 
ENDBRANCH  21  22
ENDBRANCH  20  21
ENDBRANCH   2  20
TORSDOF 7
ENDMDL
MODEL 10
REMARK VINA RESULT:      -7.7      2.363      6.592
REMARK  7 active torsions:
REMARK  status: ('A' for Active; 'I' for Inactive)
REMARK    1  A    between atoms: C_2  and  C_3 
REMARK    2  A    between atoms: C_3  and  C_4 
REMARK    3  A    between atoms: C_8  and  C_9 
REMARK       I    between atoms: C_9  and  N_10 
REMARK    4  A    between atoms: N_10  and  C_11 
REMARK    5  A    between atoms: C_12  and  O_13 
REMARK    6  A    between atoms: O_13  and  C_14 
REMARK    7  A    between atoms: C_14  and  C_15 
ROOT
HETATM    1  C   UNL     1       6.937  23.846  53.285  1.00  0.00     0.113 C 
HETATM    2  C   UNL     1       7.191  24.206  54.773  1.00  0.00     0.144 C 
HETATM    3  C   UNL     1       7.344  22.931  55.610  1.00  0.00     0.034 C 
HETATM    4  C   UNL     1       8.445  22.023  55.072  1.00  0.00     0.003 C 
HETATM    5  C   UNL     1       8.241  21.699  53.597  1.00  0.00     0.002 C 
HETATM    6  C   UNL     1       8.080  22.964  52.758  1.00  0.00     0.028 C 
ENDROOT
BRANCH   1   7
HETATM    7  N   UNL     1       6.772  25.065  52.491  1.00  0.00    -0.349 N 
HETATM    8  C   UNL     1       5.571  25.393  51.904  1.00  0.00     0.270 C 
HETATM    9  O   UNL     1       4.611  24.629  51.872  1.00  0.00    -0.266 OA
HETATM   10  H   UNL     1       7.364  25.841  52.763  1.00  0.00     0.163 HD
BRANCH   8  11
HETATM   11  C   UNL     1       5.503  26.715  51.342  1.00  0.00     0.119 A 
HETATM   12  N   UNL     1       5.443  26.906  49.987  1.00  0.00    -0.273 N 
HETATM   13  N   UNL     1       5.377  28.195  49.615  1.00  0.00    -0.179 NA
HETATM   14  H   UNL     1       5.442  26.184  49.272  1.00  0.00     0.189 HD
HETATM   15  C   UNL     1       5.405  28.865  50.772  1.00  0.00     0.057 A 
HETATM   16  C   UNL     1       5.492  27.987  51.880  1.00  0.00     0.065 A 
BRANCH  15  17
HETATM   17  C   UNL     1       5.355  30.357  50.781  1.00  0.00     0.061 C 
BRANCH  17  18
HETATM   18  C   UNL     1       5.289  30.973  49.381  1.00  0.00     0.002 C 
HETATM   19  C   UNL     1       6.222  32.164  49.208  1.00  0.00     0.005 C 
ENDBRANCH  17  18
ENDBRANCH  15  17
ENDBRANCH   8  11
ENDBRANCH   1   7
BRANCH   2  20
HETATM   20  O   UNL     1       6.084  25.005  55.221  1.00  0.00    -0.379 OA
BRANCH  20  21
HETATM   21  C   UNL     1       6.263  25.554  56.528  1.00  0.00     0.206 C 
BRANCH  21  22
HETATM   22  C   UNL     1       6.972  26.887  56.479  1.00  0.00    -0.035 A 
HETATM   23  C   UNL     1       6.418  28.009  55.846  1.00  0.00     0.009 A 
HETATM   24  C   UNL     1       7.086  29.236  55.861  1.00  0.00     0.001 A 
HETATM   25  C   UNL     1       8.310  29.359  56.516  1.00  0.00     0.000 A 
HETATM   26  C   UNL     1       8.868  28.256  57.157  1.00  0.00     0.001 A 
HETATM   27  C   UNL     1       8.203  27.029  57.141  1.00  0.00     0.009 A 
ENDBRANCH  21  22
ENDBRANCH  20  21
ENDBRANCH   2  20
TORSDOF 7
ENDMDL
