MODEL 1
REMARK VINA RESULT:      -9.4      0.000      0.000
REMARK  3 active torsions:
REMARK  status: ('A' for Active; 'I' for Inactive)
REMARK    1  A    between atoms: C_4  and  N_5 
REMARK       I    between atoms: N_5  and  C_6 
REMARK    2  A    between atoms: C_6  and  C_8 
REMARK    3  A    between atoms: C_21  and  C_22 
ROOT
HETATM    1  F   UNL     1       3.968  29.881  50.420  1.00  0.00    -0.205 F 
HETATM    2  C   UNL     1       4.206  28.611  50.053  1.00  0.00     0.132 A 
HETATM    3  C   UNL     1       4.625  27.722  51.050  1.00  0.00     0.072 A 
HETATM    4  C   UNL     1       4.879  26.387  50.744  1.00  0.00     0.040 A 
HETATM    5  C   UNL     1       4.703  25.961  49.427  1.00  0.00     0.072 A 
HETATM    6  C   UNL     1       4.275  26.857  48.443  1.00  0.00     0.132 A 
HETATM    7  F   UNL     1       4.123  26.380  47.197  1.00  0.00    -0.205 F 
HETATM    8  C   UNL     1       4.021  28.201  48.730  1.00  0.00     0.054 A 
ENDROOT
BRANCH   4   9
HETATM    9  N   UNL     1       5.303  25.421  51.685  1.00  0.00    -0.327 N 
HETATM   10  C   UNL     1       6.542  25.340  52.304  1.00  0.00     0.228 C 
HETATM   11  O   UNL     1       7.485  26.101  52.114  1.00  0.00    -0.273 OA
HETATM   12  H   UNL     1       4.624  24.708  51.923  1.00  0.00     0.169 HD
BRANCH  10  13
HETATM   13  C   UNL     1       6.641  24.176  53.279  1.00  0.00     0.107 C 
HETATM   14  C   UNL     1       7.144  24.636  54.642  1.00  0.00     0.190 C 
HETATM   15  O   UNL     1       7.056  23.586  55.611  1.00  0.00    -0.350 OA
HETATM   16  C   UNL     1       7.609  22.400  55.204  1.00  0.00     0.075 A 
HETATM   17  C   UNL     1       7.863  21.462  56.203  1.00  0.00     0.037 A 
HETATM   18  C   UNL     1       7.884  22.098  53.864  1.00  0.00    -0.024 A 
HETATM   19  C   UNL     1       8.427  20.230  55.879  1.00  0.00     0.003 A 
HETATM   20  C   UNL     1       8.735  19.932  54.553  1.00  0.00     0.001 A 
HETATM   21  C   UNL     1       8.465  20.863  53.548  1.00  0.00     0.010 A 
HETATM   22  C   UNL     1       7.597  23.095  52.776  1.00  0.00     0.057 C 
ENDBRANCH  10  13
ENDBRANCH   4   9
BRANCH   8  23
HETATM   23  C   UNL     1       3.574  29.113  47.689  1.00  0.00     0.016 A 
HETATM   24  C   UNL     1       4.245  30.182  47.044  1.00  0.00     0.152 A 
HETATM   25  N   UNL     1       3.486  30.796  46.133  1.00  0.00    -0.187 NA
HETATM   26  N   UNL     1       2.323  30.130  46.192  1.00  0.00    -0.289 N 
HETATM   27  H   UNL     1       1.569  30.420  45.578  1.00  0.00     0.188 HD
HETATM   28  C   UNL     1       2.321  29.122  47.112  1.00  0.00     0.123 A 
ENDBRANCH   8  23
TORSDOF 3
ENDMDL
MODEL 2
REMARK VINA RESULT:      -9.4      6.350      9.747
REMARK  3 active torsions:
REMARK  status: ('A' for Active; 'I' for Inactive)
REMARK    1  A    between atoms: C_4  and  N_5 
REMARK       I    between atoms: N_5  and  C_6 
REMARK    2  A    between atoms: C_6  and  C_8 
REMARK    3  A    between atoms: C_21  and  C_22 
ROOT
HETATM    1  F   UNL     1       5.752  24.062  53.638  1.00  0.00    -0.205 F 
HETATM    2  C   UNL     1       6.596  24.308  54.654  1.00  0.00     0.132 A 
HETATM    3  C   UNL     1       6.392  25.483  55.387  1.00  0.00     0.072 A 
HETATM    4  C   UNL     1       7.222  25.798  56.461  1.00  0.00     0.040 A 
HETATM    5  C   UNL     1       8.253  24.914  56.786  1.00  0.00     0.072 A 
HETATM    6  C   UNL     1       8.439  23.740  56.051  1.00  0.00     0.132 A 
HETATM    7  F   UNL     1       9.447  22.933  56.419  1.00  0.00    -0.205 F 
HETATM    8  C   UNL     1       7.620  23.411  54.967  1.00  0.00     0.054 A 
ENDROOT
BRANCH   4   9
HETATM    9  N   UNL     1       7.091  26.958  57.255  1.00  0.00    -0.327 N 
HETATM   10  C   UNL     1       7.138  28.278  56.830  1.00  0.00     0.228 C 
HETATM   11  O   UNL     1       7.323  28.647  55.675  1.00  0.00    -0.273 OA
HETATM   12  H   UNL     1       6.953  26.801  58.247  1.00  0.00     0.169 HD
BRANCH  10  13
HETATM   13  C   UNL     1       6.939  29.273  57.963  1.00  0.00     0.107 C 
HETATM   14  C   UNL     1       6.456  30.620  57.439  1.00  0.00     0.190 C 
HETATM   15  O   UNL     1       6.085  31.494  58.511  1.00  0.00    -0.350 OA
HETATM   16  C   UNL     1       7.032  31.605  59.496  1.00  0.00     0.075 A 
HETATM   17  C   UNL     1       6.888  32.680  60.371  1.00  0.00     0.037 A 
HETATM   18  C   UNL     1       8.079  30.690  59.665  1.00  0.00    -0.024 A 
HETATM   19  C   UNL     1       7.808  32.872  61.401  1.00  0.00     0.003 A 
HETATM   20  C   UNL     1       8.872  31.986  61.557  1.00  0.00     0.001 A 
HETATM   21  C   UNL     1       9.008  30.898  60.692  1.00  0.00     0.010 A 
HETATM   22  C   UNL     1       8.234  29.517  58.738  1.00  0.00     0.057 C 
ENDBRANCH  10  13
ENDBRANCH   4   9
BRANCH   8  23
HETATM   23  C   UNL     1       7.832  22.182  54.220  1.00  0.00     0.016 A 
HETATM   24  C   UNL     1       7.879  20.832  54.650  1.00  0.00     0.152 A 
HETATM   25  N   UNL     1       8.105  19.976  53.650  1.00  0.00    -0.187 NA
HETATM   26  N   UNL     1       8.210  20.771  52.574  1.00  0.00    -0.289 N 
HETATM   27  H   UNL     1       8.386  20.341  51.672  1.00  0.00     0.188 HD
HETATM   28  C   UNL     1       8.064  22.097  52.862  1.00  0.00     0.123 A 
ENDBRANCH   8  23
TORSDOF 3
ENDMDL
MODEL 3
REMARK VINA RESULT:      -9.4      6.270      7.364
REMARK  3 active torsions:
REMARK  status: ('A' for Active; 'I' for Inactive)
REMARK    1  A    between atoms: C_4  and  N_5 
REMARK       I    between atoms: N_5  and  C_6 
REMARK    2  A    between atoms: C_6  and  C_8 
REMARK    3  A    between atoms: C_21  and  C_22 
ROOT
HETATM    1  F   UNL     1       7.979  30.938  58.391  1.00  0.00    -0.205 F 
HETATM    2  C   UNL     1       7.012  30.147  57.900  1.00  0.00     0.132 A 
HETATM    3  C   UNL     1       7.355  28.823  57.602  1.00  0.00     0.072 A 
HETATM    4  C   UNL     1       6.400  27.942  57.099  1.00  0.00     0.040 A 
HETATM    5  C   UNL     1       5.099  28.410  56.905  1.00  0.00     0.072 A 
HETATM    6  C   UNL     1       4.768  29.732  57.216  1.00  0.00     0.132 A 
HETATM    7  F   UNL     1       3.499  30.116  57.009  1.00  0.00    -0.205 F 
HETATM    8  C   UNL     1       5.714  30.632  57.715  1.00  0.00     0.054 A 
ENDROOT
BRANCH   4   9
HETATM    9  N   UNL     1       6.656  26.591  56.772  1.00  0.00    -0.327 N 
HETATM   10  C   UNL     1       7.154  26.097  55.575  1.00  0.00     0.228 C 
HETATM   11  O   UNL     1       7.439  26.770  54.590  1.00  0.00    -0.273 OA
HETATM   12  H   UNL     1       6.444  25.914  57.495  1.00  0.00     0.169 HD
BRANCH  10  13
HETATM   13  C   UNL     1       7.322  24.585  55.583  1.00  0.00     0.107 C 
HETATM   14  C   UNL     1       8.504  24.163  56.447  1.00  0.00     0.190 C 
HETATM   15  O   UNL     1       8.548  22.742  56.613  1.00  0.00    -0.350 OA
HETATM   16  C   UNL     1       8.460  22.039  55.439  1.00  0.00     0.075 A 
HETATM   17  C   UNL     1       8.838  20.699  55.493  1.00  0.00     0.037 A 
HETATM   18  C   UNL     1       7.987  22.594  54.243  1.00  0.00    -0.024 A 
HETATM   19  C   UNL     1       8.783  19.909  54.345  1.00  0.00     0.003 A 
HETATM   20  C   UNL     1       8.345  20.461  53.142  1.00  0.00     0.001 A 
HETATM   21  C   UNL     1       7.949  21.798  53.090  1.00  0.00     0.010 A 
HETATM   22  C   UNL     1       7.559  24.033  54.177  1.00  0.00     0.057 C 
ENDBRANCH  10  13
ENDBRANCH   4   9
BRANCH   8  23
HETATM   23  C   UNL     1       5.344  32.001  58.033  1.00  0.00     0.016 A 
HETATM   24  C   UNL     1       5.120  33.119  57.192  1.00  0.00     0.152 A 
HETATM   25  N   UNL     1       4.800  34.224  57.871  1.00  0.00    -0.187 NA
HETATM   26  N   UNL     1       4.822  33.823  59.151  1.00  0.00    -0.289 N 
HETATM   27  H   UNL     1       4.605  34.503  59.873  1.00  0.00     0.188 HD
HETATM   28  C   UNL     1       5.151  32.507  59.302  1.00  0.00     0.123 A 
ENDBRANCH   8  23
TORSDOF 3
ENDMDL
MODEL 4
REMARK VINA RESULT:      -9.4      6.207      8.025
REMARK  3 active torsions:
REMARK  status: ('A' for Active; 'I' for Inactive)
REMARK    1  A    between atoms: C_4  and  N_5 
REMARK       I    between atoms: N_5  and  C_6 
REMARK    2  A    between atoms: C_6  and  C_8 
REMARK    3  A    between atoms: C_21  and  C_22 
ROOT
HETATM    1  F   UNL     1       8.288  31.572  58.617  1.00  0.00    -0.205 F 
HETATM    2  C   UNL     1       7.384  30.721  58.104  1.00  0.00     0.132 A 
HETATM    3  C   UNL     1       7.869  29.548  57.516  1.00  0.00     0.072 A 
HETATM    4  C   UNL     1       6.988  28.614  56.973  1.00  0.00     0.040 A 
HETATM    5  C   UNL     1       5.619  28.878  57.033  1.00  0.00     0.072 A 
HETATM    6  C   UNL     1       5.148  30.050  57.633  1.00  0.00     0.132 A 
HETATM    7  F   UNL     1       3.820  30.240  57.660  1.00  0.00    -0.205 F 
HETATM    8  C   UNL     1       6.017  31.000  58.177  1.00  0.00     0.054 A 
ENDROOT
BRANCH   4   9
HETATM    9  N   UNL     1       7.387  27.404  56.362  1.00  0.00    -0.327 N 
HETATM   10  C   UNL     1       7.734  26.219  56.994  1.00  0.00     0.228 C 
HETATM   11  O   UNL     1       7.765  26.041  58.207  1.00  0.00    -0.273 OA
HETATM   12  H   UNL     1       7.427  27.413  55.349  1.00  0.00     0.169 HD
BRANCH  10  13
HETATM   13  C   UNL     1       8.093  25.110  56.015  1.00  0.00     0.107 C 
HETATM   14  C   UNL     1       7.387  25.300  54.679  1.00  0.00     0.190 C 
HETATM   15  O   UNL     1       7.867  24.374  53.699  1.00  0.00    -0.350 OA
HETATM   16  C   UNL     1       7.882  23.070  54.121  1.00  0.00     0.075 A 
HETATM   17  C   UNL     1       8.005  22.101  53.127  1.00  0.00     0.037 A 
HETATM   18  C   UNL     1       7.815  22.696  55.469  1.00  0.00    -0.024 A 
HETATM   19  C   UNL     1       8.024  20.749  53.466  1.00  0.00     0.003 A 
HETATM   20  C   UNL     1       7.926  20.365  54.802  1.00  0.00     0.001 A 
HETATM   21  C   UNL     1       7.821  21.335  55.801  1.00  0.00     0.010 A 
HETATM   22  C   UNL     1       7.702  23.733  56.552  1.00  0.00     0.057 C 
ENDBRANCH  10  13
ENDBRANCH   4   9
BRANCH   8  23
HETATM   23  C   UNL     1       5.503  32.211  58.796  1.00  0.00     0.016 A 
HETATM   24  C   UNL     1       4.921  33.369  58.224  1.00  0.00     0.152 A 
HETATM   25  N   UNL     1       4.576  34.282  59.136  1.00  0.00    -0.187 NA
HETATM   26  N   UNL     1       4.939  33.717  60.298  1.00  0.00    -0.289 N 
HETATM   27  H   UNL     1       4.773  34.232  61.156  1.00  0.00     0.188 HD
HETATM   28  C   UNL     1       5.505  32.485  60.148  1.00  0.00     0.123 A 
ENDBRANCH   8  23
TORSDOF 3
ENDMDL
MODEL 5
REMARK VINA RESULT:      -9.2      7.724     10.339
REMARK  3 active torsions:
REMARK  status: ('A' for Active; 'I' for Inactive)
REMARK    1  A    between atoms: C_4  and  N_5 
REMARK       I    between atoms: N_5  and  C_6 
REMARK    2  A    between atoms: C_6  and  C_8 
REMARK    3  A    between atoms: C_21  and  C_22 
ROOT
HETATM    1  F   UNL     1       7.722  28.287  53.799  1.00  0.00    -0.205 F 
HETATM    2  C   UNL     1       7.627  27.914  55.086  1.00  0.00     0.132 A 
HETATM    3  C   UNL     1       7.840  28.900  56.056  1.00  0.00     0.072 A 
HETATM    4  C   UNL     1       7.748  28.588  57.412  1.00  0.00     0.040 A 
HETATM    5  C   UNL     1       7.435  27.276  57.772  1.00  0.00     0.072 A 
HETATM    6  C   UNL     1       7.215  26.304  56.791  1.00  0.00     0.132 A 
HETATM    7  F   UNL     1       6.915  25.064  57.208  1.00  0.00    -0.205 F 
HETATM    8  C   UNL     1       7.310  26.597  55.428  1.00  0.00     0.054 A 
ENDROOT
BRANCH   4   9
HETATM    9  N   UNL     1       7.946  29.516  58.458  1.00  0.00    -0.327 N 
HETATM   10  C   UNL     1       8.969  30.446  58.573  1.00  0.00     0.228 C 
HETATM   11  O   UNL     1       9.888  30.596  57.775  1.00  0.00    -0.273 OA
HETATM   12  H   UNL     1       7.263  29.489  59.207  1.00  0.00     0.169 HD
BRANCH  10  13
HETATM   13  C   UNL     1       8.855  31.298  59.828  1.00  0.00     0.107 C 
HETATM   14  C   UNL     1       9.110  30.474  61.084  1.00  0.00     0.190 C 
HETATM   15  O   UNL     1       9.193  31.305  62.246  1.00  0.00    -0.350 OA
HETATM   16  C   UNL     1       8.150  32.184  62.381  1.00  0.00     0.075 A 
HETATM   17  C   UNL     1       7.992  32.765  63.638  1.00  0.00     0.037 A 
HETATM   18  C   UNL     1       7.293  32.530  61.328  1.00  0.00    -0.024 A 
HETATM   19  C   UNL     1       6.954  33.668  63.866  1.00  0.00     0.003 A 
HETATM   20  C   UNL     1       6.077  33.994  62.833  1.00  0.00     0.001 A 
HETATM   21  C   UNL     1       6.244  33.427  61.569  1.00  0.00     0.010 A 
HETATM   22  C   UNL     1       7.466  31.925  59.963  1.00  0.00     0.057 C 
ENDBRANCH  10  13
ENDBRANCH   4   9
BRANCH   8  23
HETATM   23  C   UNL     1       7.074  25.569  54.428  1.00  0.00     0.016 A 
HETATM   24  C   UNL     1       7.937  24.579  53.896  1.00  0.00     0.152 A 
HETATM   25  N   UNL     1       7.344  23.814  52.975  1.00  0.00    -0.187 NA
HETATM   26  N   UNL     1       6.100  24.312  52.906  1.00  0.00    -0.289 N 
HETATM   27  H   UNL     1       5.446  23.885  52.260  1.00  0.00     0.188 HD
HETATM   28  C   UNL     1       5.892  25.367  53.747  1.00  0.00     0.123 A 
ENDBRANCH   8  23
TORSDOF 3
ENDMDL
MODEL 6
REMARK VINA RESULT:      -9.0      8.339     10.543
REMARK  3 active torsions:
REMARK  status: ('A' for Active; 'I' for Inactive)
REMARK    1  A    between atoms: C_4  and  N_5 
REMARK       I    between atoms: N_5  and  C_6 
REMARK    2  A    between atoms: C_6  and  C_8 
REMARK    3  A    between atoms: C_21  and  C_22 
ROOT
HETATM    1  F   UNL     1       8.031  27.345  55.070  1.00  0.00    -0.205 F 
HETATM    2  C   UNL     1       7.074  27.936  55.804  1.00  0.00     0.132 A 
HETATM    3  C   UNL     1       7.489  28.776  56.843  1.00  0.00     0.072 A 
HETATM    4  C   UNL     1       6.551  29.430  57.639  1.00  0.00     0.040 A 
HETATM    5  C   UNL     1       5.195  29.229  57.371  1.00  0.00     0.072 A 
HETATM    6  C   UNL     1       4.796  28.395  56.324  1.00  0.00     0.132 A 
HETATM    7  F   UNL     1       3.477  28.249  56.119  1.00  0.00    -0.205 F 
HETATM    8  C   UNL     1       5.722  27.725  55.519  1.00  0.00     0.054 A 
ENDROOT
BRANCH   4   9
HETATM    9  N   UNL     1       6.877  30.296  58.707  1.00  0.00    -0.327 N 
HETATM   10  C   UNL     1       6.738  31.675  58.742  1.00  0.00     0.228 C 
HETATM   11  O   UNL     1       6.317  32.373  57.825  1.00  0.00    -0.273 OA
HETATM   12  H   UNL     1       7.262  29.852  59.533  1.00  0.00     0.169 HD
BRANCH  10  13
HETATM   13  C   UNL     1       7.175  32.280  60.069  1.00  0.00     0.107 C 
HETATM   14  C   UNL     1       7.828  31.236  60.966  1.00  0.00     0.190 C 
HETATM   15  O   UNL     1       8.410  31.837  62.127  1.00  0.00    -0.350 OA
HETATM   16  C   UNL     1       7.565  32.678  62.805  1.00  0.00     0.075 A 
HETATM   17  C   UNL     1       7.941  33.015  64.104  1.00  0.00     0.037 A 
HETATM   18  C   UNL     1       6.399  33.215  62.243  1.00  0.00    -0.024 A 
HETATM   19  C   UNL     1       7.139  33.862  64.867  1.00  0.00     0.003 A 
HETATM   20  C   UNL     1       5.960  34.376  64.329  1.00  0.00     0.001 A 
HETATM   21  C   UNL     1       5.591  34.053  63.022  1.00  0.00     0.010 A 
HETATM   22  C   UNL     1       5.993  32.873  60.837  1.00  0.00     0.057 C 
ENDBRANCH  10  13
ENDBRANCH   4   9
BRANCH   8  23
HETATM   23  C   UNL     1       5.281  26.865  54.434  1.00  0.00     0.016 A 
HETATM   24  C   UNL     1       5.337  25.456  54.288  1.00  0.00     0.152 A 
HETATM   25  N   UNL     1       4.829  25.034  53.127  1.00  0.00    -0.187 NA
HETATM   26  N   UNL     1       4.449  26.169  52.520  1.00  0.00    -0.289 N 
HETATM   27  H   UNL     1       4.024  26.104  51.601  1.00  0.00     0.188 HD
HETATM   28  C   UNL     1       4.706  27.289  53.254  1.00  0.00     0.123 A 
ENDBRANCH   8  23
TORSDOF 3
ENDMDL
MODEL 7
REMARK VINA RESULT:      -8.9      5.446      6.948
REMARK  3 active torsions:
REMARK  status: ('A' for Active; 'I' for Inactive)
REMARK    1  A    between atoms: C_4  and  N_5 
REMARK       I    between atoms: N_5  and  C_6 
REMARK    2  A    between atoms: C_6  and  C_8 
REMARK    3  A    between atoms: C_21  and  C_22 
ROOT
HETATM    1  F   UNL     1       3.412  30.039  55.500  1.00  0.00    -0.205 F 
HETATM    2  C   UNL     1       4.525  29.517  56.042  1.00  0.00     0.132 A 
HETATM    3  C   UNL     1       4.990  28.307  55.514  1.00  0.00     0.072 A 
HETATM    4  C   UNL     1       6.145  27.713  56.021  1.00  0.00     0.040 A 
HETATM    5  C   UNL     1       6.822  28.355  57.059  1.00  0.00     0.072 A 
HETATM    6  C   UNL     1       6.351  29.568  57.570  1.00  0.00     0.132 A 
HETATM    7  F   UNL     1       7.053  30.132  58.566  1.00  0.00    -0.205 F 
HETATM    8  C   UNL     1       5.192  30.175  57.079  1.00  0.00     0.054 A 
ENDROOT
BRANCH   4   9
HETATM    9  N   UNL     1       6.687  26.497  55.549  1.00  0.00    -0.327 N 
HETATM   10  C   UNL     1       7.224  26.247  54.295  1.00  0.00     0.228 C 
HETATM   11  O   UNL     1       7.297  27.057  53.377  1.00  0.00    -0.273 OA
HETATM   12  H   UNL     1       6.672  25.724  56.205  1.00  0.00     0.169 HD
BRANCH  10  13
HETATM   13  C   UNL     1       7.734  24.821  54.143  1.00  0.00     0.107 C 
HETATM   14  C   UNL     1       6.809  23.992  53.261  1.00  0.00     0.190 C 
HETATM   15  O   UNL     1       7.381  22.715  52.960  1.00  0.00    -0.350 OA
HETATM   16  C   UNL     1       7.833  22.032  54.059  1.00  0.00     0.075 A 
HETATM   17  C   UNL     1       8.076  20.671  53.882  1.00  0.00     0.037 A 
HETATM   18  C   UNL     1       8.081  22.640  55.296  1.00  0.00    -0.024 A 
HETATM   19  C   UNL     1       8.535  19.898  54.947  1.00  0.00     0.003 A 
HETATM   20  C   UNL     1       8.754  20.487  56.191  1.00  0.00     0.001 A 
HETATM   21  C   UNL     1       8.528  21.854  56.366  1.00  0.00     0.010 A 
HETATM   22  C   UNL     1       7.840  24.111  55.493  1.00  0.00     0.057 C 
ENDBRANCH  10  13
ENDBRANCH   4   9
BRANCH   8  23
HETATM   23  C   UNL     1       4.724  31.438  57.626  1.00  0.00     0.016 A 
HETATM   24  C   UNL     1       5.032  32.774  57.267  1.00  0.00     0.152 A 
HETATM   25  N   UNL     1       4.396  33.674  58.021  1.00  0.00    -0.187 NA
HETATM   26  N   UNL     1       3.681  32.922  58.872  1.00  0.00    -0.289 N 
HETATM   27  H   UNL     1       3.101  33.391  59.559  1.00  0.00     0.188 HD
HETATM   28  C   UNL     1       3.849  31.581  58.683  1.00  0.00     0.123 A 
ENDBRANCH   8  23
TORSDOF 3
ENDMDL
MODEL 8
REMARK VINA RESULT:      -8.8      3.412      9.451
REMARK  3 active torsions:
REMARK  status: ('A' for Active; 'I' for Inactive)
REMARK    1  A    between atoms: C_4  and  N_5 
REMARK       I    between atoms: N_5  and  C_6 
REMARK    2  A    between atoms: C_6  and  C_8 
REMARK    3  A    between atoms: C_21  and  C_22 
ROOT
HETATM    1  F   UNL     1       8.448  23.463  52.622  1.00  0.00    -0.205 F 
HETATM    2  C   UNL     1       7.365  24.188  52.947  1.00  0.00     0.132 A 
HETATM    3  C   UNL     1       6.748  24.915  51.922  1.00  0.00     0.072 A 
HETATM    4  C   UNL     1       5.614  25.682  52.183  1.00  0.00     0.040 A 
HETATM    5  C   UNL     1       5.111  25.702  53.486  1.00  0.00     0.072 A 
HETATM    6  C   UNL     1       5.731  24.963  54.497  1.00  0.00     0.132 A 
HETATM    7  F   UNL     1       5.194  25.025  55.726  1.00  0.00    -0.205 F 
HETATM    8  C   UNL     1       6.873  24.194  54.255  1.00  0.00     0.054 A 
ENDROOT
BRANCH   4   9
HETATM    9  N   UNL     1       4.927  26.444  51.213  1.00  0.00    -0.327 N 
HETATM   10  C   UNL     1       5.110  27.787  50.916  1.00  0.00     0.228 C 
HETATM   11  O   UNL     1       5.902  28.538  51.475  1.00  0.00    -0.273 OA
HETATM   12  H   UNL     1       4.218  25.950  50.683  1.00  0.00     0.169 HD
BRANCH  10  13
HETATM   13  C   UNL     1       4.204  28.274  49.794  1.00  0.00     0.107 C 
HETATM   14  C   UNL     1       3.207  29.311  50.297  1.00  0.00     0.190 C 
HETATM   15  O   UNL     1       2.487  29.909  49.215  1.00  0.00    -0.350 OA
HETATM   16  C   UNL     1       1.933  29.006  48.344  1.00  0.00     0.075 A 
HETATM   17  C   UNL     1       0.951  29.498  47.487  1.00  0.00     0.037 A 
HETATM   18  C   UNL     1       2.332  27.665  48.268  1.00  0.00    -0.024 A 
HETATM   19  C   UNL     1       0.331  28.649  46.571  1.00  0.00     0.003 A 
HETATM   20  C   UNL     1       0.698  27.305  46.510  1.00  0.00     0.001 A 
HETATM   21  C   UNL     1       1.695  26.814  47.356  1.00  0.00     0.010 A 
HETATM   22  C   UNL     1       3.403  27.128  49.175  1.00  0.00     0.057 C 
ENDBRANCH  10  13
ENDBRANCH   4   9
BRANCH   8  23
HETATM   23  C   UNL     1       7.499  23.433  55.324  1.00  0.00     0.016 A 
HETATM   24  C   UNL     1       8.126  23.860  56.521  1.00  0.00     0.152 A 
HETATM   25  N   UNL     1       8.592  22.846  57.253  1.00  0.00    -0.187 NA
HETATM   26  N   UNL     1       8.272  21.763  56.528  1.00  0.00    -0.289 N 
HETATM   27  H   UNL     1       8.529  20.849  56.888  1.00  0.00     0.188 HD
HETATM   28  C   UNL     1       7.627  22.061  55.363  1.00  0.00     0.123 A 
ENDBRANCH   8  23
TORSDOF 3
ENDMDL
MODEL 9
REMARK VINA RESULT:      -8.6      6.967     10.171
REMARK  3 active torsions:
REMARK  status: ('A' for Active; 'I' for Inactive)
REMARK    1  A    between atoms: C_4  and  N_5 
REMARK       I    between atoms: N_5  and  C_6 
REMARK    2  A    between atoms: C_6  and  C_8 
REMARK    3  A    between atoms: C_21  and  C_22 
ROOT
HETATM    1  F   UNL     1       8.902  23.787  57.315  1.00  0.00    -0.205 F 
HETATM    2  C   UNL     1       8.349  24.882  56.768  1.00  0.00     0.132 A 
HETATM    3  C   UNL     1       8.352  26.053  57.535  1.00  0.00     0.072 A 
HETATM    4  C   UNL     1       7.805  27.230  57.028  1.00  0.00     0.040 A 
HETATM    5  C   UNL     1       7.262  27.211  55.742  1.00  0.00     0.072 A 
HETATM    6  C   UNL     1       7.275  26.037  54.984  1.00  0.00     0.132 A 
HETATM    7  F   UNL     1       6.739  26.090  53.754  1.00  0.00    -0.205 F 
HETATM    8  C   UNL     1       7.813  24.846  55.478  1.00  0.00     0.054 A 
ENDROOT
BRANCH   4   9
HETATM    9  N   UNL     1       7.765  28.456  57.729  1.00  0.00    -0.327 N 
HETATM   10  C   UNL     1       8.765  29.415  57.802  1.00  0.00     0.228 C 
HETATM   11  O   UNL     1       9.868  29.335  57.272  1.00  0.00    -0.273 OA
HETATM   12  H   UNL     1       6.909  28.646  58.238  1.00  0.00     0.169 HD
BRANCH  10  13
HETATM   13  C   UNL     1       8.365  30.624  58.635  1.00  0.00     0.107 C 
HETATM   14  C   UNL     1       8.669  30.405  60.112  1.00  0.00     0.190 C 
HETATM   15  O   UNL     1       8.475  31.604  60.868  1.00  0.00    -0.350 OA
HETATM   16  C   UNL     1       7.266  32.214  60.650  1.00  0.00     0.075 A 
HETATM   17  C   UNL     1       6.879  33.169  61.588  1.00  0.00     0.037 A 
HETATM   18  C   UNL     1       6.456  31.942  59.540  1.00  0.00    -0.024 A 
HETATM   19  C   UNL     1       5.662  33.835  61.447  1.00  0.00     0.003 A 
HETATM   20  C   UNL     1       4.834  33.549  60.364  1.00  0.00     0.001 A 
HETATM   21  C   UNL     1       5.228  32.606  59.413  1.00  0.00     0.010 A 
HETATM   22  C   UNL     1       6.872  30.928  58.512  1.00  0.00     0.057 C 
ENDBRANCH  10  13
ENDBRANCH   4   9
BRANCH   8  23
HETATM   23  C   UNL     1       7.817  23.638  54.669  1.00  0.00     0.016 A 
HETATM   24  C   UNL     1       8.114  23.443  53.297  1.00  0.00     0.152 A 
HETATM   25  N   UNL     1       7.997  22.168  52.917  1.00  0.00    -0.187 NA
HETATM   26  N   UNL     1       7.620  21.539  54.040  1.00  0.00    -0.289 N 
HETATM   27  H   UNL     1       7.465  20.537  54.002  1.00  0.00     0.188 HD
HETATM   28  C   UNL     1       7.489  22.373  55.112  1.00  0.00     0.123 A 
ENDBRANCH   8  23
TORSDOF 3
ENDMDL
MODEL 10
REMARK VINA RESULT:      -8.6      7.182      9.085
REMARK  3 active torsions:
REMARK  status: ('A' for Active; 'I' for Inactive)
REMARK    1  A    between atoms: C_4  and  N_5 
REMARK       I    between atoms: N_5  and  C_6 
REMARK    2  A    between atoms: C_6  and  C_8 
REMARK    3  A    between atoms: C_21  and  C_22 
ROOT
HETATM    1  F   UNL     1       7.763  32.462  59.990  1.00  0.00    -0.205 F 
HETATM    2  C   UNL     1       6.903  31.793  59.204  1.00  0.00     0.132 A 
HETATM    3  C   UNL     1       7.428  30.777  58.397  1.00  0.00     0.072 A 
HETATM    4  C   UNL     1       6.593  30.034  57.565  1.00  0.00     0.040 A 
HETATM    5  C   UNL     1       5.228  30.325  57.561  1.00  0.00     0.072 A 
HETATM    6  C   UNL     1       4.716  31.336  58.380  1.00  0.00     0.132 A 
HETATM    7  F   UNL     1       3.394  31.562  58.329  1.00  0.00    -0.205 F 
HETATM    8  C   UNL     1       5.539  32.096  59.216  1.00  0.00     0.054 A 
ENDROOT
BRANCH   4   9
HETATM    9  N   UNL     1       7.034  28.992  56.719  1.00  0.00    -0.327 N 
HETATM   10  C   UNL     1       7.517  27.748  57.100  1.00  0.00     0.228 C 
HETATM   11  O   UNL     1       7.653  27.360  58.255  1.00  0.00    -0.273 OA
HETATM   12  H   UNL     1       6.997  29.185  55.725  1.00  0.00     0.169 HD
BRANCH  10  13
HETATM   13  C   UNL     1       7.884  26.868  55.914  1.00  0.00     0.107 C 
HETATM   14  C   UNL     1       7.093  27.255  54.671  1.00  0.00     0.190 C 
HETATM   15  O   UNL     1       7.570  26.562  53.513  1.00  0.00    -0.350 OA
HETATM   16  C   UNL     1       7.683  25.206  53.679  1.00  0.00     0.075 A 
HETATM   17  C   UNL     1       7.805  24.450  52.515  1.00  0.00     0.037 A 
HETATM   18  C   UNL     1       7.714  24.584  54.934  1.00  0.00    -0.024 A 
HETATM   19  C   UNL     1       7.921  23.062  52.591  1.00  0.00     0.003 A 
HETATM   20  C   UNL     1       7.920  22.431  53.833  1.00  0.00     0.001 A 
HETATM   21  C   UNL     1       7.816  23.188  55.001  1.00  0.00     0.010 A 
HETATM   22  C   UNL     1       7.603  25.391  56.197  1.00  0.00     0.057 C 
ENDBRANCH  10  13
ENDBRANCH   4   9
BRANCH   8  23
HETATM   23  C   UNL     1       4.982  33.140  60.060  1.00  0.00     0.016 A 
HETATM   24  C   UNL     1       4.377  34.377  59.725  1.00  0.00     0.152 A 
HETATM   25  N   UNL     1       3.993  35.074  60.798  1.00  0.00    -0.187 NA
HETATM   26  N   UNL     1       4.354  34.292  61.826  1.00  0.00    -0.289 N 
HETATM   27  H   UNL     1       4.161  34.615  62.768  1.00  0.00     0.188 HD
HETATM   28  C   UNL     1       4.957  33.130  61.439  1.00  0.00     0.123 A 
ENDBRANCH   8  23
TORSDOF 3
ENDMDL
