MODEL 1
REMARK VINA RESULT:     -11.1      0.000      0.000
REMARK  7 active torsions:
REMARK  status: ('A' for Active; 'I' for Inactive)
REMARK    1  A    between atoms: C_2  and  N_3 
REMARK    2  A    between atoms: C_2  and  C_25 
REMARK       I    between atoms: N_3  and  C_4 
REMARK    3  A    between atoms: C_4  and  C_5 
REMARK    4  A    between atoms: C_8  and  C_9 
REMARK       I    between atoms: C_9  and  N_10 
REMARK    5  A    between atoms: N_10  and  C_11 
REMARK    6  A    between atoms: N_19  and  C_20 
REMARK    7  A    between atoms: C_33  and  O_34 
ROOT
HETATM    1  C   UNL     1       7.224  29.672  58.038  1.00  0.00     0.098 A 
HETATM    2  C   UNL     1       7.101  28.251  57.586  1.00  0.00     0.206 A 
HETATM    3  O   UNL     1       7.961  27.418  57.882  1.00  0.00    -0.286 OA
HETATM    4  C   UNL     1       5.906  27.857  56.782  1.00  0.00     0.098 A 
HETATM    5  C   UNL     1       5.064  28.843  56.427  1.00  0.00     0.112 A 
HETATM    6  N   UNL     1       5.245  30.169  56.768  1.00  0.00    -0.360 N 
HETATM    7  C   UNL     1       6.282  30.527  57.605  1.00  0.00     0.112 A 
ENDROOT
BRANCH   1   8
HETATM    8  C   UNL     1       8.302  30.181  58.932  1.00  0.00     0.257 C 
HETATM    9  N   UNL     1       7.880  30.625  60.155  1.00  0.00    -0.348 N 
HETATM   10  H   UNL     1       6.883  30.592  60.366  1.00  0.00     0.163 HD
HETATM   11  O   UNL     1       9.479  30.200  58.581  1.00  0.00    -0.267 OA
BRANCH   9  12
HETATM   12  C   UNL     1       8.762  31.188  61.161  1.00  0.00     0.114 C 
HETATM   13  C   UNL     1       9.411  30.097  62.017  1.00  0.00     0.037 C 
BRANCH  12  14
HETATM   14  C   UNL     1       7.979  32.185  61.998  1.00  0.00    -0.035 A 
HETATM   15  C   UNL     1       6.924  32.912  61.422  1.00  0.00     0.021 A 
HETATM   16  C   UNL     1       6.143  33.797  62.187  1.00  0.00    -0.025 A 
HETATM   17  C   UNL     1       6.421  33.958  63.560  1.00  0.00    -0.023 A 
HETATM   18  C   UNL     1       5.084  34.522  61.618  1.00  0.00     0.015 A 
HETATM   19  C   UNL     1       7.475  33.234  64.135  1.00  0.00     0.013 A 
HETATM   20  C   UNL     1       5.632  34.833  64.324  1.00  0.00     0.049 A 
HETATM   21  C   UNL     1       8.243  32.358  63.366  1.00  0.00     0.010 A 
HETATM   22  C   UNL     1       4.576  35.546  63.751  1.00  0.00     0.069 A 
HETATM   23  C   UNL     1       4.306  35.390  62.393  1.00  0.00     0.037 A 
BRANCH  22  24
HETATM   24  O   UNL     1       3.893  36.354  64.619  1.00  0.00    -0.356 OA
HETATM   25  C   UNL     1       3.753  35.887  65.954  1.00  0.00     0.210 C 
ENDBRANCH  22  24
ENDBRANCH  12  14
ENDBRANCH   9  12
ENDBRANCH   1   8
BRANCH   4  26
HETATM   26  C   UNL     1       5.584  26.459  56.379  1.00  0.00     0.257 C 
HETATM   27  N   UNL     1       6.000  26.109  55.119  1.00  0.00    -0.352 N 
HETATM   28  H   UNL     1       6.362  26.846  54.515  1.00  0.00     0.163 HD
HETATM   29  O   UNL     1       5.007  25.686  57.137  1.00  0.00    -0.267 OA
BRANCH  27  30
HETATM   30  C   UNL     1       5.722  24.811  54.517  1.00  0.00     0.084 C 
HETATM   31  C   UNL     1       5.507  24.939  53.003  1.00  0.00     0.025 C 
HETATM   32  C   UNL     1       6.802  25.246  52.252  1.00  0.00     0.002 C 
HETATM   33  C   UNL     1       7.893  24.228  52.571  1.00  0.00     0.000 C 
HETATM   34  C   UNL     1       8.140  24.115  54.072  1.00  0.00     0.002 C 
HETATM   35  C   UNL     1       6.850  23.819  54.836  1.00  0.00     0.025 C 
ENDBRANCH  27  30
ENDBRANCH   4  26
BRANCH   6  36
HETATM   36  C   UNL     1       4.181  31.138  56.473  1.00  0.00     0.089 A 
HETATM   37  C   UNL     1       4.242  32.059  55.282  1.00  0.00     0.028 A 
HETATM   38  C   UNL     1       3.244  30.942  55.309  1.00  0.00     0.028 A 
ENDBRANCH   6  36
TORSDOF 7
ENDMDL
MODEL 2
REMARK VINA RESULT:     -10.4      1.228      2.005
REMARK  7 active torsions:
REMARK  status: ('A' for Active; 'I' for Inactive)
REMARK    1  A    between atoms: C_2  and  N_3 
REMARK    2  A    between atoms: C_2  and  C_25 
REMARK       I    between atoms: N_3  and  C_4 
REMARK    3  A    between atoms: C_4  and  C_5 
REMARK    4  A    between atoms: C_8  and  C_9 
REMARK       I    between atoms: C_9  and  N_10 
REMARK    5  A    between atoms: N_10  and  C_11 
REMARK    6  A    between atoms: N_19  and  C_20 
REMARK    7  A    between atoms: C_33  and  O_34 
ROOT
HETATM    1  C   UNL     1       7.719  30.040  57.711  1.00  0.00     0.098 A 
HETATM    2  C   UNL     1       8.135  28.717  57.152  1.00  0.00     0.206 A 
HETATM    3  O   UNL     1       9.207  28.202  57.479  1.00  0.00    -0.286 OA
HETATM    4  C   UNL     1       7.217  28.021  56.201  1.00  0.00     0.098 A 
HETATM    5  C   UNL     1       6.112  28.690  55.829  1.00  0.00     0.112 A 
HETATM    6  N   UNL     1       5.792  29.956  56.277  1.00  0.00    -0.360 N 
HETATM    7  C   UNL     1       6.573  30.561  57.241  1.00  0.00     0.112 A 
ENDROOT
BRANCH   1   8
HETATM    8  C   UNL     1       8.481  30.795  58.745  1.00  0.00     0.257 C 
HETATM    9  N   UNL     1       8.098  30.556  60.036  1.00  0.00    -0.348 N 
HETATM   10  H   UNL     1       7.329  29.907  60.203  1.00  0.00     0.163 HD
HETATM   11  O   UNL     1       9.382  31.574  58.446  1.00  0.00    -0.267 OA
BRANCH   9  12
HETATM   12  C   UNL     1       8.688  31.210  61.190  1.00  0.00     0.114 C 
HETATM   13  C   UNL     1       9.452  30.217  62.072  1.00  0.00     0.037 C 
BRANCH  12  14
HETATM   14  C   UNL     1       7.595  31.935  61.957  1.00  0.00    -0.035 A 
HETATM   15  C   UNL     1       7.822  32.352  63.278  1.00  0.00     0.021 A 
HETATM   16  C   UNL     1       6.852  33.078  63.993  1.00  0.00    -0.025 A 
HETATM   17  C   UNL     1       5.628  33.399  63.371  1.00  0.00    -0.023 A 
HETATM   18  C   UNL     1       7.076  33.501  65.313  1.00  0.00     0.015 A 
HETATM   19  C   UNL     1       5.401  32.982  62.051  1.00  0.00     0.013 A 
HETATM   20  C   UNL     1       4.666  34.135  64.081  1.00  0.00     0.049 A 
HETATM   21  C   UNL     1       6.372  32.262  61.353  1.00  0.00     0.010 A 
HETATM   22  C   UNL     1       4.899  34.557  65.393  1.00  0.00     0.069 A 
HETATM   23  C   UNL     1       6.107  34.235  66.008  1.00  0.00     0.037 A 
BRANCH  22  24
HETATM   24  O   UNL     1       3.875  35.270  65.955  1.00  0.00    -0.356 OA
HETATM   25  C   UNL     1       4.200  36.096  67.064  1.00  0.00     0.210 C 
ENDBRANCH  22  24
ENDBRANCH  12  14
ENDBRANCH   9  12
ENDBRANCH   1   8
BRANCH   4  26
HETATM   26  C   UNL     1       7.436  26.645  55.671  1.00  0.00     0.257 C 
HETATM   27  N   UNL     1       7.211  26.500  54.325  1.00  0.00    -0.352 N 
HETATM   28  H   UNL     1       6.790  27.282  53.826  1.00  0.00     0.163 HD
HETATM   29  O   UNL     1       7.807  25.727  56.396  1.00  0.00    -0.267 OA
BRANCH  27  30
HETATM   30  C   UNL     1       7.306  25.221  53.633  1.00  0.00     0.084 C 
HETATM   31  C   UNL     1       6.081  24.344  53.925  1.00  0.00     0.025 C 
HETATM   32  C   UNL     1       4.815  24.860  53.241  1.00  0.00     0.002 C 
HETATM   33  C   UNL     1       5.021  25.042  51.740  1.00  0.00     0.000 C 
HETATM   34  C   UNL     1       6.216  25.940  51.436  1.00  0.00     0.002 C 
HETATM   35  C   UNL     1       7.487  25.440  52.124  1.00  0.00     0.025 C 
ENDBRANCH  27  30
ENDBRANCH   4  26
BRANCH   6  36
HETATM   36  C   UNL     1       4.482  30.528  55.939  1.00  0.00     0.089 A 
HETATM   37  C   UNL     1       4.300  31.500  54.802  1.00  0.00     0.028 A 
HETATM   38  C   UNL     1       3.745  30.113  54.691  1.00  0.00     0.028 A 
ENDBRANCH   6  36
TORSDOF 7
ENDMDL
MODEL 3
REMARK VINA RESULT:     -10.3      2.602     10.863
REMARK  7 active torsions:
REMARK  status: ('A' for Active; 'I' for Inactive)
REMARK    1  A    between atoms: C_2  and  N_3 
REMARK    2  A    between atoms: C_2  and  C_25 
REMARK       I    between atoms: N_3  and  C_4 
REMARK    3  A    between atoms: C_4  and  C_5 
REMARK    4  A    between atoms: C_8  and  C_9 
REMARK       I    between atoms: C_9  and  N_10 
REMARK    5  A    between atoms: N_10  and  C_11 
REMARK    6  A    between atoms: N_19  and  C_20 
REMARK    7  A    between atoms: C_33  and  O_34 
ROOT
HETATM    1  C   UNL     1       7.475  30.170  57.252  1.00  0.00     0.098 A 
HETATM    2  C   UNL     1       6.183  30.909  57.392  1.00  0.00     0.206 A 
HETATM    3  O   UNL     1       5.410  31.015  56.437  1.00  0.00    -0.286 OA
HETATM    4  C   UNL     1       5.838  31.503  58.719  1.00  0.00     0.098 A 
HETATM    5  C   UNL     1       6.774  31.419  59.680  1.00  0.00     0.112 A 
HETATM    6  N   UNL     1       8.006  30.820  59.504  1.00  0.00    -0.360 N 
HETATM    7  C   UNL     1       8.291  30.170  58.320  1.00  0.00     0.112 A 
ENDROOT
BRANCH   1   8
HETATM    8  C   UNL     1       7.899  29.439  56.025  1.00  0.00     0.257 C 
HETATM    9  N   UNL     1       6.878  28.907  55.286  1.00  0.00    -0.348 N 
HETATM   10  H   UNL     1       5.922  29.029  55.618  1.00  0.00     0.163 HD
HETATM   11  O   UNL     1       9.082  29.326  55.714  1.00  0.00    -0.267 OA
BRANCH   9  12
HETATM   12  C   UNL     1       7.074  28.133  54.074  1.00  0.00     0.114 C 
HETATM   13  C   UNL     1       5.995  28.435  53.030  1.00  0.00     0.037 C 
BRANCH  12  14
HETATM   14  C   UNL     1       7.125  26.658  54.435  1.00  0.00    -0.035 A 
HETATM   15  C   UNL     1       7.467  25.707  53.460  1.00  0.00     0.021 A 
HETATM   16  C   UNL     1       7.581  24.342  53.778  1.00  0.00    -0.025 A 
HETATM   17  C   UNL     1       7.352  23.917  55.104  1.00  0.00    -0.023 A 
HETATM   18  C   UNL     1       7.928  23.387  52.809  1.00  0.00     0.015 A 
HETATM   19  C   UNL     1       7.009  24.866  56.077  1.00  0.00     0.013 A 
HETATM   20  C   UNL     1       7.479  22.555  55.422  1.00  0.00     0.049 A 
HETATM   21  C   UNL     1       6.899  26.219  55.748  1.00  0.00     0.010 A 
HETATM   22  C   UNL     1       7.830  21.613  54.452  1.00  0.00     0.069 A 
HETATM   23  C   UNL     1       8.051  22.033  53.142  1.00  0.00     0.037 A 
BRANCH  22  24
HETATM   24  O   UNL     1       7.922  20.327  54.911  1.00  0.00    -0.356 OA
HETATM   25  C   UNL     1       8.752  20.107  56.043  1.00  0.00     0.210 C 
ENDBRANCH  22  24
ENDBRANCH  12  14
ENDBRANCH   9  12
ENDBRANCH   1   8
BRANCH   4  26
HETATM   26  C   UNL     1       4.533  32.147  59.041  1.00  0.00     0.257 C 
HETATM   27  N   UNL     1       4.620  33.277  59.815  1.00  0.00    -0.352 N 
HETATM   28  H   UNL     1       5.528  33.509  60.218  1.00  0.00     0.163 HD
HETATM   29  O   UNL     1       3.471  31.697  58.622  1.00  0.00    -0.267 OA
BRANCH  27  30
HETATM   30  C   UNL     1       3.455  34.011  60.292  1.00  0.00     0.084 C 
HETATM   31  C   UNL     1       3.026  33.520  61.681  1.00  0.00     0.025 C 
HETATM   32  C   UNL     1       4.003  33.942  62.779  1.00  0.00     0.002 C 
HETATM   33  C   UNL     1       4.240  35.449  62.773  1.00  0.00     0.000 C 
HETATM   34  C   UNL     1       4.701  35.944  61.406  1.00  0.00     0.002 C 
HETATM   35  C   UNL     1       3.737  35.520  60.297  1.00  0.00     0.025 C 
ENDBRANCH  27  30
ENDBRANCH   4  26
BRANCH   6  36
HETATM   36  C   UNL     1       8.887  30.636  60.665  1.00  0.00     0.089 A 
HETATM   37  C   UNL     1       9.604  31.790  61.319  1.00  0.00     0.028 A 
HETATM   38  C   UNL     1       8.481  31.107  62.038  1.00  0.00     0.028 A 
ENDBRANCH   6  36
TORSDOF 7
ENDMDL
MODEL 4
REMARK VINA RESULT:     -10.2      2.116      3.544
REMARK  7 active torsions:
REMARK  status: ('A' for Active; 'I' for Inactive)
REMARK    1  A    between atoms: C_2  and  N_3 
REMARK    2  A    between atoms: C_2  and  C_25 
REMARK       I    between atoms: N_3  and  C_4 
REMARK    3  A    between atoms: C_4  and  C_5 
REMARK    4  A    between atoms: C_8  and  C_9 
REMARK       I    between atoms: C_9  and  N_10 
REMARK    5  A    between atoms: N_10  and  C_11 
REMARK    6  A    between atoms: N_19  and  C_20 
REMARK    7  A    between atoms: C_33  and  O_34 
ROOT
HETATM    1  C   UNL     1       6.264  29.695  57.687  1.00  0.00     0.098 A 
HETATM    2  C   UNL     1       6.008  28.297  57.220  1.00  0.00     0.206 A 
HETATM    3  O   UNL     1       4.857  27.896  57.032  1.00  0.00    -0.286 OA
HETATM    4  C   UNL     1       7.176  27.401  56.969  1.00  0.00     0.098 A 
HETATM    5  C   UNL     1       8.389  27.887  57.284  1.00  0.00     0.112 A 
HETATM    6  N   UNL     1       8.601  29.146  57.811  1.00  0.00    -0.360 N 
HETATM    7  C   UNL     1       7.543  30.023  57.940  1.00  0.00     0.112 A 
ENDROOT
BRANCH   1   8
HETATM    8  C   UNL     1       5.206  30.728  57.875  1.00  0.00     0.257 C 
HETATM    9  N   UNL     1       5.352  31.511  58.987  1.00  0.00    -0.348 N 
HETATM   10  H   UNL     1       6.143  31.334  59.605  1.00  0.00     0.163 HD
HETATM   11  O   UNL     1       4.275  30.852  57.084  1.00  0.00    -0.267 OA
BRANCH   9  12
HETATM   12  C   UNL     1       4.418  32.553  59.371  1.00  0.00     0.114 C 
HETATM   13  C   UNL     1       4.591  33.811  58.515  1.00  0.00     0.037 C 
BRANCH  12  14
HETATM   14  C   UNL     1       4.585  32.841  60.854  1.00  0.00    -0.035 A 
HETATM   15  C   UNL     1       5.858  32.781  61.442  1.00  0.00     0.021 A 
HETATM   16  C   UNL     1       6.054  33.101  62.798  1.00  0.00    -0.025 A 
HETATM   17  C   UNL     1       4.950  33.493  63.584  1.00  0.00    -0.023 A 
HETATM   18  C   UNL     1       7.325  33.048  63.390  1.00  0.00     0.015 A 
HETATM   19  C   UNL     1       3.677  33.551  62.997  1.00  0.00     0.013 A 
HETATM   20  C   UNL     1       5.149  33.824  64.934  1.00  0.00     0.049 A 
HETATM   21  C   UNL     1       3.497  33.231  61.650  1.00  0.00     0.010 A 
HETATM   22  C   UNL     1       6.419  33.774  65.513  1.00  0.00     0.069 A 
HETATM   23  C   UNL     1       7.507  33.382  64.737  1.00  0.00     0.037 A 
BRANCH  22  24
HETATM   24  O   UNL     1       6.459  34.131  66.834  1.00  0.00    -0.356 OA
HETATM   25  C   UNL     1       5.239  34.565  67.419  1.00  0.00     0.210 C 
ENDBRANCH  22  24
ENDBRANCH  12  14
ENDBRANCH   9  12
ENDBRANCH   1   8
BRANCH   4  26
HETATM   26  C   UNL     1       7.081  26.037  56.378  1.00  0.00     0.257 C 
HETATM   27  N   UNL     1       6.548  25.989  55.114  1.00  0.00    -0.352 N 
HETATM   28  H   UNL     1       6.139  26.844  54.737  1.00  0.00     0.163 HD
HETATM   29  O   UNL     1       7.473  25.043  56.982  1.00  0.00    -0.267 OA
BRANCH  27  30
HETATM   30  C   UNL     1       6.311  24.745  54.393  1.00  0.00     0.084 C 
HETATM   31  C   UNL     1       5.156  24.898  53.394  1.00  0.00     0.025 C 
HETATM   32  C   UNL     1       5.531  25.768  52.194  1.00  0.00     0.002 C 
HETATM   33  C   UNL     1       6.795  25.263  51.505  1.00  0.00     0.000 C 
HETATM   34  C   UNL     1       7.960  25.138  52.481  1.00  0.00     0.002 C 
HETATM   35  C   UNL     1       7.595  24.278  53.691  1.00  0.00     0.025 C 
ENDBRANCH  27  30
ENDBRANCH   4  26
BRANCH   6  36
HETATM   36  C   UNL     1       9.976  29.639  57.963  1.00  0.00     0.089 A 
HETATM   37  C   UNL     1      10.718  30.306  56.833  1.00  0.00     0.028 A 
HETATM   38  C   UNL     1      10.278  31.115  58.015  1.00  0.00     0.028 A 
ENDBRANCH   6  36
TORSDOF 7
ENDMDL
MODEL 5
REMARK VINA RESULT:      -9.8      5.396      9.586
REMARK  7 active torsions:
REMARK  status: ('A' for Active; 'I' for Inactive)
REMARK    1  A    between atoms: C_2  and  N_3 
REMARK    2  A    between atoms: C_2  and  C_25 
REMARK       I    between atoms: N_3  and  C_4 
REMARK    3  A    between atoms: C_4  and  C_5 
REMARK    4  A    between atoms: C_8  and  C_9 
REMARK       I    between atoms: C_9  and  N_10 
REMARK    5  A    between atoms: N_10  and  C_11 
REMARK    6  A    between atoms: N_19  and  C_20 
REMARK    7  A    between atoms: C_33  and  O_34 
ROOT
HETATM    1  C   UNL     1       4.497  29.613  54.184  1.00  0.00     0.098 A 
HETATM    2  C   UNL     1       5.066  29.224  52.857  1.00  0.00     0.206 A 
HETATM    3  O   UNL     1       5.845  28.273  52.758  1.00  0.00    -0.286 OA
HETATM    4  C   UNL     1       4.660  30.002  51.648  1.00  0.00     0.098 A 
HETATM    5  C   UNL     1       3.880  31.077  51.856  1.00  0.00     0.112 A 
HETATM    6  N   UNL     1       3.444  31.483  53.102  1.00  0.00    -0.360 N 
HETATM    7  C   UNL     1       3.719  30.708  54.211  1.00  0.00     0.112 A 
ENDROOT
BRANCH   1   8
HETATM    8  C   UNL     1       4.729  28.865  55.452  1.00  0.00     0.257 C 
HETATM    9  N   UNL     1       6.042  28.624  55.750  1.00  0.00    -0.348 N 
HETATM   10  H   UNL     1       6.757  28.949  55.099  1.00  0.00     0.163 HD
HETATM   11  O   UNL     1       3.800  28.494  56.164  1.00  0.00    -0.267 OA
BRANCH   9  12
HETATM   12  C   UNL     1       6.485  27.886  56.919  1.00  0.00     0.114 C 
HETATM   13  C   UNL     1       7.513  28.680  57.731  1.00  0.00     0.037 C 
BRANCH  12  14
HETATM   14  C   UNL     1       7.023  26.537  56.475  1.00  0.00    -0.035 A 
HETATM   15  C   UNL     1       6.931  26.153  55.128  1.00  0.00     0.021 A 
HETATM   16  C   UNL     1       7.473  24.936  54.675  1.00  0.00    -0.025 A 
HETATM   17  C   UNL     1       8.126  24.085  55.591  1.00  0.00    -0.023 A 
HETATM   18  C   UNL     1       7.389  24.550  53.329  1.00  0.00     0.015 A 
HETATM   19  C   UNL     1       8.216  24.467  56.937  1.00  0.00     0.013 A 
HETATM   20  C   UNL     1       8.677  22.877  55.135  1.00  0.00     0.049 A 
HETATM   21  C   UNL     1       7.674  25.678  57.373  1.00  0.00     0.010 A 
HETATM   22  C   UNL     1       8.594  22.502  53.791  1.00  0.00     0.069 A 
HETATM   23  C   UNL     1       7.945  23.342  52.889  1.00  0.00     0.037 A 
BRANCH  22  24
HETATM   24  O   UNL     1       9.182  21.303  53.494  1.00  0.00    -0.356 OA
HETATM   25  C   UNL     1       8.360  20.318  52.884  1.00  0.00     0.210 C 
ENDBRANCH  22  24
ENDBRANCH  12  14
ENDBRANCH   9  12
ENDBRANCH   1   8
BRANCH   4  26
HETATM   26  C   UNL     1       5.038  29.649  50.251  1.00  0.00     0.257 C 
HETATM   27  N   UNL     1       4.048  29.046  49.517  1.00  0.00    -0.352 N 
HETATM   28  H   UNL     1       3.198  28.764  50.005  1.00  0.00     0.163 HD
HETATM   29  O   UNL     1       6.151  29.903  49.801  1.00  0.00    -0.267 OA
BRANCH  27  30
HETATM   30  C   UNL     1       4.242  28.566  48.155  1.00  0.00     0.084 C 
HETATM   31  C   UNL     1       4.738  27.114  48.148  1.00  0.00     0.025 C 
HETATM   32  C   UNL     1       3.653  26.122  48.568  1.00  0.00     0.002 C 
HETATM   33  C   UNL     1       2.390  26.279  47.726  1.00  0.00     0.000 C 
HETATM   34  C   UNL     1       1.867  27.712  47.751  1.00  0.00     0.002 C 
HETATM   35  C   UNL     1       2.947  28.715  47.343  1.00  0.00     0.025 C 
ENDBRANCH  27  30
ENDBRANCH   4  26
BRANCH   6  36
HETATM   36  C   UNL     1       2.462  32.570  53.200  1.00  0.00     0.089 A 
HETATM   37  C   UNL     1       2.828  33.938  53.718  1.00  0.00     0.028 A 
HETATM   38  C   UNL     1       2.506  33.753  52.266  1.00  0.00     0.028 A 
ENDBRANCH   6  36
TORSDOF 7
ENDMDL
MODEL 6
REMARK VINA RESULT:      -9.7      6.962     11.117
REMARK  7 active torsions:
REMARK  status: ('A' for Active; 'I' for Inactive)
REMARK    1  A    between atoms: C_2  and  N_3 
REMARK    2  A    between atoms: C_2  and  C_25 
REMARK       I    between atoms: N_3  and  C_4 
REMARK    3  A    between atoms: C_4  and  C_5 
REMARK    4  A    between atoms: C_8  and  C_9 
REMARK       I    between atoms: C_9  and  N_10 
REMARK    5  A    between atoms: N_10  and  C_11 
REMARK    6  A    between atoms: N_19  and  C_20 
REMARK    7  A    between atoms: C_33  and  O_34 
ROOT
HETATM    1  C   UNL     1       4.833  28.898  51.807  1.00  0.00     0.098 A 
HETATM    2  C   UNL     1       4.501  30.245  51.247  1.00  0.00     0.206 A 
HETATM    3  O   UNL     1       4.453  31.237  51.977  1.00  0.00    -0.286 OA
HETATM    4  C   UNL     1       4.246  30.367  49.780  1.00  0.00     0.098 A 
HETATM    5  C   UNL     1       4.231  29.225  49.072  1.00  0.00     0.112 A 
HETATM    6  N   UNL     1       4.439  27.975  49.623  1.00  0.00    -0.360 N 
HETATM    7  C   UNL     1       4.787  27.861  50.954  1.00  0.00     0.112 A 
ENDROOT
BRANCH   1   8
HETATM    8  C   UNL     1       5.213  28.645  53.226  1.00  0.00     0.257 C 
HETATM    9  N   UNL     1       6.544  28.411  53.436  1.00  0.00    -0.348 N 
HETATM   10  H   UNL     1       7.170  28.411  52.632  1.00  0.00     0.163 HD
HETATM   11  O   UNL     1       4.380  28.645  54.128  1.00  0.00    -0.267 OA
BRANCH   9  12
HETATM   12  C   UNL     1       7.118  28.113  54.735  1.00  0.00     0.114 C 
HETATM   13  C   UNL     1       8.485  28.780  54.914  1.00  0.00     0.037 C 
BRANCH  12  14
HETATM   14  C   UNL     1       7.187  26.606  54.908  1.00  0.00    -0.035 A 
HETATM   15  C   UNL     1       7.468  25.784  53.805  1.00  0.00     0.021 A 
HETATM   16  C   UNL     1       7.598  24.390  53.945  1.00  0.00    -0.025 A 
HETATM   17  C   UNL     1       7.448  23.804  55.219  1.00  0.00    -0.023 A 
HETATM   18  C   UNL     1       7.883  23.565  52.846  1.00  0.00     0.015 A 
HETATM   19  C   UNL     1       7.166  24.625  56.321  1.00  0.00     0.013 A 
HETATM   20  C   UNL     1       7.591  22.415  55.359  1.00  0.00     0.049 A 
HETATM   21  C   UNL     1       7.040  26.007  56.169  1.00  0.00     0.010 A 
HETATM   22  C   UNL     1       7.880  21.601  54.260  1.00  0.00     0.069 A 
HETATM   23  C   UNL     1       8.023  22.180  53.002  1.00  0.00     0.037 A 
BRANCH  22  24
HETATM   24  O   UNL     1       7.997  20.269  54.551  1.00  0.00    -0.356 OA
HETATM   25  C   UNL     1       8.464  19.933  55.850  1.00  0.00     0.210 C 
ENDBRANCH  22  24
ENDBRANCH  12  14
ENDBRANCH   9  12
ENDBRANCH   1   8
BRANCH   4  26
HETATM   26  C   UNL     1       4.039  31.658  49.065  1.00  0.00     0.257 C 
HETATM   27  N   UNL     1       5.175  32.403  48.873  1.00  0.00    -0.352 N 
HETATM   28  H   UNL     1       6.029  32.099  49.340  1.00  0.00     0.163 HD
HETATM   29  O   UNL     1       2.930  32.004  48.668  1.00  0.00    -0.267 OA
BRANCH  27  30
HETATM   30  C   UNL     1       5.170  33.723  48.254  1.00  0.00     0.084 C 
HETATM   31  C   UNL     1       6.467  34.482  48.566  1.00  0.00     0.025 C 
HETATM   32  C   UNL     1       7.675  33.908  47.826  1.00  0.00     0.002 C 
HETATM   33  C   UNL     1       7.428  33.828  46.322  1.00  0.00     0.000 C 
HETATM   34  C   UNL     1       6.160  33.047  45.997  1.00  0.00     0.002 C 
HETATM   35  C   UNL     1       4.946  33.605  46.740  1.00  0.00     0.025 C 
ENDBRANCH  27  30
ENDBRANCH   4  26
BRANCH   6  36
HETATM   36  C   UNL     1       4.566  26.812  48.735  1.00  0.00     0.089 A 
HETATM   37  C   UNL     1       3.410  25.883  48.460  1.00  0.00     0.028 A 
HETATM   38  C   UNL     1       3.913  26.789  47.377  1.00  0.00     0.028 A 
ENDBRANCH   6  36
TORSDOF 7
ENDMDL
MODEL 7
REMARK VINA RESULT:      -9.6      1.788      4.805
REMARK  7 active torsions:
REMARK  status: ('A' for Active; 'I' for Inactive)
REMARK    1  A    between atoms: C_2  and  N_3 
REMARK    2  A    between atoms: C_2  and  C_25 
REMARK       I    between atoms: N_3  and  C_4 
REMARK    3  A    between atoms: C_4  and  C_5 
REMARK    4  A    between atoms: C_8  and  C_9 
REMARK       I    between atoms: C_9  and  N_10 
REMARK    5  A    between atoms: N_10  and  C_11 
REMARK    6  A    between atoms: N_19  and  C_20 
REMARK    7  A    between atoms: C_33  and  O_34 
ROOT
HETATM    1  C   UNL     1       7.424  29.022  57.899  1.00  0.00     0.098 A 
HETATM    2  C   UNL     1       6.318  29.593  57.071  1.00  0.00     0.206 A 
HETATM    3  O   UNL     1       6.076  30.803  57.089  1.00  0.00    -0.286 OA
HETATM    4  C   UNL     1       5.520  28.671  56.208  1.00  0.00     0.098 A 
HETATM    5  C   UNL     1       5.789  27.359  56.316  1.00  0.00     0.112 A 
HETATM    6  N   UNL     1       6.748  26.837  57.163  1.00  0.00    -0.360 N 
HETATM    7  C   UNL     1       7.567  27.686  57.879  1.00  0.00     0.112 A 
ENDROOT
BRANCH   1   8
HETATM    8  C   UNL     1       8.366  29.833  58.722  1.00  0.00     0.257 C 
HETATM    9  N   UNL     1       7.835  30.348  59.872  1.00  0.00    -0.348 N 
HETATM   10  H   UNL     1       6.855  30.161  60.081  1.00  0.00     0.163 HD
HETATM   11  O   UNL     1       9.530  30.021  58.377  1.00  0.00    -0.267 OA
BRANCH   9  12
HETATM   12  C   UNL     1       8.571  31.189  60.798  1.00  0.00     0.114 C 
HETATM   13  C   UNL     1       9.468  30.361  61.723  1.00  0.00     0.037 C 
BRANCH  12  14
HETATM   14  C   UNL     1       7.585  32.048  61.572  1.00  0.00    -0.035 A 
HETATM   15  C   UNL     1       7.796  32.302  62.937  1.00  0.00     0.021 A 
HETATM   16  C   UNL     1       6.934  33.142  63.666  1.00  0.00    -0.025 A 
HETATM   17  C   UNL     1       5.838  33.744  63.014  1.00  0.00    -0.023 A 
HETATM   18  C   UNL     1       7.143  33.404  65.029  1.00  0.00     0.015 A 
HETATM   19  C   UNL     1       5.626  33.489  61.652  1.00  0.00     0.013 A 
HETATM   20  C   UNL     1       4.986  34.592  63.741  1.00  0.00     0.049 A 
HETATM   21  C   UNL     1       6.489  32.654  60.940  1.00  0.00     0.010 A 
HETATM   22  C   UNL     1       5.205  34.852  65.097  1.00  0.00     0.069 A 
HETATM   23  C   UNL     1       6.285  34.252  65.740  1.00  0.00     0.037 A 
BRANCH  22  24
HETATM   24  O   UNL     1       4.298  35.702  65.669  1.00  0.00    -0.356 OA
HETATM   25  C   UNL     1       4.668  36.301  66.903  1.00  0.00     0.210 C 
ENDBRANCH  22  24
ENDBRANCH  12  14
ENDBRANCH   9  12
ENDBRANCH   1   8
BRANCH   4  26
HETATM   26  C   UNL     1       4.482  29.113  55.235  1.00  0.00     0.257 C 
HETATM   27  N   UNL     1       4.183  30.452  55.275  1.00  0.00    -0.352 N 
HETATM   28  H   UNL     1       4.575  31.005  56.037  1.00  0.00     0.163 HD
HETATM   29  O   UNL     1       3.959  28.329  54.450  1.00  0.00    -0.267 OA
BRANCH  27  30
HETATM   30  C   UNL     1       3.150  31.065  54.450  1.00  0.00     0.084 C 
HETATM   31  C   UNL     1       2.202  31.922  55.301  1.00  0.00     0.025 C 
HETATM   32  C   UNL     1       2.863  33.207  55.799  1.00  0.00     0.002 C 
HETATM   33  C   UNL     1       3.459  34.015  54.650  1.00  0.00     0.000 C 
HETATM   34  C   UNL     1       4.430  33.184  53.817  1.00  0.00     0.002 C 
HETATM   35  C   UNL     1       3.783  31.890  53.321  1.00  0.00     0.025 C 
ENDBRANCH  27  30
ENDBRANCH   4  26
BRANCH   6  36
HETATM   36  C   UNL     1       7.076  25.407  57.081  1.00  0.00     0.089 A 
HETATM   37  C   UNL     1       7.892  24.835  55.949  1.00  0.00     0.028 A 
HETATM   38  C   UNL     1       8.478  24.910  57.327  1.00  0.00     0.028 A 
ENDBRANCH   6  36
TORSDOF 7
ENDMDL
MODEL 8
REMARK VINA RESULT:      -9.4      2.389      4.008
REMARK  7 active torsions:
REMARK  status: ('A' for Active; 'I' for Inactive)
REMARK    1  A    between atoms: C_2  and  N_3 
REMARK    2  A    between atoms: C_2  and  C_25 
REMARK       I    between atoms: N_3  and  C_4 
REMARK    3  A    between atoms: C_4  and  C_5 
REMARK    4  A    between atoms: C_8  and  C_9 
REMARK       I    between atoms: C_9  and  N_10 
REMARK    5  A    between atoms: N_10  and  C_11 
REMARK    6  A    between atoms: N_19  and  C_20 
REMARK    7  A    between atoms: C_33  and  O_34 
ROOT
HETATM    1  C   UNL     1       7.122  29.491  57.904  1.00  0.00     0.098 A 
HETATM    2  C   UNL     1       6.026  30.156  57.134  1.00  0.00     0.206 A 
HETATM    3  O   UNL     1       5.799  31.360  57.271  1.00  0.00    -0.286 OA
HETATM    4  C   UNL     1       5.222  29.335  56.180  1.00  0.00     0.098 A 
HETATM    5  C   UNL     1       5.475  28.015  56.156  1.00  0.00     0.112 A 
HETATM    6  N   UNL     1       6.423  27.399  56.949  1.00  0.00    -0.360 N 
HETATM    7  C   UNL     1       7.249  28.162  57.749  1.00  0.00     0.112 A 
ENDROOT
BRANCH   1   8
HETATM    8  C   UNL     1       8.070  30.204  58.807  1.00  0.00     0.257 C 
HETATM    9  N   UNL     1       7.514  30.703  59.952  1.00  0.00    -0.348 N 
HETATM   10  H   UNL     1       6.514  30.572  60.105  1.00  0.00     0.163 HD
HETATM   11  O   UNL     1       9.259  30.330  58.527  1.00  0.00    -0.267 OA
BRANCH   9  12
HETATM   12  C   UNL     1       8.253  31.456  60.949  1.00  0.00     0.114 C 
HETATM   13  C   UNL     1       9.390  30.626  61.554  1.00  0.00     0.037 C 
BRANCH  12  14
HETATM   14  C   UNL     1       7.283  31.957  62.006  1.00  0.00    -0.035 A 
HETATM   15  C   UNL     1       7.771  32.511  63.200  1.00  0.00     0.021 A 
HETATM   16  C   UNL     1       6.899  33.038  64.171  1.00  0.00    -0.025 A 
HETATM   17  C   UNL     1       5.508  33.014  63.940  1.00  0.00    -0.023 A 
HETATM   18  C   UNL     1       7.381  33.598  65.364  1.00  0.00     0.015 A 
HETATM   19  C   UNL     1       5.021  32.458  62.748  1.00  0.00     0.013 A 
HETATM   20  C   UNL     1       4.640  33.552  64.904  1.00  0.00     0.049 A 
HETATM   21  C   UNL     1       5.897  31.939  61.793  1.00  0.00     0.010 A 
HETATM   22  C   UNL     1       5.129  34.113  66.088  1.00  0.00     0.069 A 
HETATM   23  C   UNL     1       6.503  34.132  66.316  1.00  0.00     0.037 A 
BRANCH  22  24
HETATM   24  O   UNL     1       4.167  34.602  66.928  1.00  0.00    -0.356 OA
HETATM   25  C   UNL     1       3.707  35.924  66.677  1.00  0.00     0.210 C 
ENDBRANCH  22  24
ENDBRANCH  12  14
ENDBRANCH   9  12
ENDBRANCH   1   8
BRANCH   4  26
HETATM   26  C   UNL     1       4.194  29.886  55.252  1.00  0.00     0.257 C 
HETATM   27  N   UNL     1       4.389  29.587  53.927  1.00  0.00    -0.352 N 
HETATM   28  H   UNL     1       5.269  29.144  53.664  1.00  0.00     0.163 HD
HETATM   29  O   UNL     1       3.240  30.540  55.662  1.00  0.00    -0.267 OA
BRANCH  27  30
HETATM   30  C   UNL     1       3.532  30.088  52.860  1.00  0.00     0.084 C 
HETATM   31  C   UNL     1       4.292  31.071  51.959  1.00  0.00     0.025 C 
HETATM   32  C   UNL     1       5.335  30.377  51.083  1.00  0.00     0.002 C 
HETATM   33  C   UNL     1       4.720  29.242  50.269  1.00  0.00     0.000 C 
HETATM   34  C   UNL     1       3.991  28.239  51.157  1.00  0.00     0.002 C 
HETATM   35  C   UNL     1       2.952  28.923  52.046  1.00  0.00     0.025 C 
ENDBRANCH  27  30
ENDBRANCH   4  26
BRANCH   6  36
HETATM   36  C   UNL     1       6.735  25.981  56.725  1.00  0.00     0.089 A 
HETATM   37  C   UNL     1       7.626  25.524  55.598  1.00  0.00     0.028 A 
HETATM   38  C   UNL     1       8.106  25.426  57.014  1.00  0.00     0.028 A 
ENDBRANCH   6  36
TORSDOF 7
ENDMDL
MODEL 9
REMARK VINA RESULT:      -9.3      2.283     10.681
REMARK  7 active torsions:
REMARK  status: ('A' for Active; 'I' for Inactive)
REMARK    1  A    between atoms: C_2  and  N_3 
REMARK    2  A    between atoms: C_2  and  C_25 
REMARK       I    between atoms: N_3  and  C_4 
REMARK    3  A    between atoms: C_4  and  C_5 
REMARK    4  A    between atoms: C_8  and  C_9 
REMARK       I    between atoms: C_9  and  N_10 
REMARK    5  A    between atoms: N_10  and  C_11 
REMARK    6  A    between atoms: N_19  and  C_20 
REMARK    7  A    between atoms: C_33  and  O_34 
ROOT
HETATM    1  C   UNL     1       6.735  30.120  56.737  1.00  0.00     0.098 A 
HETATM    2  C   UNL     1       7.315  30.381  58.091  1.00  0.00     0.206 A 
HETATM    3  O   UNL     1       8.402  29.898  58.416  1.00  0.00    -0.286 OA
HETATM    4  C   UNL     1       6.558  31.254  59.037  1.00  0.00     0.098 A 
HETATM    5  C   UNL     1       5.343  31.667  58.638  1.00  0.00     0.112 A 
HETATM    6  N   UNL     1       4.777  31.333  57.423  1.00  0.00    -0.360 N 
HETATM    7  C   UNL     1       5.512  30.622  56.496  1.00  0.00     0.112 A 
ENDROOT
BRANCH   1   8
HETATM    8  C   UNL     1       7.425  29.359  55.657  1.00  0.00     0.257 C 
HETATM    9  N   UNL     1       6.595  28.733  54.768  1.00  0.00    -0.348 N 
HETATM   10  H   UNL     1       5.588  28.813  54.904  1.00  0.00     0.163 HD
HETATM   11  O   UNL     1       8.650  29.302  55.586  1.00  0.00    -0.267 OA
BRANCH   9  12
HETATM   12  C   UNL     1       7.061  27.916  53.663  1.00  0.00     0.114 C 
HETATM   13  C   UNL     1       6.169  28.075  52.428  1.00  0.00     0.037 C 
BRANCH  12  14
HETATM   14  C   UNL     1       7.151  26.471  54.123  1.00  0.00    -0.035 A 
HETATM   15  C   UNL     1       7.446  25.456  53.198  1.00  0.00     0.021 A 
HETATM   16  C   UNL     1       7.595  24.118  53.604  1.00  0.00    -0.025 A 
HETATM   17  C   UNL     1       7.450  23.786  54.967  1.00  0.00    -0.023 A 
HETATM   18  C   UNL     1       7.895  23.100  52.685  1.00  0.00     0.015 A 
HETATM   19  C   UNL     1       7.154  24.799  55.891  1.00  0.00     0.013 A 
HETATM   20  C   UNL     1       7.612  22.451  55.373  1.00  0.00     0.049 A 
HETATM   21  C   UNL     1       7.009  26.124  55.475  1.00  0.00     0.010 A 
HETATM   22  C   UNL     1       7.916  21.445  54.451  1.00  0.00     0.069 A 
HETATM   23  C   UNL     1       8.054  21.773  53.105  1.00  0.00     0.037 A 
BRANCH  22  24
HETATM   24  O   UNL     1       8.050  20.196  54.993  1.00  0.00    -0.356 OA
HETATM   25  C   UNL     1       8.496  20.125  56.341  1.00  0.00     0.210 C 
ENDBRANCH  22  24
ENDBRANCH  12  14
ENDBRANCH   9  12
ENDBRANCH   1   8
BRANCH   4  26
HETATM   26  C   UNL     1       7.072  31.709  60.360  1.00  0.00     0.257 C 
HETATM   27  N   UNL     1       6.106  31.960  61.302  1.00  0.00    -0.352 N 
HETATM   28  H   UNL     1       5.132  31.955  60.998  1.00  0.00     0.163 HD
HETATM   29  O   UNL     1       8.274  31.825  60.579  1.00  0.00    -0.267 OA
BRANCH  27  30
HETATM   30  C   UNL     1       6.401  32.475  62.632  1.00  0.00     0.084 C 
HETATM   31  C   UNL     1       6.895  33.927  62.564  1.00  0.00     0.025 C 
HETATM   32  C   UNL     1       5.780  34.908  62.202  1.00  0.00     0.002 C 
HETATM   33  C   UNL     1       4.584  34.773  63.141  1.00  0.00     0.000 C 
HETATM   34  C   UNL     1       4.063  33.341  63.192  1.00  0.00     0.002 C 
HETATM   35  C   UNL     1       5.171  32.348  63.543  1.00  0.00     0.025 C 
ENDBRANCH  27  30
ENDBRANCH   4  26
BRANCH   6  36
HETATM   36  C   UNL     1       3.518  31.972  57.017  1.00  0.00     0.089 A 
HETATM   37  C   UNL     1       3.482  33.146  56.072  1.00  0.00     0.028 A 
HETATM   38  C   UNL     1       2.972  31.811  55.622  1.00  0.00     0.028 A 
ENDBRANCH   6  36
TORSDOF 7
ENDMDL
MODEL 10
REMARK VINA RESULT:      -9.2      2.616     10.821
REMARK  7 active torsions:
REMARK  status: ('A' for Active; 'I' for Inactive)
REMARK    1  A    between atoms: C_2  and  N_3 
REMARK    2  A    between atoms: C_2  and  C_25 
REMARK       I    between atoms: N_3  and  C_4 
REMARK    3  A    between atoms: C_4  and  C_5 
REMARK    4  A    between atoms: C_8  and  C_9 
REMARK       I    between atoms: C_9  and  N_10 
REMARK    5  A    between atoms: N_10  and  C_11 
REMARK    6  A    between atoms: N_19  and  C_20 
REMARK    7  A    between atoms: C_33  and  O_34 
ROOT
HETATM    1  C   UNL     1       5.977  29.635  56.371  1.00  0.00     0.098 A 
HETATM    2  C   UNL     1       4.986  30.547  57.021  1.00  0.00     0.206 A 
HETATM    3  O   UNL     1       3.834  30.638  56.590  1.00  0.00    -0.286 OA
HETATM    4  C   UNL     1       5.415  31.335  58.215  1.00  0.00     0.098 A 
HETATM    5  C   UNL     1       6.710  31.245  58.565  1.00  0.00     0.112 A 
HETATM    6  N   UNL     1       7.637  30.475  57.892  1.00  0.00    -0.360 N 
HETATM    7  C   UNL     1       7.229  29.657  56.858  1.00  0.00     0.112 A 
ENDROOT
BRANCH   1   8
HETATM    8  C   UNL     1       5.660  28.714  55.243  1.00  0.00     0.257 C 
HETATM    9  N   UNL     1       6.614  28.647  54.264  1.00  0.00    -0.348 N 
HETATM   10  H   UNL     1       7.449  29.225  54.359  1.00  0.00     0.163 HD
HETATM   11  O   UNL     1       4.614  28.072  55.205  1.00  0.00    -0.267 OA
BRANCH   9  12
HETATM   12  C   UNL     1       6.489  27.837  53.067  1.00  0.00     0.114 C 
HETATM   13  C   UNL     1       5.038  27.761  52.584  1.00  0.00     0.037 C 
BRANCH  12  14
HETATM   14  C   UNL     1       7.075  26.462  53.340  1.00  0.00    -0.035 A 
HETATM   15  C   UNL     1       7.287  26.039  54.661  1.00  0.00     0.021 A 
HETATM   16  C   UNL     1       7.772  24.749  54.948  1.00  0.00    -0.025 A 
HETATM   17  C   UNL     1       8.048  23.861  53.887  1.00  0.00    -0.023 A 
HETATM   18  C   UNL     1       7.980  24.319  56.267  1.00  0.00     0.015 A 
HETATM   19  C   UNL     1       7.838  24.284  52.567  1.00  0.00     0.013 A 
HETATM   20  C   UNL     1       8.520  22.570  54.176  1.00  0.00     0.049 A 
HETATM   21  C   UNL     1       7.356  25.567  52.296  1.00  0.00     0.010 A 
HETATM   22  C   UNL     1       8.719  22.148  55.493  1.00  0.00     0.069 A 
HETATM   23  C   UNL     1       8.450  23.028  56.539  1.00  0.00     0.037 A 
BRANCH  22  24
HETATM   24  O   UNL     1       9.175  20.864  55.618  1.00  0.00    -0.356 OA
HETATM   25  C   UNL     1       8.793  19.944  54.604  1.00  0.00     0.210 C 
ENDBRANCH  22  24
ENDBRANCH  12  14
ENDBRANCH   9  12
ENDBRANCH   1   8
BRANCH   4  26
HETATM   26  C   UNL     1       4.504  32.177  59.042  1.00  0.00     0.257 C 
HETATM   27  N   UNL     1       5.082  32.736  60.154  1.00  0.00    -0.352 N 
HETATM   28  H   UNL     1       6.023  32.432  60.405  1.00  0.00     0.163 HD
HETATM   29  O   UNL     1       3.333  32.361  58.726  1.00  0.00    -0.267 OA
BRANCH  27  30
HETATM   30  C   UNL     1       4.343  33.535  61.123  1.00  0.00     0.084 C 
HETATM   31  C   UNL     1       3.820  32.663  62.272  1.00  0.00     0.025 C 
HETATM   32  C   UNL     1       4.937  32.187  63.201  1.00  0.00     0.002 C 
HETATM   33  C   UNL     1       5.768  33.354  63.726  1.00  0.00     0.000 C 
HETATM   34  C   UNL     1       6.322  34.210  62.591  1.00  0.00     0.002 C 
HETATM   35  C   UNL     1       5.215  34.683  61.649  1.00  0.00     0.025 C 
ENDBRANCH  27  30
ENDBRANCH   4  26
BRANCH   6  36
HETATM   36  C   UNL     1       8.984  30.318  58.456  1.00  0.00     0.089 A 
HETATM   37  C   UNL     1      10.095  31.294  58.163  1.00  0.00     0.028 A 
HETATM   38  C   UNL     1       9.494  31.238  59.535  1.00  0.00     0.028 A 
ENDBRANCH   6  36
TORSDOF 7
ENDMDL
