MODEL 1
REMARK VINA RESULT:      -9.0      0.000      0.000
REMARK  6 active torsions:
REMARK  status: ('A' for Active; 'I' for Inactive)
REMARK    1  A    between atoms: C_2  and  N_3 
REMARK    2  A    between atoms: C_2  and  C_15 
REMARK    3  A    between atoms: C_5  and  C_6 
REMARK       I    between atoms: C_15  and  N_16 
REMARK    4  A    between atoms: N_16  and  C_17 
REMARK    5  A    between atoms: C_20  and  O_21 
REMARK    6  A    between atoms: O_21  and  C_22 
ROOT
HETATM    1  C   UNL     1       7.861  26.397  57.067  1.00  0.00     0.253 C 
HETATM    2  N   UNL     1       8.050  27.642  56.495  1.00  0.00    -0.325 N 
HETATM    3  O   UNL     1       7.934  26.153  58.270  1.00  0.00    -0.271 OA
HETATM    4  H   UNL     1       8.079  27.726  55.486  1.00  0.00     0.169 HD
ENDROOT
BRANCH   1   5
HETATM    5  C   UNL     1       7.363  25.264  56.128  1.00  0.00     0.276 C 
HETATM    6  C   UNL     1       8.202  23.991  56.082  1.00  0.00     0.050 C 
BRANCH   5   7
HETATM    7  N   UNL     1       7.118  25.750  54.683  1.00  0.00    -0.049 N 
HETATM    8  H   UNL     1       7.488  26.705  54.633  1.00  0.00     0.281 HD
HETATM    9  C   UNL     1       5.663  25.818  54.248  1.00  0.00     0.238 C 
HETATM   10  C   UNL     1       5.497  24.615  53.330  1.00  0.00     0.041 C 
HETATM   11  C   UNL     1       6.823  24.517  52.606  1.00  0.00     0.030 C 
HETATM   12  C   UNL     1       7.861  24.930  53.632  1.00  0.00     0.237 C 
BRANCH   9  13
HETATM   13  C   UNL     1       5.367  27.119  53.555  1.00  0.00     0.042 A 
HETATM   14  N   UNL     1       4.831  28.216  54.209  1.00  0.00    -0.363 N 
HETATM   15  C   UNL     1       4.441  28.303  55.603  1.00  0.00     0.155 C 
HETATM   16  C   UNL     1       4.667  29.249  53.322  1.00  0.00     0.090 A 
HETATM   17  C   UNL     1       5.073  28.823  52.081  1.00  0.00     0.019 A 
HETATM   18  C   UNL     1       5.502  27.487  52.221  1.00  0.00     0.028 A 
ENDBRANCH   9  13
ENDBRANCH   5   7
ENDBRANCH   1   5
BRANCH   2  19
HETATM   19  C   UNL     1       8.298  28.857  57.181  1.00  0.00     0.035 A 
HETATM   20  C   UNL     1       9.569  29.399  57.381  1.00  0.00     0.032 A 
HETATM   21  C   UNL     1       9.729  30.586  58.104  1.00  0.00     0.039 A 
HETATM   22  C   UNL     1       8.624  31.250  58.627  1.00  0.00     0.076 A 
HETATM   23  C   UNL     1       7.350  30.713  58.444  1.00  0.00     0.039 A 
HETATM   24  C   UNL     1       7.189  29.528  57.715  1.00  0.00     0.032 A 
BRANCH  22  25
HETATM   25  O   UNL     1       8.893  32.370  59.378  1.00  0.00    -0.311 OA
BRANCH  25  26
HETATM   26  C   UNL     1       8.447  32.411  60.676  1.00  0.00     0.076 A 
HETATM   27  C   UNL     1       7.355  33.237  60.945  1.00  0.00     0.037 A 
HETATM   28  C   UNL     1       6.822  33.285  62.233  1.00  0.00     0.003 A 
HETATM   29  C   UNL     1       7.371  32.496  63.244  1.00  0.00     0.000 A 
HETATM   30  C   UNL     1       8.447  31.651  62.967  1.00  0.00     0.003 A 
HETATM   31  C   UNL     1       8.982  31.599  61.679  1.00  0.00     0.037 A 
ENDBRANCH  25  26
ENDBRANCH  22  25
ENDBRANCH   2  19
TORSDOF 6
ENDMDL
MODEL 2
REMARK VINA RESULT:      -9.0      2.651      9.213
REMARK  6 active torsions:
REMARK  status: ('A' for Active; 'I' for Inactive)
REMARK    1  A    between atoms: C_2  and  N_3 
REMARK    2  A    between atoms: C_2  and  C_15 
REMARK    3  A    between atoms: C_5  and  C_6 
REMARK       I    between atoms: C_15  and  N_16 
REMARK    4  A    between atoms: N_16  and  C_17 
REMARK    5  A    between atoms: C_20  and  O_21 
REMARK    6  A    between atoms: O_21  and  C_22 
ROOT
HETATM    1  C   UNL     1       7.585  29.326  57.680  1.00  0.00     0.253 C 
HETATM    2  N   UNL     1       8.375  28.316  57.163  1.00  0.00    -0.325 N 
HETATM    3  O   UNL     1       6.359  29.287  57.775  1.00  0.00    -0.271 OA
HETATM    4  H   UNL     1       9.365  28.481  57.024  1.00  0.00     0.169 HD
ENDROOT
BRANCH   1   5
HETATM    5  C   UNL     1       8.323  30.527  58.333  1.00  0.00     0.276 C 
HETATM    6  C   UNL     1       9.848  30.483  58.325  1.00  0.00     0.050 C 
BRANCH   5   7
HETATM    7  N   UNL     1       7.841  30.815  59.771  1.00  0.00    -0.049 N 
HETATM    8  H   UNL     1       7.015  30.224  59.922  1.00  0.00     0.281 HD
HETATM    9  C   UNL     1       7.414  32.246  60.051  1.00  0.00     0.238 C 
HETATM   10  C   UNL     1       8.565  32.820  60.866  1.00  0.00     0.041 C 
HETATM   11  C   UNL     1       9.027  31.659  61.720  1.00  0.00     0.030 C 
HETATM   12  C   UNL     1       8.861  30.434  60.841  1.00  0.00     0.237 C 
BRANCH   9  13
HETATM   13  C   UNL     1       6.106  32.286  60.790  1.00  0.00     0.042 A 
HETATM   14  N   UNL     1       4.878  32.245  60.151  1.00  0.00    -0.363 N 
HETATM   15  C   UNL     1       4.633  32.196  58.723  1.00  0.00     0.155 C 
HETATM   16  C   UNL     1       3.871  32.303  61.080  1.00  0.00     0.090 A 
HETATM   17  C   UNL     1       4.436  32.405  62.327  1.00  0.00     0.019 A 
HETATM   18  C   UNL     1       5.836  32.405  62.149  1.00  0.00     0.028 A 
ENDBRANCH   9  13
ENDBRANCH   5   7
ENDBRANCH   1   5
BRANCH   2  19
HETATM   19  C   UNL     1       7.935  27.047  56.712  1.00  0.00     0.035 A 
HETATM   20  C   UNL     1       7.080  26.855  55.624  1.00  0.00     0.032 A 
HETATM   21  C   UNL     1       6.662  25.568  55.267  1.00  0.00     0.039 A 
HETATM   22  C   UNL     1       7.100  24.460  55.984  1.00  0.00     0.076 A 
HETATM   23  C   UNL     1       7.944  24.638  57.079  1.00  0.00     0.039 A 
HETATM   24  C   UNL     1       8.367  25.926  57.433  1.00  0.00     0.032 A 
BRANCH  22  25
HETATM   25  O   UNL     1       6.579  23.247  55.596  1.00  0.00    -0.311 OA
BRANCH  25  26
HETATM   26  C   UNL     1       7.373  22.396  54.868  1.00  0.00     0.076 A 
HETATM   27  C   UNL     1       7.774  21.213  55.493  1.00  0.00     0.037 A 
HETATM   28  C   UNL     1       8.538  20.282  54.791  1.00  0.00     0.003 A 
HETATM   29  C   UNL     1       8.886  20.527  53.462  1.00  0.00     0.000 A 
HETATM   30  C   UNL     1       8.463  21.698  52.831  1.00  0.00     0.003 A 
HETATM   31  C   UNL     1       7.697  22.631  53.530  1.00  0.00     0.037 A 
ENDBRANCH  25  26
ENDBRANCH  22  25
ENDBRANCH   2  19
TORSDOF 6
ENDMDL
MODEL 3
REMARK VINA RESULT:      -8.8      2.734      9.272
REMARK  6 active torsions:
REMARK  status: ('A' for Active; 'I' for Inactive)
REMARK    1  A    between atoms: C_2  and  N_3 
REMARK    2  A    between atoms: C_2  and  C_15 
REMARK    3  A    between atoms: C_5  and  C_6 
REMARK       I    between atoms: C_15  and  N_16 
REMARK    4  A    between atoms: N_16  and  C_17 
REMARK    5  A    between atoms: C_20  and  O_21 
REMARK    6  A    between atoms: O_21  and  C_22 
ROOT
HETATM    1  C   UNL     1       6.562  29.618  57.230  1.00  0.00     0.253 C 
HETATM    2  N   UNL     1       6.328  28.282  57.495  1.00  0.00    -0.325 N 
HETATM    3  O   UNL     1       6.980  30.065  56.163  1.00  0.00    -0.271 OA
HETATM    4  H   UNL     1       6.090  27.996  58.437  1.00  0.00     0.169 HD
ENDROOT
BRANCH   1   5
HETATM    5  C   UNL     1       6.109  30.636  58.313  1.00  0.00     0.276 C 
HETATM    6  C   UNL     1       5.780  32.047  57.834  1.00  0.00     0.050 C 
BRANCH   5   7
HETATM    7  N   UNL     1       7.096  30.730  59.496  1.00  0.00    -0.049 N 
HETATM    8  H   UNL     1       6.615  30.320  60.305  1.00  0.00     0.281 HD
HETATM    9  C   UNL     1       7.514  32.135  59.898  1.00  0.00     0.238 C 
HETATM   10  C   UNL     1       8.934  32.263  59.365  1.00  0.00     0.041 C 
HETATM   11  C   UNL     1       9.523  30.881  59.550  1.00  0.00     0.030 C 
HETATM   12  C   UNL     1       8.375  29.925  59.285  1.00  0.00     0.237 C 
BRANCH   9  13
HETATM   13  C   UNL     1       7.437  32.316  61.388  1.00  0.00     0.042 A 
HETATM   14  N   UNL     1       6.253  32.581  62.056  1.00  0.00    -0.363 N 
HETATM   15  C   UNL     1       4.938  32.761  61.471  1.00  0.00     0.155 C 
HETATM   16  C   UNL     1       6.495  32.701  63.399  1.00  0.00     0.090 A 
HETATM   17  C   UNL     1       7.841  32.538  63.613  1.00  0.00     0.019 A 
HETATM   18  C   UNL     1       8.436  32.306  62.355  1.00  0.00     0.028 A 
ENDBRANCH   9  13
ENDBRANCH   5   7
ENDBRANCH   1   5
BRANCH   2  19
HETATM   19  C   UNL     1       6.465  27.204  56.586  1.00  0.00     0.035 A 
HETATM   20  C   UNL     1       7.606  26.968  55.814  1.00  0.00     0.032 A 
HETATM   21  C   UNL     1       7.644  25.902  54.910  1.00  0.00     0.039 A 
HETATM   22  C   UNL     1       6.549  25.054  54.771  1.00  0.00     0.076 A 
HETATM   23  C   UNL     1       5.400  25.285  55.526  1.00  0.00     0.039 A 
HETATM   24  C   UNL     1       5.364  26.349  56.436  1.00  0.00     0.032 A 
BRANCH  22  25
HETATM   25  O   UNL     1       6.661  24.078  53.809  1.00  0.00    -0.311 OA
BRANCH  25  26
HETATM   26  C   UNL     1       7.279  22.897  54.141  1.00  0.00     0.076 A 
HETATM   27  C   UNL     1       7.814  22.145  53.094  1.00  0.00     0.037 A 
HETATM   28  C   UNL     1       8.499  20.962  53.368  1.00  0.00     0.003 A 
HETATM   29  C   UNL     1       8.660  20.541  54.688  1.00  0.00     0.000 A 
HETATM   30  C   UNL     1       8.147  21.306  55.736  1.00  0.00     0.003 A 
HETATM   31  C   UNL     1       7.462  22.492  55.465  1.00  0.00     0.037 A 
ENDBRANCH  25  26
ENDBRANCH  22  25
ENDBRANCH   2  19
TORSDOF 6
ENDMDL
MODEL 4
REMARK VINA RESULT:      -8.7      6.706      8.846
REMARK  6 active torsions:
REMARK  status: ('A' for Active; 'I' for Inactive)
REMARK    1  A    between atoms: C_2  and  N_3 
REMARK    2  A    between atoms: C_2  and  C_15 
REMARK    3  A    between atoms: C_5  and  C_6 
REMARK       I    between atoms: C_15  and  N_16 
REMARK    4  A    between atoms: N_16  and  C_17 
REMARK    5  A    between atoms: C_20  and  O_21 
REMARK    6  A    between atoms: O_21  and  C_22 
ROOT
HETATM    1  C   UNL     1       4.711  26.876  50.115  1.00  0.00     0.253 C 
HETATM    2  N   UNL     1       4.683  25.752  50.920  1.00  0.00    -0.325 N 
HETATM    3  O   UNL     1       5.573  27.753  50.154  1.00  0.00    -0.271 OA
HETATM    4  H   UNL     1       3.876  25.142  50.893  1.00  0.00     0.169 HD
ENDROOT
BRANCH   1   5
HETATM    5  C   UNL     1       3.660  26.945  48.973  1.00  0.00     0.276 C 
HETATM    6  C   UNL     1       3.844  25.976  47.810  1.00  0.00     0.050 C 
BRANCH   5   7
HETATM    7  N   UNL     1       3.483  28.371  48.409  1.00  0.00    -0.049 N 
HETATM    8  H   UNL     1       4.424  28.711  48.185  1.00  0.00     0.281 HD
HETATM    9  C   UNL     1       2.864  29.384  49.358  1.00  0.00     0.238 C 
HETATM   10  C   UNL     1       1.442  29.552  48.841  1.00  0.00     0.041 C 
HETATM   11  C   UNL     1       1.582  29.446  47.338  1.00  0.00     0.030 C 
HETATM   12  C   UNL     1       2.674  28.417  47.116  1.00  0.00     0.237 C 
BRANCH   9  13
HETATM   13  C   UNL     1       3.637  30.673  49.352  1.00  0.00     0.042 A 
HETATM   14  N   UNL     1       3.475  31.656  50.315  1.00  0.00    -0.363 N 
HETATM   15  C   UNL     1       2.550  31.644  51.432  1.00  0.00     0.155 C 
HETATM   16  C   UNL     1       4.306  32.712  50.044  1.00  0.00     0.090 A 
HETATM   17  C   UNL     1       4.998  32.435  48.891  1.00  0.00     0.019 A 
HETATM   18  C   UNL     1       4.575  31.163  48.449  1.00  0.00     0.028 A 
ENDBRANCH   9  13
ENDBRANCH   5   7
ENDBRANCH   1   5
BRANCH   2  19
HETATM   19  C   UNL     1       5.656  25.376  51.879  1.00  0.00     0.035 A 
HETATM   20  C   UNL     1       7.023  25.270  51.609  1.00  0.00     0.032 A 
HETATM   21  C   UNL     1       7.913  24.853  52.605  1.00  0.00     0.039 A 
HETATM   22  C   UNL     1       7.452  24.548  53.882  1.00  0.00     0.076 A 
HETATM   23  C   UNL     1       6.089  24.638  54.160  1.00  0.00     0.039 A 
HETATM   24  C   UNL     1       5.198  25.061  53.166  1.00  0.00     0.032 A 
BRANCH  22  25
HETATM   25  O   UNL     1       8.396  24.084  54.768  1.00  0.00    -0.311 OA
BRANCH  25  26
HETATM   26  C   UNL     1       8.398  22.747  55.084  1.00  0.00     0.076 A 
HETATM   27  C   UNL     1       8.420  22.418  56.440  1.00  0.00     0.037 A 
HETATM   28  C   UNL     1       8.371  21.079  56.830  1.00  0.00     0.003 A 
HETATM   29  C   UNL     1       8.285  20.076  55.864  1.00  0.00     0.000 A 
HETATM   30  C   UNL     1       8.237  20.409  54.509  1.00  0.00     0.003 A 
HETATM   31  C   UNL     1       8.284  21.747  54.116  1.00  0.00     0.037 A 
ENDBRANCH  25  26
ENDBRANCH  22  25
ENDBRANCH   2  19
TORSDOF 6
ENDMDL
MODEL 5
REMARK VINA RESULT:      -8.6      1.415      3.504
REMARK  6 active torsions:
REMARK  status: ('A' for Active; 'I' for Inactive)
REMARK    1  A    between atoms: C_2  and  N_3 
REMARK    2  A    between atoms: C_2  and  C_15 
REMARK    3  A    between atoms: C_5  and  C_6 
REMARK       I    between atoms: C_15  and  N_16 
REMARK    4  A    between atoms: N_16  and  C_17 
REMARK    5  A    between atoms: C_20  and  O_21 
REMARK    6  A    between atoms: O_21  and  C_22 
ROOT
HETATM    1  C   UNL     1       6.806  27.508  55.529  1.00  0.00     0.253 C 
HETATM    2  N   UNL     1       7.818  28.433  55.354  1.00  0.00    -0.325 N 
HETATM    3  O   UNL     1       6.275  27.235  56.605  1.00  0.00    -0.271 OA
HETATM    4  H   UNL     1       8.269  28.512  54.451  1.00  0.00     0.169 HD
ENDROOT
BRANCH   1   5
HETATM    5  C   UNL     1       6.191  26.891  54.243  1.00  0.00     0.276 C 
HETATM    6  C   UNL     1       4.733  27.227  53.949  1.00  0.00     0.050 C 
BRANCH   5   7
HETATM    7  N   UNL     1       6.373  25.360  54.168  1.00  0.00    -0.049 N 
HETATM    8  H   UNL     1       5.892  24.972  54.987  1.00  0.00     0.281 HD
HETATM    9  C   UNL     1       7.809  24.863  54.224  1.00  0.00     0.238 C 
HETATM   10  C   UNL     1       8.114  24.458  52.789  1.00  0.00     0.041 C 
HETATM   11  C   UNL     1       6.807  23.888  52.280  1.00  0.00     0.030 C 
HETATM   12  C   UNL     1       5.730  24.732  52.935  1.00  0.00     0.237 C 
BRANCH   9  13
HETATM   13  C   UNL     1       7.946  23.719  55.189  1.00  0.00     0.042 A 
HETATM   14  N   UNL     1       8.349  23.885  56.504  1.00  0.00    -0.363 N 
HETATM   15  C   UNL     1       8.729  25.124  57.154  1.00  0.00     0.155 C 
HETATM   16  C   UNL     1       8.387  22.668  57.134  1.00  0.00     0.090 A 
HETATM   17  C   UNL     1       8.032  21.699  56.228  1.00  0.00     0.019 A 
HETATM   18  C   UNL     1       7.765  22.352  55.006  1.00  0.00     0.028 A 
ENDBRANCH   9  13
ENDBRANCH   5   7
ENDBRANCH   1   5
BRANCH   2  19
HETATM   19  C   UNL     1       8.381  29.268  56.352  1.00  0.00     0.035 A 
HETATM   20  C   UNL     1       9.747  29.334  56.640  1.00  0.00     0.032 A 
HETATM   21  C   UNL     1      10.216  30.157  57.669  1.00  0.00     0.039 A 
HETATM   22  C   UNL     1       9.332  30.930  58.415  1.00  0.00     0.076 A 
HETATM   23  C   UNL     1       7.966  30.864  58.145  1.00  0.00     0.039 A 
HETATM   24  C   UNL     1       7.495  30.044  57.111  1.00  0.00     0.032 A 
BRANCH  22  25
HETATM   25  O   UNL     1       9.885  31.652  59.446  1.00  0.00    -0.311 OA
BRANCH  25  26
HETATM   26  C   UNL     1       9.264  31.627  60.671  1.00  0.00     0.076 A 
HETATM   27  C   UNL     1       8.471  32.727  61.002  1.00  0.00     0.037 A 
HETATM   28  C   UNL     1       7.772  32.740  62.209  1.00  0.00     0.003 A 
HETATM   29  C   UNL     1       7.856  31.649  63.074  1.00  0.00     0.000 A 
HETATM   30  C   UNL     1       8.630  30.540  62.730  1.00  0.00     0.003 A 
HETATM   31  C   UNL     1       9.329  30.522  61.522  1.00  0.00     0.037 A 
ENDBRANCH  25  26
ENDBRANCH  22  25
ENDBRANCH   2  19
TORSDOF 6
ENDMDL
MODEL 6
REMARK VINA RESULT:      -8.6      2.606      8.736
REMARK  6 active torsions:
REMARK  status: ('A' for Active; 'I' for Inactive)
REMARK    1  A    between atoms: C_2  and  N_3 
REMARK    2  A    between atoms: C_2  and  C_15 
REMARK    3  A    between atoms: C_5  and  C_6 
REMARK       I    between atoms: C_15  and  N_16 
REMARK    4  A    between atoms: N_16  and  C_17 
REMARK    5  A    between atoms: C_20  and  O_21 
REMARK    6  A    between atoms: O_21  and  C_22 
ROOT
HETATM    1  C   UNL     1       8.539  30.381  59.117  1.00  0.00     0.253 C 
HETATM    2  N   UNL     1       7.590  29.379  59.031  1.00  0.00    -0.325 N 
HETATM    3  O   UNL     1       9.174  30.836  58.167  1.00  0.00    -0.271 OA
HETATM    4  H   UNL     1       7.197  28.992  59.881  1.00  0.00     0.169 HD
ENDROOT
BRANCH   1   5
HETATM    5  C   UNL     1       8.690  31.085  60.493  1.00  0.00     0.276 C 
HETATM    6  C   UNL     1       9.585  30.400  61.521  1.00  0.00     0.050 C 
BRANCH   5   7
HETATM    7  N   UNL     1       7.332  31.408  61.152  1.00  0.00    -0.049 N 
HETATM    8  H   UNL     1       6.662  30.726  60.780  1.00  0.00     0.281 HD
HETATM    9  C   UNL     1       6.767  32.787  60.858  1.00  0.00     0.238 C 
HETATM   10  C   UNL     1       7.000  33.563  62.147  1.00  0.00     0.041 C 
HETATM   11  C   UNL     1       6.792  32.535  63.239  1.00  0.00     0.030 C 
HETATM   12  C   UNL     1       7.339  31.240  62.669  1.00  0.00     0.237 C 
BRANCH   9  13
HETATM   13  C   UNL     1       5.312  32.707  60.487  1.00  0.00     0.042 A 
HETATM   14  N   UNL     1       4.875  32.523  59.186  1.00  0.00    -0.363 N 
HETATM   15  C   UNL     1       5.692  32.416  57.993  1.00  0.00     0.155 C 
HETATM   16  C   UNL     1       3.504  32.497  59.158  1.00  0.00     0.090 A 
HETATM   17  C   UNL     1       3.040  32.686  60.436  1.00  0.00     0.019 A 
HETATM   18  C   UNL     1       4.169  32.828  61.270  1.00  0.00     0.028 A 
ENDBRANCH   9  13
ENDBRANCH   5   7
ENDBRANCH   1   5
BRANCH   2  19
HETATM   19  C   UNL     1       7.135  28.745  57.848  1.00  0.00     0.035 A 
HETATM   20  C   UNL     1       5.855  28.907  57.313  1.00  0.00     0.032 A 
HETATM   21  C   UNL     1       5.474  28.213  56.160  1.00  0.00     0.039 A 
HETATM   22  C   UNL     1       6.366  27.357  55.523  1.00  0.00     0.076 A 
HETATM   23  C   UNL     1       7.643  27.177  56.053  1.00  0.00     0.039 A 
HETATM   24  C   UNL     1       8.028  27.876  57.204  1.00  0.00     0.032 A 
BRANCH  22  25
HETATM   25  O   UNL     1       5.873  26.671  54.438  1.00  0.00    -0.311 OA
BRANCH  25  26
HETATM   26  C   UNL     1       6.626  25.650  53.911  1.00  0.00     0.076 A 
HETATM   27  C   UNL     1       6.531  24.406  54.536  1.00  0.00     0.037 A 
HETATM   28  C   UNL     1       7.230  23.315  54.019  1.00  0.00     0.003 A 
HETATM   29  C   UNL     1       8.007  23.466  52.871  1.00  0.00     0.000 A 
HETATM   30  C   UNL     1       8.080  24.705  52.232  1.00  0.00     0.003 A 
HETATM   31  C   UNL     1       7.381  25.799  52.745  1.00  0.00     0.037 A 
ENDBRANCH  25  26
ENDBRANCH  22  25
ENDBRANCH   2  19
TORSDOF 6
ENDMDL
MODEL 7
REMARK VINA RESULT:      -8.5      2.816      9.067
REMARK  6 active torsions:
REMARK  status: ('A' for Active; 'I' for Inactive)
REMARK    1  A    between atoms: C_2  and  N_3 
REMARK    2  A    between atoms: C_2  and  C_15 
REMARK    3  A    between atoms: C_5  and  C_6 
REMARK       I    between atoms: C_15  and  N_16 
REMARK    4  A    between atoms: N_16  and  C_17 
REMARK    5  A    between atoms: C_20  and  O_21 
REMARK    6  A    between atoms: O_21  and  C_22 
ROOT
HETATM    1  C   UNL     1       7.792  30.299  58.972  1.00  0.00     0.253 C 
HETATM    2  N   UNL     1       6.715  30.324  58.105  1.00  0.00    -0.325 N 
HETATM    3  O   UNL     1       8.632  29.403  59.032  1.00  0.00    -0.271 OA
HETATM    4  H   UNL     1       6.015  31.048  58.202  1.00  0.00     0.169 HD
ENDROOT
BRANCH   1   5
HETATM    5  C   UNL     1       8.039  31.580  59.816  1.00  0.00     0.276 C 
HETATM    6  C   UNL     1       9.459  31.801  60.330  1.00  0.00     0.050 C 
BRANCH   5   7
HETATM    7  N   UNL     1       7.056  31.716  60.998  1.00  0.00    -0.049 N 
HETATM    8  H   UNL     1       6.207  31.208  60.726  1.00  0.00     0.281 HD
HETATM    9  C   UNL     1       6.629  33.134  61.342  1.00  0.00     0.238 C 
HETATM   10  C   UNL     1       7.405  33.452  62.613  1.00  0.00     0.041 C 
HETATM   11  C   UNL     1       7.441  32.138  63.363  1.00  0.00     0.030 C 
HETATM   12  C   UNL     1       7.563  31.075  62.287  1.00  0.00     0.237 C 
BRANCH   9  13
HETATM   13  C   UNL     1       5.141  33.218  61.536  1.00  0.00     0.042 A 
HETATM   14  N   UNL     1       4.245  33.271  60.482  1.00  0.00    -0.363 N 
HETATM   15  C   UNL     1       4.556  33.291  59.066  1.00  0.00     0.155 C 
HETATM   16  C   UNL     1       2.964  33.349  60.966  1.00  0.00     0.090 A 
HETATM   17  C   UNL     1       3.020  33.371  62.338  1.00  0.00     0.019 A 
HETATM   18  C   UNL     1       4.382  33.300  62.699  1.00  0.00     0.028 A 
ENDBRANCH   9  13
ENDBRANCH   5   7
ENDBRANCH   1   5
BRANCH   2  19
HETATM   19  C   UNL     1       6.418  29.368  57.101  1.00  0.00     0.035 A 
HETATM   20  C   UNL     1       7.106  29.263  55.889  1.00  0.00     0.032 A 
HETATM   21  C   UNL     1       6.722  28.316  54.935  1.00  0.00     0.039 A 
HETATM   22  C   UNL     1       5.656  27.457  55.180  1.00  0.00     0.076 A 
HETATM   23  C   UNL     1       4.953  27.559  56.380  1.00  0.00     0.039 A 
HETATM   24  C   UNL     1       5.340  28.504  57.339  1.00  0.00     0.032 A 
BRANCH  22  25
HETATM   25  O   UNL     1       5.316  26.609  54.153  1.00  0.00    -0.311 OA
BRANCH  25  26
HETATM   26  C   UNL     1       6.237  25.679  53.738  1.00  0.00     0.076 A 
HETATM   27  C   UNL     1       6.493  24.612  54.601  1.00  0.00     0.037 A 
HETATM   28  C   UNL     1       7.381  23.607  54.217  1.00  0.00     0.003 A 
HETATM   29  C   UNL     1       7.996  23.662  52.966  1.00  0.00     0.000 A 
HETATM   30  C   UNL     1       7.720  24.716  52.094  1.00  0.00     0.003 A 
HETATM   31  C   UNL     1       6.832  25.723  52.474  1.00  0.00     0.037 A 
ENDBRANCH  25  26
ENDBRANCH  22  25
ENDBRANCH   2  19
TORSDOF 6
ENDMDL
MODEL 8
REMARK VINA RESULT:      -8.5      2.981      8.942
REMARK  6 active torsions:
REMARK  status: ('A' for Active; 'I' for Inactive)
REMARK    1  A    between atoms: C_2  and  N_3 
REMARK    2  A    between atoms: C_2  and  C_15 
REMARK    3  A    between atoms: C_5  and  C_6 
REMARK       I    between atoms: C_15  and  N_16 
REMARK    4  A    between atoms: N_16  and  C_17 
REMARK    5  A    between atoms: C_20  and  O_21 
REMARK    6  A    between atoms: O_21  and  C_22 
ROOT
HETATM    1  C   UNL     1       4.923  29.456  56.561  1.00  0.00     0.253 C 
HETATM    2  N   UNL     1       5.343  28.545  57.512  1.00  0.00    -0.325 N 
HETATM    3  O   UNL     1       5.056  29.323  55.346  1.00  0.00    -0.271 OA
HETATM    4  H   UNL     1       5.290  28.789  58.493  1.00  0.00     0.169 HD
ENDROOT
BRANCH   1   5
HETATM    5  C   UNL     1       4.079  30.658  57.070  1.00  0.00     0.276 C 
HETATM    6  C   UNL     1       3.083  31.263  56.085  1.00  0.00     0.050 C 
BRANCH   5   7
HETATM    7  N   UNL     1       4.947  31.791  57.659  1.00  0.00    -0.049 N 
HETATM    8  H   UNL     1       5.922  31.485  57.567  1.00  0.00     0.281 HD
HETATM    9  C   UNL     1       4.719  32.101  59.129  1.00  0.00     0.238 C 
HETATM   10  C   UNL     1       3.931  33.403  59.113  1.00  0.00     0.041 C 
HETATM   11  C   UNL     1       4.505  34.167  57.938  1.00  0.00     0.030 C 
HETATM   12  C   UNL     1       4.822  33.109  56.899  1.00  0.00     0.237 C 
BRANCH   9  13
HETATM   13  C   UNL     1       6.024  32.224  59.864  1.00  0.00     0.042 A 
HETATM   14  N   UNL     1       6.104  32.440  61.229  1.00  0.00    -0.363 N 
HETATM   15  C   UNL     1       5.002  32.617  62.155  1.00  0.00     0.155 C 
HETATM   16  C   UNL     1       7.419  32.514  61.611  1.00  0.00     0.090 A 
HETATM   17  C   UNL     1       8.203  32.369  60.494  1.00  0.00     0.019 A 
HETATM   18  C   UNL     1       7.334  32.197  59.396  1.00  0.00     0.028 A 
ENDBRANCH   9  13
ENDBRANCH   5   7
ENDBRANCH   1   5
BRANCH   2  19
HETATM   19  C   UNL     1       5.938  27.282  57.266  1.00  0.00     0.035 A 
HETATM   20  C   UNL     1       5.229  26.143  56.877  1.00  0.00     0.032 A 
HETATM   21  C   UNL     1       5.890  24.924  56.693  1.00  0.00     0.039 A 
HETATM   22  C   UNL     1       7.265  24.830  56.883  1.00  0.00     0.076 A 
HETATM   23  C   UNL     1       7.983  25.956  57.282  1.00  0.00     0.039 A 
HETATM   24  C   UNL     1       7.323  27.179  57.462  1.00  0.00     0.032 A 
BRANCH  22  25
HETATM   25  O   UNL     1       7.809  23.574  56.742  1.00  0.00    -0.311 OA
BRANCH  25  26
HETATM   26  C   UNL     1       7.897  23.036  55.482  1.00  0.00     0.076 A 
HETATM   27  C   UNL     1       7.775  21.649  55.376  1.00  0.00     0.037 A 
HETATM   28  C   UNL     1       7.805  21.045  54.119  1.00  0.00     0.003 A 
HETATM   29  C   UNL     1       7.939  21.827  52.973  1.00  0.00     0.000 A 
HETATM   30  C   UNL     1       8.035  23.216  53.079  1.00  0.00     0.003 A 
HETATM   31  C   UNL     1       8.004  23.825  54.334  1.00  0.00     0.037 A 
ENDBRANCH  25  26
ENDBRANCH  22  25
ENDBRANCH   2  19
TORSDOF 6
ENDMDL
MODEL 9
REMARK VINA RESULT:      -8.4      6.713      9.243
REMARK  6 active torsions:
REMARK  status: ('A' for Active; 'I' for Inactive)
REMARK    1  A    between atoms: C_2  and  N_3 
REMARK    2  A    between atoms: C_2  and  C_15 
REMARK    3  A    between atoms: C_5  and  C_6 
REMARK       I    between atoms: C_15  and  N_16 
REMARK    4  A    between atoms: N_16  and  C_17 
REMARK    5  A    between atoms: C_20  and  O_21 
REMARK    6  A    between atoms: O_21  and  C_22 
ROOT
HETATM    1  C   UNL     1       4.715  26.727  50.011  1.00  0.00     0.253 C 
HETATM    2  N   UNL     1       4.640  25.685  50.916  1.00  0.00    -0.325 N 
HETATM    3  O   UNL     1       5.627  27.551  49.955  1.00  0.00    -0.271 OA
HETATM    4  H   UNL     1       3.798  25.123  50.959  1.00  0.00     0.169 HD
ENDROOT
BRANCH   1   5
HETATM    5  C   UNL     1       3.645  26.754  48.885  1.00  0.00     0.276 C 
HETATM    6  C   UNL     1       4.127  26.440  47.472  1.00  0.00     0.050 C 
BRANCH   5   7
HETATM    7  N   UNL     1       2.842  28.072  48.855  1.00  0.00    -0.049 N 
HETATM    8  H   UNL     1       1.852  27.805  48.817  1.00  0.00     0.281 HD
HETATM    9  C   UNL     1       3.100  28.975  47.660  1.00  0.00     0.238 C 
HETATM   10  C   UNL     1       3.953  30.101  48.227  1.00  0.00     0.041 C 
HETATM   11  C   UNL     1       3.406  30.310  49.624  1.00  0.00     0.030 C 
HETATM   12  C   UNL     1       3.026  28.924  50.108  1.00  0.00     0.237 C 
BRANCH   9  13
HETATM   13  C   UNL     1       1.810  29.469  47.067  1.00  0.00     0.042 A 
HETATM   14  N   UNL     1       0.823  28.620  46.595  1.00  0.00    -0.363 N 
HETATM   15  C   UNL     1       0.861  27.171  46.551  1.00  0.00     0.155 C 
HETATM   16  C   UNL     1      -0.227  29.355  46.110  1.00  0.00     0.090 A 
HETATM   17  C   UNL     1       0.078  30.687  46.243  1.00  0.00     0.019 A 
HETATM   18  C   UNL     1       1.357  30.763  46.832  1.00  0.00     0.028 A 
ENDBRANCH   9  13
ENDBRANCH   5   7
ENDBRANCH   1   5
BRANCH   2  19
HETATM   19  C   UNL     1       5.610  25.340  51.890  1.00  0.00     0.035 A 
HETATM   20  C   UNL     1       6.983  25.273  51.640  1.00  0.00     0.032 A 
HETATM   21  C   UNL     1       7.871  24.886  52.649  1.00  0.00     0.039 A 
HETATM   22  C   UNL     1       7.402  24.571  53.920  1.00  0.00     0.076 A 
HETATM   23  C   UNL     1       6.033  24.623  54.180  1.00  0.00     0.039 A 
HETATM   24  C   UNL     1       5.144  25.016  53.172  1.00  0.00     0.032 A 
BRANCH  22  25
HETATM   25  O   UNL     1       8.347  24.138  54.821  1.00  0.00    -0.311 OA
BRANCH  25  26
HETATM   26  C   UNL     1       8.330  22.820  55.206  1.00  0.00     0.076 A 
HETATM   27  C   UNL     1       8.371  21.863  54.191  1.00  0.00     0.037 A 
HETATM   28  C   UNL     1       8.409  20.508  54.516  1.00  0.00     0.003 A 
HETATM   29  C   UNL     1       8.421  20.113  55.854  1.00  0.00     0.000 A 
HETATM   30  C   UNL     1       8.405  21.072  56.868  1.00  0.00     0.003 A 
HETATM   31  C   UNL     1       8.369  22.429  56.547  1.00  0.00     0.037 A 
ENDBRANCH  25  26
ENDBRANCH  22  25
ENDBRANCH   2  19
TORSDOF 6
ENDMDL
MODEL 10
REMARK VINA RESULT:      -8.1      2.710      5.347
REMARK  6 active torsions:
REMARK  status: ('A' for Active; 'I' for Inactive)
REMARK    1  A    between atoms: C_2  and  N_3 
REMARK    2  A    between atoms: C_2  and  C_15 
REMARK    3  A    between atoms: C_5  and  C_6 
REMARK       I    between atoms: C_15  and  N_16 
REMARK    4  A    between atoms: N_16  and  C_17 
REMARK    5  A    between atoms: C_20  and  O_21 
REMARK    6  A    between atoms: O_21  and  C_22 
ROOT
HETATM    1  C   UNL     1       7.972  30.702  59.125  1.00  0.00     0.253 C 
HETATM    2  N   UNL     1       7.618  30.569  60.454  1.00  0.00    -0.325 N 
HETATM    3  O   UNL     1       8.061  31.770  58.520  1.00  0.00    -0.271 OA
HETATM    4  H   UNL     1       7.463  29.644  60.837  1.00  0.00     0.169 HD
ENDROOT
BRANCH   1   5
HETATM    5  C   UNL     1       8.444  29.416  58.393  1.00  0.00     0.276 C 
HETATM    6  C   UNL     1       9.585  29.574  57.393  1.00  0.00     0.050 C 
BRANCH   5   7
HETATM    7  N   UNL     1       7.287  28.656  57.711  1.00  0.00    -0.049 N 
HETATM    8  H   UNL     1       7.125  27.813  58.272  1.00  0.00     0.281 HD
HETATM    9  C   UNL     1       7.549  28.194  56.287  1.00  0.00     0.238 C 
HETATM   10  C   UNL     1       6.743  29.161  55.432  1.00  0.00     0.041 C 
HETATM   11  C   UNL     1       5.501  29.432  56.253  1.00  0.00     0.030 C 
HETATM   12  C   UNL     1       5.975  29.437  57.694  1.00  0.00     0.237 C 
BRANCH   9  13
HETATM   13  C   UNL     1       7.127  26.764  56.097  1.00  0.00     0.042 A 
HETATM   14  N   UNL     1       7.173  26.120  54.872  1.00  0.00    -0.363 N 
HETATM   15  C   UNL     1       7.581  26.683  53.600  1.00  0.00     0.155 C 
HETATM   16  C   UNL     1       6.722  24.832  55.008  1.00  0.00     0.090 A 
HETATM   17  C   UNL     1       6.357  24.636  56.317  1.00  0.00     0.019 A 
HETATM   18  C   UNL     1       6.600  25.847  57.001  1.00  0.00     0.028 A 
ENDBRANCH   9  13
ENDBRANCH   5   7
ENDBRANCH   1   5
BRANCH   2  19
HETATM   19  C   UNL     1       7.357  31.620  61.368  1.00  0.00     0.035 A 
HETATM   20  C   UNL     1       6.374  32.595  61.182  1.00  0.00     0.032 A 
HETATM   21  C   UNL     1       6.208  33.623  62.116  1.00  0.00     0.039 A 
HETATM   22  C   UNL     1       7.011  33.684  63.250  1.00  0.00     0.076 A 
HETATM   23  C   UNL     1       8.004  32.724  63.442  1.00  0.00     0.039 A 
HETATM   24  C   UNL     1       8.167  31.691  62.510  1.00  0.00     0.032 A 
BRANCH  22  25
HETATM   25  O   UNL     1       6.814  34.769  64.072  1.00  0.00    -0.311 OA
BRANCH  25  26
HETATM   26  C   UNL     1       5.694  34.794  64.867  1.00  0.00     0.076 A 
HETATM   27  C   UNL     1       5.686  33.948  65.977  1.00  0.00     0.037 A 
HETATM   28  C   UNL     1       4.602  33.962  66.853  1.00  0.00     0.003 A 
HETATM   29  C   UNL     1       3.536  34.833  66.627  1.00  0.00     0.000 A 
HETATM   30  C   UNL     1       3.557  35.698  65.531  1.00  0.00     0.003 A 
HETATM   31  C   UNL     1       4.641  35.687  64.653  1.00  0.00     0.037 A 
ENDBRANCH  25  26
ENDBRANCH  22  25
ENDBRANCH   2  19
TORSDOF 6
ENDMDL
