MODEL 1
REMARK VINA RESULT:      -9.4      0.000      0.000
REMARK  7 active torsions:
REMARK  status: ('A' for Active; 'I' for Inactive)
REMARK    1  A    between atoms: O_2  and  C_3 
REMARK    2  A    between atoms: C_5  and  C_6 
REMARK    3  A    between atoms: C_6  and  C_7 
REMARK       I    between atoms: C_7  and  N_8 
REMARK    4  A    between atoms: N_8  and  C_9 
REMARK    5  A    between atoms: C_9  and  C_10 
REMARK    6  A    between atoms: C_13  and  N_14 
REMARK       I    between atoms: N_14  and  C_15 
REMARK    7  A    between atoms: C_15  and  C_16 
ROOT
HETATM    1  C   UNL     1       7.768  28.990  55.914  1.00  0.00    -0.040 A 
HETATM    2  C   UNL     1       8.842  28.931  56.808  1.00  0.00     0.011 A 
HETATM    3  C   UNL     1       8.783  29.590  58.043  1.00  0.00     0.030 A 
HETATM    4  C   UNL     1       7.645  30.311  58.406  1.00  0.00     0.035 A 
HETATM    5  C   UNL     1       6.577  30.386  57.507  1.00  0.00     0.030 A 
HETATM    6  C   UNL     1       6.635  29.732  56.272  1.00  0.00     0.011 A 
ENDROOT
BRANCH   1   7
HETATM    7  C   UNL     1       7.798  28.227  54.617  1.00  0.00     0.161 C 
BRANCH   7   8
HETATM    8  N   UNL     1       7.243  26.906  54.800  1.00  0.00    -0.357 N 
HETATM    9  C   UNL     1       5.971  26.608  54.365  1.00  0.00     0.222 C 
HETATM   10  O   UNL     1       5.227  27.438  53.851  1.00  0.00    -0.273 OA
HETATM   11  H   UNL     1       7.888  26.143  54.965  1.00  0.00     0.162 HD
BRANCH   9  12
HETATM   12  C   UNL     1       5.558  25.166  54.594  1.00  0.00     0.141 C 
BRANCH  12  13
HETATM   13  C   UNL     1       6.621  24.114  54.374  1.00  0.00    -0.047 A 
HETATM   14  C   UNL     1       7.268  23.432  55.417  1.00  0.00     0.044 A 
HETATM   15  C   UNL     1       8.250  22.468  55.154  1.00  0.00     0.068 A 
HETATM   16  C   UNL     1       8.596  22.183  53.833  1.00  0.00     0.037 A 
HETATM   17  C   UNL     1       7.965  22.854  52.786  1.00  0.00     0.003 A 
HETATM   18  C   UNL     1       6.985  23.810  53.054  1.00  0.00     0.007 A 
BRANCH  15  19
HETATM   19  O   UNL     1       8.787  21.882  56.267  1.00  0.00    -0.356 OA
HETATM   20  C   UNL     1       8.620  20.476  56.398  1.00  0.00     0.210 C 
ENDBRANCH  15  19
ENDBRANCH  12  13
ENDBRANCH   9  12
ENDBRANCH   7   8
ENDBRANCH   1   7
BRANCH   4  21
HETATM   21  N   UNL     1       7.483  30.953  59.648  1.00  0.00    -0.321 N 
HETATM   22  C   UNL     1       8.172  32.042  60.151  1.00  0.00     0.279 C 
HETATM   23  O   UNL     1       9.011  32.698  59.545  1.00  0.00    -0.265 OA
HETATM   24  H   UNL     1       6.804  30.554  60.288  1.00  0.00     0.169 HD
BRANCH  22  25
HETATM   25  C   UNL     1       7.801  32.347  61.523  1.00  0.00     0.142 A 
HETATM   26  O   UNL     1       6.541  32.823  61.793  1.00  0.00    -0.317 OA
HETATM   27  C   UNL     1       6.460  32.994  63.139  1.00  0.00     0.143 A 
HETATM   28  C   UNL     1       7.643  32.643  63.744  1.00  0.00     0.027 A 
HETATM   29  C   UNL     1       8.509  32.228  62.704  1.00  0.00     0.045 A 
ENDBRANCH  22  25
ENDBRANCH   4  21
TORSDOF 7
ENDMDL
MODEL 2
REMARK VINA RESULT:      -9.3      1.714      2.579
REMARK  7 active torsions:
REMARK  status: ('A' for Active; 'I' for Inactive)
REMARK    1  A    between atoms: O_2  and  C_3 
REMARK    2  A    between atoms: C_5  and  C_6 
REMARK    3  A    between atoms: C_6  and  C_7 
REMARK       I    between atoms: C_7  and  N_8 
REMARK    4  A    between atoms: N_8  and  C_9 
REMARK    5  A    between atoms: C_9  and  C_10 
REMARK    6  A    between atoms: C_13  and  N_14 
REMARK       I    between atoms: N_14  and  C_15 
REMARK    7  A    between atoms: C_15  and  C_16 
ROOT
HETATM    1  C   UNL     1       7.053  27.651  54.647  1.00  0.00    -0.040 A 
HETATM    2  C   UNL     1       6.258  27.324  55.751  1.00  0.00     0.011 A 
HETATM    3  C   UNL     1       6.525  27.868  57.013  1.00  0.00     0.030 A 
HETATM    4  C   UNL     1       7.587  28.755  57.190  1.00  0.00     0.035 A 
HETATM    5  C   UNL     1       8.395  29.071  56.093  1.00  0.00     0.030 A 
HETATM    6  C   UNL     1       8.131  28.525  54.832  1.00  0.00     0.011 A 
ENDROOT
BRANCH   1   7
HETATM    7  C   UNL     1       6.729  27.124  53.276  1.00  0.00     0.161 C 
BRANCH   7   8
HETATM    8  N   UNL     1       7.425  25.880  53.039  1.00  0.00    -0.357 N 
HETATM    9  C   UNL     1       6.730  24.707  52.846  1.00  0.00     0.222 C 
HETATM   10  O   UNL     1       5.506  24.635  52.910  1.00  0.00    -0.273 OA
HETATM   11  H   UNL     1       8.384  25.931  52.720  1.00  0.00     0.162 HD
BRANCH   9  12
HETATM   12  C   UNL     1       7.609  23.503  52.568  1.00  0.00     0.141 C 
BRANCH  12  13
HETATM   13  C   UNL     1       7.896  22.589  53.739  1.00  0.00    -0.047 A 
HETATM   14  C   UNL     1       8.014  23.036  55.064  1.00  0.00     0.044 A 
HETATM   15  C   UNL     1       8.285  22.144  56.110  1.00  0.00     0.068 A 
HETATM   16  C   UNL     1       8.446  20.787  55.830  1.00  0.00     0.037 A 
HETATM   17  C   UNL     1       8.335  20.327  54.518  1.00  0.00     0.003 A 
HETATM   18  C   UNL     1       8.061  21.220  53.482  1.00  0.00     0.007 A 
BRANCH  15  19
HETATM   19  O   UNL     1       8.365  22.722  57.347  1.00  0.00    -0.356 OA
HETATM   20  C   UNL     1       8.728  24.097  57.392  1.00  0.00     0.210 C 
ENDBRANCH  15  19
ENDBRANCH  12  13
ENDBRANCH   9  12
ENDBRANCH   7   8
ENDBRANCH   1   7
BRANCH   4  21
HETATM   21  N   UNL     1       7.888  29.390  58.410  1.00  0.00    -0.321 N 
HETATM   22  C   UNL     1       7.539  30.661  58.827  1.00  0.00     0.279 C 
HETATM   23  O   UNL     1       6.820  31.442  58.214  1.00  0.00    -0.265 OA
HETATM   24  H   UNL     1       8.470  28.878  59.065  1.00  0.00     0.169 HD
BRANCH  22  25
HETATM   25  C   UNL     1       8.134  31.007  60.108  1.00  0.00     0.142 A 
HETATM   26  O   UNL     1       9.002  30.128  60.709  1.00  0.00    -0.317 OA
HETATM   27  C   UNL     1       9.421  30.709  61.864  1.00  0.00     0.143 A 
HETATM   28  C   UNL     1       8.839  31.944  62.023  1.00  0.00     0.027 A 
HETATM   29  C   UNL     1       8.008  32.137  60.894  1.00  0.00     0.045 A 
ENDBRANCH  22  25
ENDBRANCH   4  21
TORSDOF 7
ENDMDL
MODEL 3
REMARK VINA RESULT:      -9.3      1.780     10.424
REMARK  7 active torsions:
REMARK  status: ('A' for Active; 'I' for Inactive)
REMARK    1  A    between atoms: O_2  and  C_3 
REMARK    2  A    between atoms: C_5  and  C_6 
REMARK    3  A    between atoms: C_6  and  C_7 
REMARK       I    between atoms: C_7  and  N_8 
REMARK    4  A    between atoms: N_8  and  C_9 
REMARK    5  A    between atoms: C_9  and  C_10 
REMARK    6  A    between atoms: C_13  and  N_14 
REMARK       I    between atoms: N_14  and  C_15 
REMARK    7  A    between atoms: C_15  and  C_16 
ROOT
HETATM    1  C   UNL     1       7.110  29.662  57.849  1.00  0.00    -0.040 A 
HETATM    2  C   UNL     1       8.379  29.076  57.787  1.00  0.00     0.011 A 
HETATM    3  C   UNL     1       8.575  27.863  57.116  1.00  0.00     0.030 A 
HETATM    4  C   UNL     1       7.508  27.221  56.487  1.00  0.00     0.035 A 
HETATM    5  C   UNL     1       6.235  27.797  56.562  1.00  0.00     0.030 A 
HETATM    6  C   UNL     1       6.036  29.006  57.235  1.00  0.00     0.011 A 
ENDROOT
BRANCH   1   7
HETATM    7  C   UNL     1       6.907  30.999  58.510  1.00  0.00     0.161 C 
BRANCH   7   8
HETATM    8  N   UNL     1       7.322  30.943  59.893  1.00  0.00    -0.357 N 
HETATM    9  C   UNL     1       8.242  31.838  60.391  1.00  0.00     0.222 C 
HETATM   10  O   UNL     1       8.791  32.690  59.698  1.00  0.00    -0.273 OA
HETATM   11  H   UNL     1       6.722  30.454  60.545  1.00  0.00     0.162 HD
BRANCH   9  12
HETATM   12  C   UNL     1       8.535  31.669  61.870  1.00  0.00     0.141 C 
BRANCH  12  13
HETATM   13  C   UNL     1       7.537  32.274  62.831  1.00  0.00    -0.047 A 
HETATM   14  C   UNL     1       6.146  32.200  62.657  1.00  0.00     0.044 A 
HETATM   15  C   UNL     1       5.267  32.783  63.580  1.00  0.00     0.068 A 
HETATM   16  C   UNL     1       5.781  33.453  64.689  1.00  0.00     0.037 A 
HETATM   17  C   UNL     1       7.161  33.538  64.875  1.00  0.00     0.003 A 
HETATM   18  C   UNL     1       8.031  32.953  63.955  1.00  0.00     0.007 A 
BRANCH  15  19
HETATM   19  O   UNL     1       3.941  32.624  63.283  1.00  0.00    -0.356 OA
HETATM   20  C   UNL     1       3.547  32.885  61.942  1.00  0.00     0.210 C 
ENDBRANCH  15  19
ENDBRANCH  12  13
ENDBRANCH   9  12
ENDBRANCH   7   8
ENDBRANCH   1   7
BRANCH   4  21
HETATM   21  N   UNL     1       7.630  26.033  55.744  1.00  0.00    -0.321 N 
HETATM   22  C   UNL     1       8.025  24.781  56.181  1.00  0.00     0.279 C 
HETATM   23  O   UNL     1       8.267  24.474  57.343  1.00  0.00    -0.265 OA
HETATM   24  H   UNL     1       7.447  26.090  54.748  1.00  0.00     0.169 HD
BRANCH  22  25
HETATM   25  C   UNL     1       8.142  23.825  55.093  1.00  0.00     0.142 A 
HETATM   26  O   UNL     1       8.953  22.726  55.243  1.00  0.00    -0.317 OA
HETATM   27  C   UNL     1       8.854  21.999  54.099  1.00  0.00     0.143 A 
HETATM   28  C   UNL     1       8.000  22.608  53.211  1.00  0.00     0.027 A 
HETATM   29  C   UNL     1       7.542  23.786  53.848  1.00  0.00     0.045 A 
ENDBRANCH  22  25
ENDBRANCH   4  21
TORSDOF 7
ENDMDL
MODEL 4
REMARK VINA RESULT:      -9.2      1.148      1.693
REMARK  7 active torsions:
REMARK  status: ('A' for Active; 'I' for Inactive)
REMARK    1  A    between atoms: O_2  and  C_3 
REMARK    2  A    between atoms: C_5  and  C_6 
REMARK    3  A    between atoms: C_6  and  C_7 
REMARK       I    between atoms: C_7  and  N_8 
REMARK    4  A    between atoms: N_8  and  C_9 
REMARK    5  A    between atoms: C_9  and  C_10 
REMARK    6  A    between atoms: C_13  and  N_14 
REMARK       I    between atoms: N_14  and  C_15 
REMARK    7  A    between atoms: C_15  and  C_16 
ROOT
HETATM    1  C   UNL     1       7.578  28.776  55.861  1.00  0.00    -0.040 A 
HETATM    2  C   UNL     1       8.605  28.581  56.791  1.00  0.00     0.011 A 
HETATM    3  C   UNL     1       8.585  29.236  58.028  1.00  0.00     0.030 A 
HETATM    4  C   UNL     1       7.532  30.090  58.360  1.00  0.00     0.035 A 
HETATM    5  C   UNL     1       6.513  30.300  57.425  1.00  0.00     0.030 A 
HETATM    6  C   UNL     1       6.534  29.650  56.187  1.00  0.00     0.011 A 
ENDROOT
BRANCH   1   7
HETATM    7  C   UNL     1       7.560  28.022  54.559  1.00  0.00     0.161 C 
BRANCH   7   8
HETATM    8  N   UNL     1       6.906  26.744  54.728  1.00  0.00    -0.357 N 
HETATM    9  C   UNL     1       7.160  25.702  53.865  1.00  0.00     0.222 C 
HETATM   10  O   UNL     1       7.901  25.802  52.892  1.00  0.00    -0.273 OA
HETATM   11  H   UNL     1       6.512  26.534  55.636  1.00  0.00     0.162 HD
BRANCH   9  12
HETATM   12  C   UNL     1       6.426  24.419  54.208  1.00  0.00     0.141 C 
BRANCH  12  13
HETATM   13  C   UNL     1       7.240  23.330  54.871  1.00  0.00    -0.047 A 
HETATM   14  C   UNL     1       7.611  22.138  54.232  1.00  0.00     0.044 A 
HETATM   15  C   UNL     1       8.364  21.160  54.897  1.00  0.00     0.068 A 
HETATM   16  C   UNL     1       8.747  21.373  56.221  1.00  0.00     0.037 A 
HETATM   17  C   UNL     1       8.384  22.552  56.872  1.00  0.00     0.003 A 
HETATM   18  C   UNL     1       7.638  23.522  56.203  1.00  0.00     0.007 A 
BRANCH  15  19
HETATM   19  O   UNL     1       8.656  20.055  54.146  1.00  0.00    -0.356 OA
HETATM   20  C   UNL     1       8.554  20.193  52.734  1.00  0.00     0.210 C 
ENDBRANCH  15  19
ENDBRANCH  12  13
ENDBRANCH   9  12
ENDBRANCH   7   8
ENDBRANCH   1   7
BRANCH   4  21
HETATM   21  N   UNL     1       7.406  30.740  59.601  1.00  0.00    -0.321 N 
HETATM   22  C   UNL     1       8.009  31.911  60.024  1.00  0.00     0.279 C 
HETATM   23  O   UNL     1       8.714  32.641  59.336  1.00  0.00    -0.265 OA
HETATM   24  H   UNL     1       6.834  30.285  60.304  1.00  0.00     0.169 HD
BRANCH  22  25
HETATM   25  C   UNL     1       7.726  32.207  61.419  1.00  0.00     0.142 A 
HETATM   26  O   UNL     1       6.436  32.480  61.804  1.00  0.00    -0.317 OA
HETATM   27  C   UNL     1       6.457  32.691  63.147  1.00  0.00     0.143 A 
HETATM   28  C   UNL     1       7.735  32.565  63.636  1.00  0.00     0.027 A 
HETATM   29  C   UNL     1       8.555  32.256  62.525  1.00  0.00     0.045 A 
ENDBRANCH  22  25
ENDBRANCH   4  21
TORSDOF 7
ENDMDL
MODEL 5
REMARK VINA RESULT:      -9.2      1.611      2.274
REMARK  7 active torsions:
REMARK  status: ('A' for Active; 'I' for Inactive)
REMARK    1  A    between atoms: O_2  and  C_3 
REMARK    2  A    between atoms: C_5  and  C_6 
REMARK    3  A    between atoms: C_6  and  C_7 
REMARK       I    between atoms: C_7  and  N_8 
REMARK    4  A    between atoms: N_8  and  C_9 
REMARK    5  A    between atoms: C_9  and  C_10 
REMARK    6  A    between atoms: C_13  and  N_14 
REMARK       I    between atoms: N_14  and  C_15 
REMARK    7  A    between atoms: C_15  and  C_16 
ROOT
HETATM    1  C   UNL     1       6.265  27.612  55.218  1.00  0.00    -0.040 A 
HETATM    2  C   UNL     1       7.618  27.606  55.573  1.00  0.00     0.011 A 
HETATM    3  C   UNL     1       8.055  28.245  56.740  1.00  0.00     0.030 A 
HETATM    4  C   UNL     1       7.144  28.893  57.575  1.00  0.00     0.035 A 
HETATM    5  C   UNL     1       5.793  28.915  57.213  1.00  0.00     0.030 A 
HETATM    6  C   UNL     1       5.356  28.281  56.046  1.00  0.00     0.011 A 
ENDROOT
BRANCH   1   7
HETATM    7  C   UNL     1       5.780  26.869  54.002  1.00  0.00     0.161 C 
BRANCH   7   8
HETATM    8  N   UNL     1       6.754  25.880  53.598  1.00  0.00    -0.357 N 
HETATM    9  C   UNL     1       6.379  24.781  52.858  1.00  0.00     0.222 C 
HETATM   10  O   UNL     1       5.215  24.551  52.542  1.00  0.00    -0.273 OA
HETATM   11  H   UNL     1       7.729  26.152  53.599  1.00  0.00     0.162 HD
BRANCH   9  12
HETATM   12  C   UNL     1       7.528  23.865  52.481  1.00  0.00     0.141 C 
BRANCH  12  13
HETATM   13  C   UNL     1       7.821  22.723  53.427  1.00  0.00    -0.047 A 
HETATM   14  C   UNL     1       8.005  22.885  54.809  1.00  0.00     0.044 A 
HETATM   15  C   UNL     1       8.278  21.789  55.639  1.00  0.00     0.068 A 
HETATM   16  C   UNL     1       8.376  20.514  55.082  1.00  0.00     0.037 A 
HETATM   17  C   UNL     1       8.200  20.337  53.710  1.00  0.00     0.003 A 
HETATM   18  C   UNL     1       7.923  21.431  52.890  1.00  0.00     0.007 A 
BRANCH  15  19
HETATM   19  O   UNL     1       8.426  22.099  56.963  1.00  0.00    -0.356 OA
HETATM   20  C   UNL     1       8.493  23.480  57.296  1.00  0.00     0.210 C 
ENDBRANCH  15  19
ENDBRANCH  12  13
ENDBRANCH   9  12
ENDBRANCH   7   8
ENDBRANCH   1   7
BRANCH   4  21
HETATM   21  N   UNL     1       7.491  29.508  58.792  1.00  0.00    -0.321 N 
HETATM   22  C   UNL     1       7.557  30.858  59.086  1.00  0.00     0.279 C 
HETATM   23  O   UNL     1       7.237  31.770  58.331  1.00  0.00    -0.265 OA
HETATM   24  H   UNL     1       7.771  28.899  59.553  1.00  0.00     0.169 HD
BRANCH  22  25
HETATM   25  C   UNL     1       8.069  31.110  60.423  1.00  0.00     0.142 A 
HETATM   26  O   UNL     1       8.899  30.189  61.013  1.00  0.00    -0.317 OA
HETATM   27  C   UNL     1       9.243  30.684  62.231  1.00  0.00     0.143 A 
HETATM   28  C   UNL     1       8.649  31.906  62.441  1.00  0.00     0.027 A 
HETATM   29  C   UNL     1       7.891  32.181  61.279  1.00  0.00     0.045 A 
ENDBRANCH  22  25
ENDBRANCH   4  21
TORSDOF 7
ENDMDL
MODEL 6
REMARK VINA RESULT:      -9.1      2.042      2.667
REMARK  7 active torsions:
REMARK  status: ('A' for Active; 'I' for Inactive)
REMARK    1  A    between atoms: O_2  and  C_3 
REMARK    2  A    between atoms: C_5  and  C_6 
REMARK    3  A    between atoms: C_6  and  C_7 
REMARK       I    between atoms: C_7  and  N_8 
REMARK    4  A    between atoms: N_8  and  C_9 
REMARK    5  A    between atoms: C_9  and  C_10 
REMARK    6  A    between atoms: C_13  and  N_14 
REMARK       I    between atoms: N_14  and  C_15 
REMARK    7  A    between atoms: C_15  and  C_16 
ROOT
HETATM    1  C   UNL     1       4.883  28.422  55.161  1.00  0.00    -0.040 A 
HETATM    2  C   UNL     1       5.289  27.587  56.207  1.00  0.00     0.011 A 
HETATM    3  C   UNL     1       6.042  28.091  57.275  1.00  0.00     0.030 A 
HETATM    4  C   UNL     1       6.393  29.441  57.318  1.00  0.00     0.035 A 
HETATM    5  C   UNL     1       6.003  30.275  56.265  1.00  0.00     0.030 A 
HETATM    6  C   UNL     1       5.254  29.772  55.196  1.00  0.00     0.011 A 
ENDROOT
BRANCH   1   7
HETATM    7  C   UNL     1       4.016  27.901  54.047  1.00  0.00     0.161 C 
BRANCH   7   8
HETATM    8  N   UNL     1       4.355  26.528  53.748  1.00  0.00    -0.357 N 
HETATM    9  C   UNL     1       5.349  26.228  52.843  1.00  0.00     0.222 C 
HETATM   10  O   UNL     1       5.962  27.084  52.212  1.00  0.00    -0.273 OA
HETATM   11  H   UNL     1       4.079  25.819  54.415  1.00  0.00     0.162 HD
BRANCH   9  12
HETATM   12  C   UNL     1       5.610  24.742  52.677  1.00  0.00     0.141 C 
BRANCH  12  13
HETATM   13  C   UNL     1       6.721  24.152  53.515  1.00  0.00    -0.047 A 
HETATM   14  C   UNL     1       7.456  23.016  53.143  1.00  0.00     0.044 A 
HETATM   15  C   UNL     1       8.475  22.510  53.962  1.00  0.00     0.068 A 
HETATM   16  C   UNL     1       8.760  23.142  55.172  1.00  0.00     0.037 A 
HETATM   17  C   UNL     1       8.037  24.270  55.558  1.00  0.00     0.003 A 
HETATM   18  C   UNL     1       7.027  24.771  54.736  1.00  0.00     0.007 A 
BRANCH  15  19
HETATM   19  O   UNL     1       9.108  21.403  53.467  1.00  0.00    -0.356 OA
HETATM   20  C   UNL     1       8.296  20.436  52.813  1.00  0.00     0.210 C 
ENDBRANCH  15  19
ENDBRANCH  12  13
ENDBRANCH   9  12
ENDBRANCH   7   8
ENDBRANCH   1   7
BRANCH   4  21
HETATM   21  N   UNL     1       7.096  30.039  58.380  1.00  0.00    -0.321 N 
HETATM   22  C   UNL     1       8.464  30.131  58.563  1.00  0.00     0.279 C 
HETATM   23  O   UNL     1       9.318  29.763  57.763  1.00  0.00    -0.265 OA
HETATM   24  H   UNL     1       6.545  30.423  59.140  1.00  0.00     0.169 HD
BRANCH  22  25
HETATM   25  C   UNL     1       8.814  30.719  59.845  1.00  0.00     0.142 A 
HETATM   26  O   UNL     1       8.724  29.958  60.985  1.00  0.00    -0.317 OA
HETATM   27  C   UNL     1       9.130  30.740  62.020  1.00  0.00     0.143 A 
HETATM   28  C   UNL     1       9.477  31.992  61.572  1.00  0.00     0.027 A 
HETATM   29  C   UNL     1       9.272  31.982  60.172  1.00  0.00     0.045 A 
ENDBRANCH  22  25
ENDBRANCH   4  21
TORSDOF 7
ENDMDL
MODEL 7
REMARK VINA RESULT:      -8.9      1.915      2.578
REMARK  7 active torsions:
REMARK  status: ('A' for Active; 'I' for Inactive)
REMARK    1  A    between atoms: O_2  and  C_3 
REMARK    2  A    between atoms: C_5  and  C_6 
REMARK    3  A    between atoms: C_6  and  C_7 
REMARK       I    between atoms: C_7  and  N_8 
REMARK    4  A    between atoms: N_8  and  C_9 
REMARK    5  A    between atoms: C_9  and  C_10 
REMARK    6  A    between atoms: C_13  and  N_14 
REMARK       I    between atoms: N_14  and  C_15 
REMARK    7  A    between atoms: C_15  and  C_16 
ROOT
HETATM    1  C   UNL     1       4.672  28.737  54.896  1.00  0.00    -0.040 A 
HETATM    2  C   UNL     1       5.350  27.854  55.743  1.00  0.00     0.011 A 
HETATM    3  C   UNL     1       6.027  28.326  56.875  1.00  0.00     0.030 A 
HETATM    4  C   UNL     1       6.030  29.687  57.182  1.00  0.00     0.035 A 
HETATM    5  C   UNL     1       5.368  30.574  56.326  1.00  0.00     0.030 A 
HETATM    6  C   UNL     1       4.694  30.105  55.194  1.00  0.00     0.011 A 
ENDROOT
BRANCH   1   7
HETATM    7  C   UNL     1       3.886  28.229  53.717  1.00  0.00     0.161 C 
BRANCH   7   8
HETATM    8  N   UNL     1       4.094  26.809  53.551  1.00  0.00    -0.357 N 
HETATM    9  C   UNL     1       5.004  26.331  52.635  1.00  0.00     0.222 C 
HETATM   10  O   UNL     1       5.646  27.061  51.885  1.00  0.00    -0.273 OA
HETATM   11  H   UNL     1       3.801  26.199  54.304  1.00  0.00     0.162 HD
BRANCH   9  12
HETATM   12  C   UNL     1       5.132  24.819  52.617  1.00  0.00     0.141 C 
BRANCH  12  13
HETATM   13  C   UNL     1       6.282  24.228  53.401  1.00  0.00    -0.047 A 
HETATM   14  C   UNL     1       6.431  24.369  54.789  1.00  0.00     0.044 A 
HETATM   15  C   UNL     1       7.521  23.801  55.463  1.00  0.00     0.068 A 
HETATM   16  C   UNL     1       8.478  23.087  54.743  1.00  0.00     0.037 A 
HETATM   17  C   UNL     1       8.346  22.941  53.362  1.00  0.00     0.003 A 
HETATM   18  C   UNL     1       7.257  23.504  52.697  1.00  0.00     0.007 A 
BRANCH  15  19
HETATM   19  O   UNL     1       7.529  24.015  56.815  1.00  0.00    -0.356 OA
HETATM   20  C   UNL     1       8.685  24.639  57.359  1.00  0.00     0.210 C 
ENDBRANCH  15  19
ENDBRANCH  12  13
ENDBRANCH   9  12
ENDBRANCH   7   8
ENDBRANCH   1   7
BRANCH   4  21
HETATM   21  N   UNL     1       6.635  30.234  58.327  1.00  0.00    -0.321 N 
HETATM   22  C   UNL     1       7.983  30.355  58.615  1.00  0.00     0.279 C 
HETATM   23  O   UNL     1       8.903  30.065  57.858  1.00  0.00    -0.265 OA
HETATM   24  H   UNL     1       6.019  30.552  59.068  1.00  0.00     0.169 HD
BRANCH  22  25
HETATM   25  C   UNL     1       8.221  30.869  59.954  1.00  0.00     0.142 A 
HETATM   26  O   UNL     1       8.888  30.090  60.867  1.00  0.00    -0.317 OA
HETATM   27  C   UNL     1       8.993  30.818  62.010  1.00  0.00     0.143 A 
HETATM   28  C   UNL     1       8.403  32.049  61.855  1.00  0.00     0.027 A 
HETATM   29  C   UNL     1       7.903  32.083  60.532  1.00  0.00     0.045 A 
ENDBRANCH  22  25
ENDBRANCH   4  21
TORSDOF 7
ENDMDL
MODEL 8
REMARK VINA RESULT:      -8.6      2.262      3.342
REMARK  7 active torsions:
REMARK  status: ('A' for Active; 'I' for Inactive)
REMARK    1  A    between atoms: O_2  and  C_3 
REMARK    2  A    between atoms: C_5  and  C_6 
REMARK    3  A    between atoms: C_6  and  C_7 
REMARK       I    between atoms: C_7  and  N_8 
REMARK    4  A    between atoms: N_8  and  C_9 
REMARK    5  A    between atoms: C_9  and  C_10 
REMARK    6  A    between atoms: C_13  and  N_14 
REMARK       I    between atoms: N_14  and  C_15 
REMARK    7  A    between atoms: C_15  and  C_16 
ROOT
HETATM    1  C   UNL     1       7.779  30.728  58.845  1.00  0.00    -0.040 A 
HETATM    2  C   UNL     1       8.551  30.391  59.962  1.00  0.00     0.011 A 
HETATM    3  C   UNL     1       8.281  30.955  61.215  1.00  0.00     0.030 A 
HETATM    4  C   UNL     1       7.230  31.859  61.373  1.00  0.00     0.035 A 
HETATM    5  C   UNL     1       6.467  32.210  60.255  1.00  0.00     0.030 A 
HETATM    6  C   UNL     1       6.737  31.651  59.002  1.00  0.00     0.011 A 
ENDROOT
BRANCH   1   7
HETATM    7  C   UNL     1       8.020  30.073  57.512  1.00  0.00     0.161 C 
BRANCH   7   8
HETATM    8  N   UNL     1       8.229  28.653  57.681  1.00  0.00    -0.357 N 
HETATM    9  C   UNL     1       7.180  27.767  57.571  1.00  0.00     0.222 C 
HETATM   10  O   UNL     1       6.021  28.122  57.374  1.00  0.00    -0.273 OA
HETATM   11  H   UNL     1       9.171  28.300  57.579  1.00  0.00     0.162 HD
BRANCH   9  12
HETATM   12  C   UNL     1       7.576  26.312  57.733  1.00  0.00     0.141 C 
BRANCH  12  13
HETATM   13  C   UNL     1       7.734  25.507  56.463  1.00  0.00    -0.047 A 
HETATM   14  C   UNL     1       8.236  24.197  56.430  1.00  0.00     0.044 A 
HETATM   15  C   UNL     1       8.364  23.499  55.221  1.00  0.00     0.068 A 
HETATM   16  C   UNL     1       7.990  24.118  54.028  1.00  0.00     0.037 A 
HETATM   17  C   UNL     1       7.492  25.421  54.045  1.00  0.00     0.003 A 
HETATM   18  C   UNL     1       7.364  26.109  55.251  1.00  0.00     0.007 A 
BRANCH  15  19
HETATM   19  O   UNL     1       8.861  22.231  55.345  1.00  0.00    -0.356 OA
HETATM   20  C   UNL     1       8.058  21.173  54.835  1.00  0.00     0.210 C 
ENDBRANCH  15  19
ENDBRANCH  12  13
ENDBRANCH   9  12
ENDBRANCH   7   8
ENDBRANCH   1   7
BRANCH   4  21
HETATM   21  N   UNL     1       6.857  32.425  62.606  1.00  0.00    -0.321 N 
HETATM   22  C   UNL     1       5.762  32.123  63.396  1.00  0.00     0.279 C 
HETATM   23  O   UNL     1       4.953  31.228  63.183  1.00  0.00    -0.265 OA
HETATM   24  H   UNL     1       7.432  33.183  62.958  1.00  0.00     0.169 HD
BRANCH  22  25
HETATM   25  C   UNL     1       5.648  33.006  64.546  1.00  0.00     0.142 A 
HETATM   26  O   UNL     1       4.416  33.214  65.117  1.00  0.00    -0.317 OA
HETATM   27  C   UNL     1       4.604  34.048  66.174  1.00  0.00     0.143 A 
HETATM   28  C   UNL     1       5.930  34.387  66.294  1.00  0.00     0.027 A 
HETATM   29  C   UNL     1       6.605  33.718  65.244  1.00  0.00     0.045 A 
ENDBRANCH  22  25
ENDBRANCH   4  21
TORSDOF 7
ENDMDL
MODEL 9
REMARK VINA RESULT:      -8.6      2.563      4.857
REMARK  7 active torsions:
REMARK  status: ('A' for Active; 'I' for Inactive)
REMARK    1  A    between atoms: O_2  and  C_3 
REMARK    2  A    between atoms: C_5  and  C_6 
REMARK    3  A    between atoms: C_6  and  C_7 
REMARK       I    between atoms: C_7  and  N_8 
REMARK    4  A    between atoms: N_8  and  C_9 
REMARK    5  A    between atoms: C_9  and  C_10 
REMARK    6  A    between atoms: C_13  and  N_14 
REMARK       I    between atoms: N_14  and  C_15 
REMARK    7  A    between atoms: C_15  and  C_16 
ROOT
HETATM    1  C   UNL     1       8.829  31.502  60.069  1.00  0.00    -0.040 A 
HETATM    2  C   UNL     1       7.560  32.050  59.852  1.00  0.00     0.011 A 
HETATM    3  C   UNL     1       6.814  32.570  60.917  1.00  0.00     0.030 A 
HETATM    4  C   UNL     1       7.328  32.559  62.214  1.00  0.00     0.035 A 
HETATM    5  C   UNL     1       8.589  31.996  62.436  1.00  0.00     0.030 A 
HETATM    6  C   UNL     1       9.334  31.472  61.374  1.00  0.00     0.011 A 
ENDROOT
BRANCH   1   7
HETATM    7  C   UNL     1       9.663  31.004  58.919  1.00  0.00     0.161 C 
BRANCH   7   8
HETATM    8  N   UNL     1       8.815  30.452  57.888  1.00  0.00    -0.357 N 
HETATM    9  C   UNL     1       9.322  29.581  56.948  1.00  0.00     0.222 C 
HETATM   10  O   UNL     1      10.507  29.264  56.899  1.00  0.00    -0.273 OA
HETATM   11  H   UNL     1       7.815  30.466  58.042  1.00  0.00     0.162 HD
BRANCH   9  12
HETATM   12  C   UNL     1       8.292  29.061  55.964  1.00  0.00     0.141 C 
BRANCH  12  13
HETATM   13  C   UNL     1       7.875  27.616  56.121  1.00  0.00    -0.047 A 
HETATM   14  C   UNL     1       7.509  26.791  55.046  1.00  0.00     0.044 A 
HETATM   15  C   UNL     1       7.127  25.458  55.251  1.00  0.00     0.068 A 
HETATM   16  C   UNL     1       7.104  24.942  56.546  1.00  0.00     0.037 A 
HETATM   17  C   UNL     1       7.461  25.750  57.625  1.00  0.00     0.003 A 
HETATM   18  C   UNL     1       7.845  27.075  57.415  1.00  0.00     0.007 A 
BRANCH  15  19
HETATM   19  O   UNL     1       6.805  24.775  54.110  1.00  0.00    -0.356 OA
HETATM   20  C   UNL     1       7.816  23.945  53.551  1.00  0.00     0.210 C 
ENDBRANCH  15  19
ENDBRANCH  12  13
ENDBRANCH   9  12
ENDBRANCH   7   8
ENDBRANCH   1   7
BRANCH   4  21
HETATM   21  N   UNL     1       6.670  33.112  63.328  1.00  0.00    -0.321 N 
HETATM   22  C   UNL     1       5.490  32.702  63.921  1.00  0.00     0.279 C 
HETATM   23  O   UNL     1       4.842  31.708  63.612  1.00  0.00    -0.265 OA
HETATM   24  H   UNL     1       7.079  33.945  63.739  1.00  0.00     0.169 HD
BRANCH  22  25
HETATM   25  C   UNL     1       5.063  33.598  64.984  1.00  0.00     0.142 A 
HETATM   26  O   UNL     1       3.727  33.878  65.135  1.00  0.00    -0.317 OA
HETATM   27  C   UNL     1       3.612  34.709  66.205  1.00  0.00     0.143 A 
HETATM   28  C   UNL     1       4.848  34.974  66.745  1.00  0.00     0.027 A 
HETATM   29  C   UNL     1       5.784  34.262  65.958  1.00  0.00     0.045 A 
ENDBRANCH  22  25
ENDBRANCH   4  21
TORSDOF 7
ENDMDL
MODEL 10
REMARK VINA RESULT:      -8.4      4.713      8.786
REMARK  7 active torsions:
REMARK  status: ('A' for Active; 'I' for Inactive)
REMARK    1  A    between atoms: O_2  and  C_3 
REMARK    2  A    between atoms: C_5  and  C_6 
REMARK    3  A    between atoms: C_6  and  C_7 
REMARK       I    between atoms: C_7  and  N_8 
REMARK    4  A    between atoms: N_8  and  C_9 
REMARK    5  A    between atoms: C_9  and  C_10 
REMARK    6  A    between atoms: C_13  and  N_14 
REMARK       I    between atoms: N_14  and  C_15 
REMARK    7  A    between atoms: C_15  and  C_16 
ROOT
HETATM    1  C   UNL     1       6.462  27.188  54.679  1.00  0.00    -0.040 A 
HETATM    2  C   UNL     1       7.225  26.596  53.666  1.00  0.00     0.011 A 
HETATM    3  C   UNL     1       6.656  26.304  52.420  1.00  0.00     0.030 A 
HETATM    4  C   UNL     1       5.318  26.607  52.164  1.00  0.00     0.035 A 
HETATM    5  C   UNL     1       4.549  27.182  53.181  1.00  0.00     0.030 A 
HETATM    6  C   UNL     1       5.114  27.471  54.427  1.00  0.00     0.011 A 
ENDROOT
BRANCH   1   7
HETATM    7  C   UNL     1       7.085  27.566  55.996  1.00  0.00     0.161 C 
BRANCH   7   8
HETATM    8  N   UNL     1       7.961  26.514  56.457  1.00  0.00    -0.357 N 
HETATM    9  C   UNL     1       7.459  25.419  57.125  1.00  0.00     0.222 C 
HETATM   10  O   UNL     1       6.271  25.294  57.408  1.00  0.00    -0.273 OA
HETATM   11  H   UNL     1       8.875  26.440  56.028  1.00  0.00     0.162 HD
BRANCH   9  12
HETATM   12  C   UNL     1       8.505  24.388  57.502  1.00  0.00     0.141 C 
BRANCH  12  13
HETATM   13  C   UNL     1       8.492  23.093  56.720  1.00  0.00    -0.047 A 
HETATM   14  C   UNL     1       8.577  23.029  55.321  1.00  0.00     0.044 A 
HETATM   15  C   UNL     1       8.556  21.800  54.648  1.00  0.00     0.068 A 
HETATM   16  C   UNL     1       8.443  20.618  55.380  1.00  0.00     0.037 A 
HETATM   17  C   UNL     1       8.354  20.666  56.771  1.00  0.00     0.003 A 
HETATM   18  C   UNL     1       8.380  21.892  57.435  1.00  0.00     0.007 A 
BRANCH  15  19
HETATM   19  O   UNL     1       8.654  21.893  53.287  1.00  0.00    -0.356 OA
HETATM   20  C   UNL     1       7.871  22.896  52.653  1.00  0.00     0.210 C 
ENDBRANCH  15  19
ENDBRANCH  12  13
ENDBRANCH   9  12
ENDBRANCH   7   8
ENDBRANCH   1   7
BRANCH   4  21
HETATM   21  N   UNL     1       4.687  26.399  50.924  1.00  0.00    -0.321 N 
HETATM   22  C   UNL     1       4.734  27.192  49.791  1.00  0.00     0.279 C 
HETATM   23  O   UNL     1       5.420  28.199  49.652  1.00  0.00    -0.265 OA
HETATM   24  H   UNL     1       4.083  25.588  50.843  1.00  0.00     0.169 HD
BRANCH  22  25
HETATM   25  C   UNL     1       3.855  26.709  48.739  1.00  0.00     0.142 A 
HETATM   26  O   UNL     1       3.676  25.357  48.576  1.00  0.00    -0.317 OA
HETATM   27  C   UNL     1       2.796  25.191  47.553  1.00  0.00     0.143 A 
HETATM   28  C   UNL     1       2.406  26.409  47.050  1.00  0.00     0.027 A 
HETATM   29  C   UNL     1       3.088  27.388  47.810  1.00  0.00     0.045 A 
ENDBRANCH  22  25
ENDBRANCH   4  21
TORSDOF 7
ENDMDL
