MODEL 1
REMARK VINA RESULT:      -9.3      0.000      0.000
REMARK  6 active torsions:
REMARK  status: ('A' for Active; 'I' for Inactive)
REMARK       I    between atoms: C_2  and  N_3 
REMARK    1  A    between atoms: N_3  and  C_4 
REMARK    2  A    between atoms: C_4  and  C_5 
REMARK    3  A    between atoms: C_4  and  C_11 
REMARK    4  A    between atoms: C_11  and  C_12 
REMARK       I    between atoms: C_12  and  N_13 
REMARK    5  A    between atoms: N_13  and  C_14 
REMARK    6  A    between atoms: C_16  and  C_17 
ROOT
HETATM    1  C   UNL     1       7.501  26.238  55.600  1.00  0.00     0.224 C 
HETATM    2  N   UNL     1       7.083  26.661  56.854  1.00  0.00    -0.327 N 
HETATM    3  O   UNL     1       7.587  26.935  54.595  1.00  0.00    -0.273 OA
HETATM    4  H   UNL     1       7.016  25.952  57.574  1.00  0.00     0.169 HD
ENDROOT
BRANCH   1   5
HETATM    5  C   UNL     1       7.825  24.752  55.588  1.00  0.00     0.133 C 
BRANCH   5   6
HETATM    6  C   UNL     1       7.011  24.003  54.523  1.00  0.00     0.126 C 
BRANCH   6   7
HETATM    7  N   UNL     1       6.793  24.700  53.258  1.00  0.00    -0.352 N 
HETATM    8  C   UNL     1       5.581  25.022  52.701  1.00  0.00     0.214 C 
HETATM    9  C   UNL     1       5.701  25.728  51.376  1.00  0.00     0.117 C 
HETATM   10  O   UNL     1       4.492  24.796  53.215  1.00  0.00    -0.274 OA
HETATM   11  H   UNL     1       7.628  24.923  52.733  1.00  0.00     0.163 HD
ENDBRANCH   6   7
BRANCH   6  12
HETATM   12  C   UNL     1       7.531  22.588  54.310  1.00  0.00    -0.035 A 
HETATM   13  C   UNL     1       7.839  22.089  53.036  1.00  0.00     0.009 A 
HETATM   14  C   UNL     1       8.333  20.793  52.877  1.00  0.00     0.001 A 
HETATM   15  C   UNL     1       8.539  19.980  53.989  1.00  0.00     0.000 A 
HETATM   16  C   UNL     1       8.250  20.463  55.263  1.00  0.00     0.001 A 
HETATM   17  C   UNL     1       7.749  21.756  55.423  1.00  0.00     0.009 A 
ENDBRANCH   6  12
ENDBRANCH   5   6
ENDBRANCH   1   5
BRANCH   2  18
HETATM   18  C   UNL     1       6.651  27.954  57.221  1.00  0.00     0.035 A 
HETATM   19  C   UNL     1       7.457  28.889  57.877  1.00  0.00     0.042 A 
HETATM   20  C   UNL     1       6.969  30.165  58.204  1.00  0.00    -0.021 A 
HETATM   21  C   UNL     1       5.659  30.503  57.848  1.00  0.00     0.012 A 
HETATM   22  C   UNL     1       4.844  29.575  57.200  1.00  0.00     0.003 A 
HETATM   23  C   UNL     1       5.335  28.304  56.897  1.00  0.00     0.029 A 
BRANCH  20  24
HETATM   24  C   UNL     1       7.805  31.128  58.903  1.00  0.00     0.010 A 
HETATM   25  C   UNL     1       9.156  31.499  58.709  1.00  0.00     0.152 A 
HETATM   26  N   UNL     1       9.559  32.452  59.554  1.00  0.00    -0.187 NA
HETATM   27  N   UNL     1       8.466  32.695  60.295  1.00  0.00    -0.289 N 
HETATM   28  H   UNL     1       8.524  33.400  61.023  1.00  0.00     0.188 HD
HETATM   29  C   UNL     1       7.390  31.934  59.943  1.00  0.00     0.123 A 
ENDBRANCH  20  24
ENDBRANCH   2  18
TORSDOF 6
ENDMDL
MODEL 2
REMARK VINA RESULT:      -9.2      2.249      8.571
REMARK  6 active torsions:
REMARK  status: ('A' for Active; 'I' for Inactive)
REMARK       I    between atoms: C_2  and  N_3 
REMARK    1  A    between atoms: N_3  and  C_4 
REMARK    2  A    between atoms: C_4  and  C_5 
REMARK    3  A    between atoms: C_4  and  C_11 
REMARK    4  A    between atoms: C_11  and  C_12 
REMARK       I    between atoms: C_12  and  N_13 
REMARK    5  A    between atoms: N_13  and  C_14 
REMARK    6  A    between atoms: C_16  and  C_17 
ROOT
HETATM    1  C   UNL     1       7.840  26.534  56.948  1.00  0.00     0.224 C 
HETATM    2  N   UNL     1       7.242  26.411  55.702  1.00  0.00    -0.327 N 
HETATM    3  O   UNL     1       8.744  25.832  57.387  1.00  0.00    -0.273 OA
HETATM    4  H   UNL     1       6.469  27.036  55.504  1.00  0.00     0.169 HD
ENDROOT
BRANCH   1   5
HETATM    5  C   UNL     1       7.213  27.655  57.762  1.00  0.00     0.133 C 
BRANCH   5   6
HETATM    6  C   UNL     1       7.250  28.993  57.007  1.00  0.00     0.126 C 
BRANCH   6   7
HETATM    7  N   UNL     1       5.963  29.637  56.759  1.00  0.00    -0.352 N 
HETATM    8  C   UNL     1       5.083  29.342  55.748  1.00  0.00     0.214 C 
HETATM    9  C   UNL     1       3.848  30.205  55.760  1.00  0.00     0.117 C 
HETATM   10  O   UNL     1       5.241  28.454  54.918  1.00  0.00    -0.274 OA
HETATM   11  H   UNL     1       5.732  30.404  57.376  1.00  0.00     0.163 HD
ENDBRANCH   6   7
BRANCH   6  12
HETATM   12  C   UNL     1       8.260  29.955  57.616  1.00  0.00    -0.035 A 
HETATM   13  C   UNL     1       7.919  30.843  58.647  1.00  0.00     0.009 A 
HETATM   14  C   UNL     1       8.874  31.699  59.198  1.00  0.00     0.001 A 
HETATM   15  C   UNL     1      10.188  31.672  58.736  1.00  0.00     0.000 A 
HETATM   16  C   UNL     1      10.548  30.789  57.722  1.00  0.00     0.001 A 
HETATM   17  C   UNL     1       9.592  29.937  57.165  1.00  0.00     0.009 A 
ENDBRANCH   6  12
ENDBRANCH   5   6
ENDBRANCH   1   5
BRANCH   2  18
HETATM   18  C   UNL     1       7.527  25.450  54.708  1.00  0.00     0.035 A 
HETATM   19  C   UNL     1       7.839  24.115  54.979  1.00  0.00     0.042 A 
HETATM   20  C   UNL     1       8.102  23.205  53.941  1.00  0.00    -0.021 A 
HETATM   21  C   UNL     1       8.030  23.648  52.615  1.00  0.00     0.012 A 
HETATM   22  C   UNL     1       7.727  24.980  52.334  1.00  0.00     0.003 A 
HETATM   23  C   UNL     1       7.486  25.878  53.375  1.00  0.00     0.029 A 
BRANCH  20  24
HETATM   24  C   UNL     1       8.443  21.822  54.229  1.00  0.00     0.010 A 
HETATM   25  C   UNL     1       8.529  20.690  53.385  1.00  0.00     0.152 A 
HETATM   26  N   UNL     1       8.902  19.584  54.036  1.00  0.00    -0.187 NA
HETATM   27  N   UNL     1       9.056  20.004  55.302  1.00  0.00    -0.289 N 
HETATM   28  H   UNL     1       9.345  19.329  56.002  1.00  0.00     0.188 HD
HETATM   29  C   UNL     1       8.798  21.333  55.470  1.00  0.00     0.123 A 
ENDBRANCH  20  24
ENDBRANCH   2  18
TORSDOF 6
ENDMDL
MODEL 3
REMARK VINA RESULT:      -9.2      4.118      7.880
REMARK  6 active torsions:
REMARK  status: ('A' for Active; 'I' for Inactive)
REMARK       I    between atoms: C_2  and  N_3 
REMARK    1  A    between atoms: N_3  and  C_4 
REMARK    2  A    between atoms: C_4  and  C_5 
REMARK    3  A    between atoms: C_4  and  C_11 
REMARK    4  A    between atoms: C_11  and  C_12 
REMARK       I    between atoms: C_12  and  N_13 
REMARK    5  A    between atoms: N_13  and  C_14 
REMARK    6  A    between atoms: C_16  and  C_17 
ROOT
HETATM    1  C   UNL     1       6.345  25.166  52.027  1.00  0.00     0.224 C 
HETATM    2  N   UNL     1       6.432  26.346  51.300  1.00  0.00    -0.327 N 
HETATM    3  O   UNL     1       5.310  24.609  52.376  1.00  0.00    -0.273 OA
HETATM    4  H   UNL     1       7.363  26.709  51.133  1.00  0.00     0.169 HD
ENDROOT
BRANCH   1   5
HETATM    5  C   UNL     1       7.719  24.628  52.389  1.00  0.00     0.133 C 
BRANCH   5   6
HETATM    6  C   UNL     1       7.822  24.297  53.886  1.00  0.00     0.126 C 
BRANCH   6   7
HETATM    7  N   UNL     1       6.734  24.772  54.735  1.00  0.00    -0.352 N 
HETATM    8  C   UNL     1       6.858  25.518  55.880  1.00  0.00     0.214 C 
HETATM    9  C   UNL     1       5.538  25.831  56.535  1.00  0.00     0.117 C 
HETATM   10  O   UNL     1       7.919  25.929  56.337  1.00  0.00    -0.274 OA
HETATM   11  H   UNL     1       5.807  24.477  54.463  1.00  0.00     0.163 HD
ENDBRANCH   6   7
BRANCH   6  12
HETATM   12  C   UNL     1       8.122  22.822  54.116  1.00  0.00    -0.035 A 
HETATM   13  C   UNL     1       8.552  22.332  55.358  1.00  0.00     0.009 A 
HETATM   14  C   UNL     1       8.799  20.970  55.542  1.00  0.00     0.001 A 
HETATM   15  C   UNL     1       8.608  20.075  54.492  1.00  0.00     0.000 A 
HETATM   16  C   UNL     1       8.170  20.542  53.255  1.00  0.00     0.001 A 
HETATM   17  C   UNL     1       7.929  21.904  53.068  1.00  0.00     0.009 A 
ENDBRANCH   6  12
ENDBRANCH   5   6
ENDBRANCH   1   5
BRANCH   2  18
HETATM   18  C   UNL     1       5.366  27.150  50.844  1.00  0.00     0.035 A 
HETATM   19  C   UNL     1       4.512  26.794  49.796  1.00  0.00     0.042 A 
HETATM   20  C   UNL     1       3.460  27.637  49.397  1.00  0.00    -0.021 A 
HETATM   21  C   UNL     1       3.262  28.843  50.078  1.00  0.00     0.012 A 
HETATM   22  C   UNL     1       4.113  29.212  51.120  1.00  0.00     0.003 A 
HETATM   23  C   UNL     1       5.164  28.374  51.494  1.00  0.00     0.029 A 
BRANCH  20  24
HETATM   24  C   UNL     1       2.586  27.270  48.295  1.00  0.00     0.010 A 
HETATM   25  C   UNL     1       1.240  27.607  48.024  1.00  0.00     0.152 A 
HETATM   26  N   UNL     1       0.793  27.081  46.880  1.00  0.00    -0.187 NA
HETATM   27  N   UNL     1       1.853  26.402  46.413  1.00  0.00    -0.289 N 
HETATM   28  H   UNL     1       1.758  25.907  45.533  1.00  0.00     0.188 HD
HETATM   29  C   UNL     1       2.950  26.486  47.219  1.00  0.00     0.123 A 
ENDBRANCH  20  24
ENDBRANCH   2  18
TORSDOF 6
ENDMDL
MODEL 4
REMARK VINA RESULT:      -9.2      2.251      3.856
REMARK  6 active torsions:
REMARK  status: ('A' for Active; 'I' for Inactive)
REMARK       I    between atoms: C_2  and  N_3 
REMARK    1  A    between atoms: N_3  and  C_4 
REMARK    2  A    between atoms: C_4  and  C_5 
REMARK    3  A    between atoms: C_4  and  C_11 
REMARK    4  A    between atoms: C_11  and  C_12 
REMARK       I    between atoms: C_12  and  N_13 
REMARK    5  A    between atoms: N_13  and  C_14 
REMARK    6  A    between atoms: C_16  and  C_17 
ROOT
HETATM    1  C   UNL     1       7.559  26.041  57.349  1.00  0.00     0.224 C 
HETATM    2  N   UNL     1       7.455  27.369  56.959  1.00  0.00    -0.327 N 
HETATM    3  O   UNL     1       8.360  25.589  58.159  1.00  0.00    -0.273 OA
HETATM    4  H   UNL     1       6.774  27.580  56.238  1.00  0.00     0.169 HD
ENDROOT
BRANCH   1   5
HETATM    5  C   UNL     1       6.559  25.161  56.616  1.00  0.00     0.133 C 
BRANCH   5   6
HETATM    6  C   UNL     1       7.232  24.347  55.501  1.00  0.00     0.126 C 
BRANCH   6   7
HETATM    7  N   UNL     1       7.236  22.896  55.664  1.00  0.00    -0.352 N 
HETATM    8  C   UNL     1       8.301  22.054  55.464  1.00  0.00     0.214 C 
HETATM    9  C   UNL     1       7.971  20.604  55.701  1.00  0.00     0.117 C 
HETATM   10  O   UNL     1       9.430  22.416  55.148  1.00  0.00    -0.274 OA
HETATM   11  H   UNL     1       6.347  22.481  55.908  1.00  0.00     0.163 HD
ENDBRANCH   6   7
BRANCH   6  12
HETATM   12  C   UNL     1       6.734  24.763  54.123  1.00  0.00    -0.035 A 
HETATM   13  C   UNL     1       5.406  25.152  53.895  1.00  0.00     0.009 A 
HETATM   14  C   UNL     1       4.987  25.547  52.623  1.00  0.00     0.001 A 
HETATM   15  C   UNL     1       5.890  25.572  51.563  1.00  0.00     0.000 A 
HETATM   16  C   UNL     1       7.216  25.200  51.774  1.00  0.00     0.001 A 
HETATM   17  C   UNL     1       7.635  24.798  53.043  1.00  0.00     0.009 A 
ENDBRANCH   6  12
ENDBRANCH   5   6
ENDBRANCH   1   5
BRANCH   2  18
HETATM   18  C   UNL     1       8.254  28.452  57.386  1.00  0.00     0.035 A 
HETATM   19  C   UNL     1       7.986  29.218  58.524  1.00  0.00     0.042 A 
HETATM   20  C   UNL     1       8.829  30.277  58.901  1.00  0.00    -0.021 A 
HETATM   21  C   UNL     1       9.963  30.551  58.128  1.00  0.00     0.012 A 
HETATM   22  C   UNL     1      10.235  29.797  56.986  1.00  0.00     0.003 A 
HETATM   23  C   UNL     1       9.379  28.760  56.613  1.00  0.00     0.029 A 
BRANCH  20  24
HETATM   24  C   UNL     1       8.537  31.082  60.076  1.00  0.00     0.010 A 
HETATM   25  C   UNL     1       7.646  32.164  60.263  1.00  0.00     0.152 A 
HETATM   26  N   UNL     1       7.650  32.629  61.515  1.00  0.00    -0.187 NA
HETATM   27  N   UNL     1       8.546  31.846  62.137  1.00  0.00    -0.289 N 
HETATM   28  H   UNL     1       8.726  32.007  63.122  1.00  0.00     0.188 HD
HETATM   29  C   UNL     1       9.101  30.903  61.322  1.00  0.00     0.123 A 
ENDBRANCH  20  24
ENDBRANCH   2  18
TORSDOF 6
ENDMDL
MODEL 5
REMARK VINA RESULT:      -8.9      1.502      2.070
REMARK  6 active torsions:
REMARK  status: ('A' for Active; 'I' for Inactive)
REMARK       I    between atoms: C_2  and  N_3 
REMARK    1  A    between atoms: N_3  and  C_4 
REMARK    2  A    between atoms: C_4  and  C_5 
REMARK    3  A    between atoms: C_4  and  C_11 
REMARK    4  A    between atoms: C_11  and  C_12 
REMARK       I    between atoms: C_12  and  N_13 
REMARK    5  A    between atoms: N_13  and  C_14 
REMARK    6  A    between atoms: C_16  and  C_17 
ROOT
HETATM    1  C   UNL     1       7.381  26.310  56.439  1.00  0.00     0.224 C 
HETATM    2  N   UNL     1       8.514  26.834  57.046  1.00  0.00    -0.327 N 
HETATM    3  O   UNL     1       6.412  26.950  56.048  1.00  0.00    -0.273 OA
HETATM    4  H   UNL     1       9.210  26.168  57.362  1.00  0.00     0.169 HD
ENDROOT
BRANCH   1   5
HETATM    5  C   UNL     1       7.452  24.795  56.332  1.00  0.00     0.133 C 
BRANCH   5   6
HETATM    6  C   UNL     1       6.811  24.288  55.031  1.00  0.00     0.126 C 
BRANCH   6   7
HETATM    7  N   UNL     1       6.817  25.209  53.899  1.00  0.00    -0.352 N 
HETATM    8  C   UNL     1       5.764  25.482  53.062  1.00  0.00     0.214 C 
HETATM    9  C   UNL     1       6.104  26.469  51.976  1.00  0.00     0.117 C 
HETATM   10  O   UNL     1       4.639  25.007  53.174  1.00  0.00    -0.274 OA
HETATM   11  H   UNL     1       7.705  25.649  53.698  1.00  0.00     0.163 HD
ENDBRANCH   6   7
BRANCH   6  12
HETATM   12  C   UNL     1       7.332  22.910  54.648  1.00  0.00    -0.035 A 
HETATM   13  C   UNL     1       7.657  22.576  53.325  1.00  0.00     0.009 A 
HETATM   14  C   UNL     1       8.152  21.309  53.008  1.00  0.00     0.001 A 
HETATM   15  C   UNL     1       8.341  20.361  54.010  1.00  0.00     0.000 A 
HETATM   16  C   UNL     1       8.034  20.678  55.331  1.00  0.00     0.001 A 
HETATM   17  C   UNL     1       7.533  21.942  55.648  1.00  0.00     0.009 A 
ENDBRANCH   6  12
ENDBRANCH   5   6
ENDBRANCH   1   5
BRANCH   2  18
HETATM   18  C   UNL     1       8.769  28.186  57.358  1.00  0.00     0.035 A 
HETATM   19  C   UNL     1       7.982  28.949  58.225  1.00  0.00     0.042 A 
HETATM   20  C   UNL     1       8.297  30.290  58.503  1.00  0.00    -0.021 A 
HETATM   21  C   UNL     1       9.432  30.857  57.912  1.00  0.00     0.012 A 
HETATM   22  C   UNL     1      10.221  30.107  57.040  1.00  0.00     0.003 A 
HETATM   23  C   UNL     1       9.886  28.782  56.758  1.00  0.00     0.029 A 
BRANCH  20  24
HETATM   24  C   UNL     1       7.464  31.085  59.390  1.00  0.00     0.010 A 
HETATM   25  C   UNL     1       6.302  31.850  59.138  1.00  0.00     0.152 A 
HETATM   26  N   UNL     1       5.808  32.423  60.239  1.00  0.00    -0.187 NA
HETATM   27  N   UNL     1       6.655  32.029  61.203  1.00  0.00    -0.289 N 
HETATM   28  H   UNL     1       6.484  32.342  62.153  1.00  0.00     0.188 HD
HETATM   29  C   UNL     1       7.659  31.224  60.750  1.00  0.00     0.123 A 
ENDBRANCH  20  24
ENDBRANCH   2  18
TORSDOF 6
ENDMDL
MODEL 6
REMARK VINA RESULT:      -8.8      3.658      7.036
REMARK  6 active torsions:
REMARK  status: ('A' for Active; 'I' for Inactive)
REMARK       I    between atoms: C_2  and  N_3 
REMARK    1  A    between atoms: N_3  and  C_4 
REMARK    2  A    between atoms: C_4  and  C_5 
REMARK    3  A    between atoms: C_4  and  C_11 
REMARK    4  A    between atoms: C_11  and  C_12 
REMARK       I    between atoms: C_12  and  N_13 
REMARK    5  A    between atoms: N_13  and  C_14 
REMARK    6  A    between atoms: C_16  and  C_17 
ROOT
HETATM    1  C   UNL     1       6.046  25.425  52.072  1.00  0.00     0.224 C 
HETATM    2  N   UNL     1       4.882  25.887  51.475  1.00  0.00    -0.327 N 
HETATM    3  O   UNL     1       7.187  25.605  51.662  1.00  0.00    -0.273 OA
HETATM    4  H   UNL     1       4.008  25.611  51.907  1.00  0.00     0.169 HD
ENDROOT
BRANCH   1   5
HETATM    5  C   UNL     1       5.750  24.610  53.321  1.00  0.00     0.133 C 
BRANCH   5   6
HETATM    6  C   UNL     1       7.003  24.434  54.193  1.00  0.00     0.126 C 
BRANCH   6   7
HETATM    7  N   UNL     1       6.965  25.045  55.519  1.00  0.00    -0.352 N 
HETATM    8  C   UNL     1       7.253  26.351  55.825  1.00  0.00     0.214 C 
HETATM    9  C   UNL     1       7.137  26.661  57.295  1.00  0.00     0.117 C 
HETATM   10  O   UNL     1       7.552  27.213  55.006  1.00  0.00    -0.274 OA
HETATM   11  H   UNL     1       6.746  24.419  56.282  1.00  0.00     0.163 HD
ENDBRANCH   6   7
BRANCH   6  12
HETATM   12  C   UNL     1       7.450  22.980  54.249  1.00  0.00    -0.035 A 
HETATM   13  C   UNL     1       7.507  22.262  55.452  1.00  0.00     0.009 A 
HETATM   14  C   UNL     1       7.902  20.922  55.466  1.00  0.00     0.001 A 
HETATM   15  C   UNL     1       8.234  20.277  54.277  1.00  0.00     0.000 A 
HETATM   16  C   UNL     1       8.171  20.971  53.072  1.00  0.00     0.001 A 
HETATM   17  C   UNL     1       7.783  22.312  53.057  1.00  0.00     0.009 A 
ENDBRANCH   6  12
ENDBRANCH   5   6
ENDBRANCH   1   5
BRANCH   2  18
HETATM   18  C   UNL     1       4.770  26.626  50.277  1.00  0.00     0.035 A 
HETATM   19  C   UNL     1       5.049  27.991  50.173  1.00  0.00     0.042 A 
HETATM   20  C   UNL     1       4.928  28.666  48.946  1.00  0.00    -0.021 A 
HETATM   21  C   UNL     1       4.538  27.946  47.811  1.00  0.00     0.012 A 
HETATM   22  C   UNL     1       4.249  26.584  47.906  1.00  0.00     0.003 A 
HETATM   23  C   UNL     1       4.356  25.931  49.134  1.00  0.00     0.029 A 
BRANCH  20  24
HETATM   24  C   UNL     1       5.202  30.090  48.847  1.00  0.00     0.010 A 
HETATM   25  C   UNL     1       5.964  30.950  49.672  1.00  0.00     0.152 A 
HETATM   26  N   UNL     1       5.993  32.208  49.224  1.00  0.00    -0.187 NA
HETATM   27  N   UNL     1       5.248  32.160  48.108  1.00  0.00    -0.289 N 
HETATM   28  H   UNL     1       5.122  33.014  47.576  1.00  0.00     0.188 HD
HETATM   29  C   UNL     1       4.757  30.917  47.836  1.00  0.00     0.123 A 
ENDBRANCH  20  24
ENDBRANCH   2  18
TORSDOF 6
ENDMDL
MODEL 7
REMARK VINA RESULT:      -8.7      2.340      8.772
REMARK  6 active torsions:
REMARK  status: ('A' for Active; 'I' for Inactive)
REMARK       I    between atoms: C_2  and  N_3 
REMARK    1  A    between atoms: N_3  and  C_4 
REMARK    2  A    between atoms: C_4  and  C_5 
REMARK    3  A    between atoms: C_4  and  C_11 
REMARK    4  A    between atoms: C_11  and  C_12 
REMARK       I    between atoms: C_12  and  N_13 
REMARK    5  A    between atoms: N_13  and  C_14 
REMARK    6  A    between atoms: C_16  and  C_17 
ROOT
HETATM    1  C   UNL     1       7.968  28.053  57.342  1.00  0.00     0.224 C 
HETATM    2  N   UNL     1       7.785  27.966  55.969  1.00  0.00    -0.327 N 
HETATM    3  O   UNL     1       7.604  27.227  58.172  1.00  0.00    -0.273 OA
HETATM    4  H   UNL     1       8.098  28.757  55.417  1.00  0.00     0.169 HD
ENDROOT
BRANCH   1   5
HETATM    5  C   UNL     1       8.667  29.345  57.734  1.00  0.00     0.133 C 
BRANCH   5   6
HETATM    6  C   UNL     1       7.664  30.418  58.186  1.00  0.00     0.126 C 
BRANCH   6   7
HETATM    7  N   UNL     1       6.249  30.068  58.094  1.00  0.00    -0.352 N 
HETATM    8  C   UNL     1       5.443  30.208  56.992  1.00  0.00     0.214 C 
HETATM    9  C   UNL     1       4.022  29.769  57.231  1.00  0.00     0.117 C 
HETATM   10  O   UNL     1       5.816  30.620  55.900  1.00  0.00    -0.274 OA
HETATM   11  H   UNL     1       5.826  29.731  58.948  1.00  0.00     0.163 HD
ENDBRANCH   6   7
BRANCH   6  12
HETATM   12  C   UNL     1       8.023  30.982  59.554  1.00  0.00    -0.035 A 
HETATM   13  C   UNL     1       7.272  31.998  60.163  1.00  0.00     0.009 A 
HETATM   14  C   UNL     1       7.616  32.480  61.428  1.00  0.00     0.001 A 
HETATM   15  C   UNL     1       8.708  31.946  62.108  1.00  0.00     0.000 A 
HETATM   16  C   UNL     1       9.457  30.928  61.524  1.00  0.00     0.001 A 
HETATM   17  C   UNL     1       9.119  30.450  60.257  1.00  0.00     0.009 A 
ENDBRANCH   6  12
ENDBRANCH   5   6
ENDBRANCH   1   5
BRANCH   2  18
HETATM   18  C   UNL     1       7.129  26.939  55.257  1.00  0.00     0.035 A 
HETATM   19  C   UNL     1       7.643  25.650  55.095  1.00  0.00     0.042 A 
HETATM   20  C   UNL     1       6.933  24.669  54.382  1.00  0.00    -0.021 A 
HETATM   21  C   UNL     1       5.683  24.993  53.844  1.00  0.00     0.012 A 
HETATM   22  C   UNL     1       5.164  26.279  53.992  1.00  0.00     0.003 A 
HETATM   23  C   UNL     1       5.888  27.249  54.687  1.00  0.00     0.029 A 
BRANCH  20  24
HETATM   24  C   UNL     1       7.480  23.334  54.202  1.00  0.00     0.010 A 
HETATM   25  C   UNL     1       7.611  22.253  55.106  1.00  0.00     0.152 A 
HETATM   26  N   UNL     1       8.153  21.170  54.543  1.00  0.00    -0.187 NA
HETATM   27  N   UNL     1       8.373  21.552  53.275  1.00  0.00    -0.289 N 
HETATM   28  H   UNL     1       8.787  20.883  52.634  1.00  0.00     0.188 HD
HETATM   29  C   UNL     1       7.984  22.835  53.019  1.00  0.00     0.123 A 
ENDBRANCH  20  24
ENDBRANCH   2  18
TORSDOF 6
ENDMDL
MODEL 8
REMARK VINA RESULT:      -8.7      4.269      8.513
REMARK  6 active torsions:
REMARK  status: ('A' for Active; 'I' for Inactive)
REMARK       I    between atoms: C_2  and  N_3 
REMARK    1  A    between atoms: N_3  and  C_4 
REMARK    2  A    between atoms: C_4  and  C_5 
REMARK    3  A    between atoms: C_4  and  C_11 
REMARK    4  A    between atoms: C_11  and  C_12 
REMARK       I    between atoms: C_12  and  N_13 
REMARK    5  A    between atoms: N_13  and  C_14 
REMARK    6  A    between atoms: C_16  and  C_17 
ROOT
HETATM    1  C   UNL     1       4.853  26.117  52.113  1.00  0.00     0.224 C 
HETATM    2  N   UNL     1       4.849  26.037  50.727  1.00  0.00    -0.327 N 
HETATM    3  O   UNL     1       4.587  27.112  52.778  1.00  0.00    -0.273 OA
HETATM    4  H   UNL     1       5.143  25.156  50.322  1.00  0.00     0.169 HD
ENDROOT
BRANCH   1   5
HETATM    5  C   UNL     1       5.270  24.801  52.750  1.00  0.00     0.133 C 
BRANCH   5   6
HETATM    6  C   UNL     1       6.548  24.957  53.588  1.00  0.00     0.126 C 
BRANCH   6   7
HETATM    7  N   UNL     1       6.467  25.845  54.743  1.00  0.00    -0.352 N 
HETATM    8  C   UNL     1       7.100  27.054  54.891  1.00  0.00     0.214 C 
HETATM    9  C   UNL     1       6.821  27.717  56.214  1.00  0.00     0.117 C 
HETATM   10  O   UNL     1       7.806  27.583  54.040  1.00  0.00    -0.274 OA
HETATM   11  H   UNL     1       5.921  25.501  55.521  1.00  0.00     0.163 HD
ENDBRANCH   6   7
BRANCH   6  12
HETATM   12  C   UNL     1       7.151  23.606  53.949  1.00  0.00    -0.035 A 
HETATM   13  C   UNL     1       7.239  23.159  55.276  1.00  0.00     0.009 A 
HETATM   14  C   UNL     1       7.779  21.906  55.573  1.00  0.00     0.001 A 
HETATM   15  C   UNL     1       8.229  21.076  54.548  1.00  0.00     0.000 A 
HETATM   16  C   UNL     1       8.138  21.499  53.224  1.00  0.00     0.001 A 
HETATM   17  C   UNL     1       7.605  22.754  52.927  1.00  0.00     0.009 A 
ENDBRANCH   6  12
ENDBRANCH   5   6
ENDBRANCH   1   5
BRANCH   2  18
HETATM   18  C   UNL     1       4.568  27.073  49.811  1.00  0.00     0.035 A 
HETATM   19  C   UNL     1       3.439  27.103  48.988  1.00  0.00     0.042 A 
HETATM   20  C   UNL     1       3.212  28.172  48.104  1.00  0.00    -0.021 A 
HETATM   21  C   UNL     1       4.129  29.228  48.067  1.00  0.00     0.012 A 
HETATM   22  C   UNL     1       5.263  29.205  48.879  1.00  0.00     0.003 A 
HETATM   23  C   UNL     1       5.485  28.129  49.739  1.00  0.00     0.029 A 
BRANCH  20  24
HETATM   24  C   UNL     1       2.045  28.189  47.237  1.00  0.00     0.010 A 
HETATM   25  C   UNL     1       1.121  27.172  46.902  1.00  0.00     0.152 A 
HETATM   26  N   UNL     1       0.159  27.596  46.078  1.00  0.00    -0.187 NA
HETATM   27  N   UNL     1       0.464  28.889  45.880  1.00  0.00    -0.289 N 
HETATM   28  H   UNL     1      -0.138  29.439  45.277  1.00  0.00     0.188 HD
HETATM   29  C   UNL     1       1.579  29.293  46.554  1.00  0.00     0.123 A 
ENDBRANCH  20  24
ENDBRANCH   2  18
TORSDOF 6
ENDMDL
MODEL 9
REMARK VINA RESULT:      -8.6      2.302      3.349
REMARK  6 active torsions:
REMARK  status: ('A' for Active; 'I' for Inactive)
REMARK       I    between atoms: C_2  and  N_3 
REMARK    1  A    between atoms: N_3  and  C_4 
REMARK    2  A    between atoms: C_4  and  C_5 
REMARK    3  A    between atoms: C_4  and  C_11 
REMARK    4  A    between atoms: C_11  and  C_12 
REMARK       I    between atoms: C_12  and  N_13 
REMARK    5  A    between atoms: N_13  and  C_14 
REMARK    6  A    between atoms: C_16  and  C_17 
ROOT
HETATM    1  C   UNL     1       6.978  25.648  56.218  1.00  0.00     0.224 C 
HETATM    2  N   UNL     1       7.374  26.940  55.904  1.00  0.00    -0.327 N 
HETATM    3  O   UNL     1       6.067  25.338  56.976  1.00  0.00    -0.273 OA
HETATM    4  H   UNL     1       8.182  27.034  55.299  1.00  0.00     0.169 HD
ENDROOT
BRANCH   1   5
HETATM    5  C   UNL     1       7.846  24.611  55.523  1.00  0.00     0.133 C 
BRANCH   5   6
HETATM    6  C   UNL     1       7.052  23.819  54.473  1.00  0.00     0.126 C 
BRANCH   6   7
HETATM    7  N   UNL     1       6.817  24.485  53.195  1.00  0.00    -0.352 N 
HETATM    8  C   UNL     1       5.621  24.982  52.741  1.00  0.00     0.214 C 
HETATM    9  C   UNL     1       5.711  25.597  51.368  1.00  0.00     0.117 C 
HETATM   10  O   UNL     1       4.571  24.968  53.373  1.00  0.00    -0.274 OA
HETATM   11  H   UNL     1       7.615  24.539  52.577  1.00  0.00     0.163 HD
ENDBRANCH   6   7
BRANCH   6  12
HETATM   12  C   UNL     1       7.609  22.414  54.288  1.00  0.00    -0.035 A 
HETATM   13  C   UNL     1       7.888  21.882  53.021  1.00  0.00     0.009 A 
HETATM   14  C   UNL     1       8.417  20.597  52.887  1.00  0.00     0.001 A 
HETATM   15  C   UNL     1       8.686  19.828  54.017  1.00  0.00     0.000 A 
HETATM   16  C   UNL     1       8.426  20.345  55.284  1.00  0.00     0.001 A 
HETATM   17  C   UNL     1       7.891  21.627  55.419  1.00  0.00     0.009 A 
ENDBRANCH   6  12
ENDBRANCH   5   6
ENDBRANCH   1   5
BRANCH   2  18
HETATM   18  C   UNL     1       6.837  28.146  56.404  1.00  0.00     0.035 A 
HETATM   19  C   UNL     1       5.693  28.762  55.890  1.00  0.00     0.042 A 
HETATM   20  C   UNL     1       5.202  29.958  56.442  1.00  0.00    -0.021 A 
HETATM   21  C   UNL     1       5.867  30.524  57.536  1.00  0.00     0.012 A 
HETATM   22  C   UNL     1       7.014  29.920  58.051  1.00  0.00     0.003 A 
HETATM   23  C   UNL     1       7.501  28.743  57.482  1.00  0.00     0.029 A 
BRANCH  20  24
HETATM   24  C   UNL     1       4.022  30.605  55.893  1.00  0.00     0.010 A 
HETATM   25  C   UNL     1       2.946  31.270  56.526  1.00  0.00     0.152 A 
HETATM   26  N   UNL     1       2.054  31.757  55.659  1.00  0.00    -0.187 NA
HETATM   27  N   UNL     1       2.554  31.403  54.464  1.00  0.00    -0.289 N 
HETATM   28  H   UNL     1       2.042  31.668  53.630  1.00  0.00     0.188 HD
HETATM   29  C   UNL     1       3.730  30.717  54.549  1.00  0.00     0.123 A 
ENDBRANCH  20  24
ENDBRANCH   2  18
TORSDOF 6
ENDMDL
MODEL 10
REMARK VINA RESULT:      -8.6      4.722     10.257
REMARK  6 active torsions:
REMARK  status: ('A' for Active; 'I' for Inactive)
REMARK       I    between atoms: C_2  and  N_3 
REMARK    1  A    between atoms: N_3  and  C_4 
REMARK    2  A    between atoms: C_4  and  C_5 
REMARK    3  A    between atoms: C_4  and  C_11 
REMARK    4  A    between atoms: C_11  and  C_12 
REMARK       I    between atoms: C_12  and  N_13 
REMARK    5  A    between atoms: N_13  and  C_14 
REMARK    6  A    between atoms: C_16  and  C_17 
ROOT
HETATM    1  C   UNL     1       8.363  31.720  60.192  1.00  0.00     0.224 C 
HETATM    2  N   UNL     1       8.275  30.459  59.619  1.00  0.00    -0.327 N 
HETATM    3  O   UNL     1       8.817  32.725  59.656  1.00  0.00    -0.273 OA
HETATM    4  H   UNL     1       7.923  29.715  60.210  1.00  0.00     0.169 HD
ENDROOT
BRANCH   1   5
HETATM    5  C   UNL     1       7.849  31.724  61.623  1.00  0.00     0.133 C 
BRANCH   5   6
HETATM    6  C   UNL     1       6.583  32.583  61.768  1.00  0.00     0.126 C 
BRANCH   6   7
HETATM    7  N   UNL     1       5.356  32.038  61.194  1.00  0.00    -0.352 N 
HETATM    8  C   UNL     1       4.732  32.462  60.047  1.00  0.00     0.214 C 
HETATM    9  C   UNL     1       3.470  31.701  59.737  1.00  0.00     0.117 C 
HETATM   10  O   UNL     1       5.147  33.351  59.312  1.00  0.00    -0.274 OA
HETATM   11  H   UNL     1       4.911  31.305  61.729  1.00  0.00     0.163 HD
ENDBRANCH   6   7
BRANCH   6  12
HETATM   12  C   UNL     1       6.382  33.050  63.203  1.00  0.00    -0.035 A 
HETATM   13  C   UNL     1       5.108  33.182  63.773  1.00  0.00     0.009 A 
HETATM   14  C   UNL     1       4.958  33.594  65.099  1.00  0.00     0.001 A 
HETATM   15  C   UNL     1       6.079  33.867  65.879  1.00  0.00     0.000 A 
HETATM   16  C   UNL     1       7.353  33.730  65.332  1.00  0.00     0.001 A 
HETATM   17  C   UNL     1       7.504  33.325  64.005  1.00  0.00     0.009 A 
ENDBRANCH   6  12
ENDBRANCH   5   6
ENDBRANCH   1   5
BRANCH   2  18
HETATM   18  C   UNL     1       8.707  30.072  58.333  1.00  0.00     0.035 A 
HETATM   19  C   UNL     1       7.863  29.542  57.353  1.00  0.00     0.042 A 
HETATM   20  C   UNL     1       8.355  29.186  56.085  1.00  0.00    -0.021 A 
HETATM   21  C   UNL     1       9.710  29.386  55.803  1.00  0.00     0.012 A 
HETATM   22  C   UNL     1      10.563  29.906  56.776  1.00  0.00     0.003 A 
HETATM   23  C   UNL     1      10.065  30.239  58.036  1.00  0.00     0.029 A 
BRANCH  20  24
HETATM   24  C   UNL     1       7.476  28.619  55.076  1.00  0.00     0.010 A 
HETATM   25  C   UNL     1       6.066  28.626  54.960  1.00  0.00     0.152 A 
HETATM   26  N   UNL     1       5.633  28.006  53.859  1.00  0.00    -0.187 NA
HETATM   27  N   UNL     1       6.765  27.597  53.263  1.00  0.00    -0.289 N 
HETATM   28  H   UNL     1       6.694  27.092  52.387  1.00  0.00     0.188 HD
HETATM   29  C   UNL     1       7.894  27.942  53.948  1.00  0.00     0.123 A 
ENDBRANCH  20  24
ENDBRANCH   2  18
TORSDOF 6
ENDMDL
