MODEL 1
REMARK VINA RESULT:      -9.2      0.000      0.000
REMARK  9 active torsions:
REMARK  status: ('A' for Active; 'I' for Inactive)
REMARK    1  A    between atoms: N_2  and  C_4 
REMARK    2  A    between atoms: N_2  and  C_10 
REMARK    3  A    between atoms: C_10  and  C_11 
REMARK    4  A    between atoms: N_12  and  C_13 
REMARK    5  A    between atoms: C_17  and  N_18 
REMARK    6  A    between atoms: C_21  and  C_22 
REMARK       I    between atoms: C_22  and  N_23 
REMARK    7  A    between atoms: N_23  and  N_24 
REMARK    8  A    between atoms: C_25  and  C_26 
REMARK    9  A    between atoms: C_27  and  O_28 
ROOT
HETATM    1  C   UNL     1       5.267  31.189  58.280  1.00  0.00     0.102 A 
HETATM    2  N   UNL     1       4.204  31.706  59.038  1.00  0.00    -0.191 N 
HETATM    3  N   UNL     1       3.041  31.179  58.570  1.00  0.00    -0.058 NA
HETATM    4  N   UNL     1       3.309  30.265  57.658  1.00  0.00    -0.124 NA
HETATM    5  C   UNL     1       4.660  30.228  57.476  1.00  0.00     0.176 A 
ENDROOT
BRANCH   5   6
HETATM    6  C   UNL     1       5.289  29.308  56.540  1.00  0.00     0.294 C 
HETATM    7  N   UNL     1       4.937  27.982  56.713  1.00  0.00    -0.242 N 
HETATM    8  H   UNL     1       4.303  27.712  57.463  1.00  0.00     0.192 HD
HETATM    9  O   UNL     1       6.043  29.726  55.663  1.00  0.00    -0.264 OA
BRANCH   7  10
HETATM   10  N   UNL     1       5.394  27.058  55.827  1.00  0.00    -0.183 NA
HETATM   11  C   UNL     1       6.393  26.330  56.218  1.00  0.00     0.153 C 
BRANCH  11  12
HETATM   12  C   UNL     1       6.945  25.278  55.337  1.00  0.00     0.018 A 
HETATM   13  C   UNL     1       7.386  25.553  54.035  1.00  0.00     0.077 A 
HETATM   14  C   UNL     1       7.884  24.533  53.230  1.00  0.00     0.039 A 
HETATM   15  C   UNL     1       7.948  23.229  53.722  1.00  0.00     0.026 A 
HETATM   16  C   UNL     1       7.512  22.956  55.019  1.00  0.00     0.035 A 
HETATM   17 CL   UNL     1       7.590  21.348  55.624  1.00  0.00    -0.084 Cl
HETATM   18  C   UNL     1       7.009  23.973  55.832  1.00  0.00     0.039 A 
BRANCH  13  19
HETATM   19  O   UNL     1       7.354  26.804  53.479  1.00  0.00    -0.360 OA
HETATM   20  H   UNL     1       6.499  26.901  53.007  1.00  0.00     0.217 HD
ENDBRANCH  13  19
ENDBRANCH  11  12
ENDBRANCH   7  10
ENDBRANCH   5   6
BRANCH   1  21
HETATM   21  C   UNL     1       6.685  31.608  58.481  1.00  0.00     0.296 C 
BRANCH  21  22
HETATM   22  N   UNL     1       7.542  30.740  59.392  1.00  0.00    -0.065 N 
HETATM   23  C   UNL     1       7.929  29.456  58.686  1.00  0.00     0.270 C 
HETATM   24  H   UNL     1       6.944  30.452  60.191  1.00  0.00     0.280 HD
BRANCH  22  25
HETATM   25  C   UNL     1       8.762  31.474  59.981  1.00  0.00     0.188 C 
HETATM   26  C   UNL     1       8.380  32.828  60.609  1.00  0.00     0.033 C 
HETATM   27  C   UNL     1       7.516  32.693  61.863  1.00  0.00     0.002 C 
HETATM   28  C   UNL     1       8.169  31.789  62.904  1.00  0.00     0.000 C 
HETATM   29  C   UNL     1       8.609  30.449  62.323  1.00  0.00     0.002 C 
HETATM   30  C   UNL     1       9.461  30.631  61.067  1.00  0.00     0.033 C 
ENDBRANCH  22  25
ENDBRANCH  21  22
ENDBRANCH   1  21
BRANCH   2  31
HETATM   31  C   UNL     1       4.230  32.607  60.132  1.00  0.00     0.229 A 
HETATM   32  N   UNL     1       4.648  33.862  59.960  1.00  0.00    -0.081 NA
HETATM   33  O   UNL     1       4.549  34.425  61.235  1.00  0.00    -0.103 OA
HETATM   34  N   UNL     1       4.074  33.501  62.155  1.00  0.00    -0.083 NA
HETATM   35  C   UNL     1       3.882  32.373  61.474  1.00  0.00     0.201 A 
BRANCH  35  36
HETATM   36  N   UNL     1       3.420  31.231  62.010  1.00  0.00    -0.379 N 
HETATM   37  H   UNL     1       2.592  31.251  62.599  1.00  0.00     0.158 HD
HETATM   38  H   UNL     1       3.985  30.390  62.105  1.00  0.00     0.158 HD
ENDBRANCH  35  36
ENDBRANCH   2  31
TORSDOF 9
ENDMDL
MODEL 2
REMARK VINA RESULT:      -9.1      2.146      3.285
REMARK  9 active torsions:
REMARK  status: ('A' for Active; 'I' for Inactive)
REMARK    1  A    between atoms: N_2  and  C_4 
REMARK    2  A    between atoms: N_2  and  C_10 
REMARK    3  A    between atoms: C_10  and  C_11 
REMARK    4  A    between atoms: N_12  and  C_13 
REMARK    5  A    between atoms: C_17  and  N_18 
REMARK    6  A    between atoms: C_21  and  C_22 
REMARK       I    between atoms: C_22  and  N_23 
REMARK    7  A    between atoms: N_23  and  N_24 
REMARK    8  A    between atoms: C_25  and  C_26 
REMARK    9  A    between atoms: C_27  and  O_28 
ROOT
HETATM    1  C   UNL     1       5.025  29.955  56.508  1.00  0.00     0.102 A 
HETATM    2  N   UNL     1       4.079  30.991  56.520  1.00  0.00    -0.191 N 
HETATM    3  N   UNL     1       3.559  31.119  55.269  1.00  0.00    -0.058 NA
HETATM    4  N   UNL     1       4.016  30.147  54.504  1.00  0.00    -0.124 NA
HETATM    5  C   UNL     1       4.894  29.403  55.236  1.00  0.00     0.176 A 
ENDROOT
BRANCH   5   6
HETATM    6  C   UNL     1       5.569  28.238  54.685  1.00  0.00     0.294 C 
HETATM    7  N   UNL     1       4.998  27.027  55.030  1.00  0.00    -0.242 N 
HETATM    8  H   UNL     1       4.185  26.998  55.642  1.00  0.00     0.192 HD
HETATM    9  O   UNL     1       6.547  28.370  53.951  1.00  0.00    -0.264 OA
BRANCH   7  10
HETATM   10  N   UNL     1       5.495  25.885  54.484  1.00  0.00    -0.183 NA
HETATM   11  C   UNL     1       6.406  25.269  55.170  1.00  0.00     0.153 C 
BRANCH  11  12
HETATM   12  C   UNL     1       6.991  24.004  54.675  1.00  0.00     0.018 A 
HETATM   13  C   UNL     1       7.266  23.792  53.316  1.00  0.00     0.077 A 
HETATM   14  C   UNL     1       7.802  22.581  52.887  1.00  0.00     0.039 A 
HETATM   15  C   UNL     1       8.068  21.573  53.814  1.00  0.00     0.026 A 
HETATM   16  C   UNL     1       7.797  21.785  55.166  1.00  0.00     0.035 A 
HETATM   17 CL   UNL     1       8.125  20.540  56.307  1.00  0.00    -0.084 Cl
HETATM   18  C   UNL     1       7.259  22.995  55.605  1.00  0.00     0.039 A 
BRANCH  13  19
HETATM   19  O   UNL     1       7.031  24.729  52.347  1.00  0.00    -0.360 OA
HETATM   20  H   UNL     1       6.473  25.434  52.741  1.00  0.00     0.217 HD
ENDBRANCH  13  19
ENDBRANCH  11  12
ENDBRANCH   7  10
ENDBRANCH   5   6
BRANCH   1  21
HETATM   21  C   UNL     1       5.839  29.587  57.703  1.00  0.00     0.296 C 
BRANCH  21  22
HETATM   22  N   UNL     1       7.160  30.318  57.895  1.00  0.00    -0.065 N 
HETATM   23  C   UNL     1       6.977  31.504  58.820  1.00  0.00     0.270 C 
HETATM   24  H   UNL     1       7.425  30.718  56.973  1.00  0.00     0.280 HD
BRANCH  22  25
HETATM   25  C   UNL     1       8.318  29.403  58.339  1.00  0.00     0.188 C 
HETATM   26  C   UNL     1       8.723  28.401  57.241  1.00  0.00     0.033 C 
HETATM   27  C   UNL     1       9.358  29.064  56.019  1.00  0.00     0.002 C 
HETATM   28  C   UNL     1      10.547  29.939  56.406  1.00  0.00     0.000 C 
HETATM   29  C   UNL     1      10.212  30.922  57.525  1.00  0.00     0.002 C 
HETATM   30  C   UNL     1       9.571  30.217  58.720  1.00  0.00     0.033 C 
ENDBRANCH  22  25
ENDBRANCH  21  22
ENDBRANCH   1  21
BRANCH   2  31
HETATM   31  C   UNL     1       3.648  31.809  57.594  1.00  0.00     0.229 A 
HETATM   32  N   UNL     1       3.181  31.256  58.715  1.00  0.00    -0.081 NA
HETATM   33  O   UNL     1       2.848  32.353  59.515  1.00  0.00    -0.103 OA
HETATM   34  N   UNL     1       3.119  33.548  58.864  1.00  0.00    -0.083 NA
HETATM   35  C   UNL     1       3.610  33.212  57.673  1.00  0.00     0.201 A 
BRANCH  35  36
HETATM   36  N   UNL     1       4.001  34.093  56.737  1.00  0.00    -0.379 N 
HETATM   37  H   UNL     1       3.974  33.829  55.756  1.00  0.00     0.158 HD
HETATM   38  H   UNL     1       4.584  34.903  56.940  1.00  0.00     0.158 HD
ENDBRANCH  35  36
ENDBRANCH   2  31
TORSDOF 9
ENDMDL
MODEL 3
REMARK VINA RESULT:      -9.0      2.952      4.417
REMARK  9 active torsions:
REMARK  status: ('A' for Active; 'I' for Inactive)
REMARK    1  A    between atoms: N_2  and  C_4 
REMARK    2  A    between atoms: N_2  and  C_10 
REMARK    3  A    between atoms: C_10  and  C_11 
REMARK    4  A    between atoms: N_12  and  C_13 
REMARK    5  A    between atoms: C_17  and  N_18 
REMARK    6  A    between atoms: C_21  and  C_22 
REMARK       I    between atoms: C_22  and  N_23 
REMARK    7  A    between atoms: N_23  and  N_24 
REMARK    8  A    between atoms: C_25  and  C_26 
REMARK    9  A    between atoms: C_27  and  O_28 
ROOT
HETATM    1  C   UNL     1       5.503  29.196  55.310  1.00  0.00     0.102 A 
HETATM    2  N   UNL     1       4.696  30.221  54.794  1.00  0.00    -0.191 N 
HETATM    3  N   UNL     1       4.631  30.085  53.443  1.00  0.00    -0.058 NA
HETATM    4  N   UNL     1       5.233  28.967  53.086  1.00  0.00    -0.124 NA
HETATM    5  C   UNL     1       5.754  28.387  54.205  1.00  0.00     0.176 A 
ENDROOT
BRANCH   5   6
HETATM    6  C   UNL     1       6.474  27.123  54.157  1.00  0.00     0.294 C 
HETATM    7  N   UNL     1       5.717  26.018  54.499  1.00  0.00    -0.242 N 
HETATM    8  H   UNL     1       4.743  26.127  54.778  1.00  0.00     0.192 HD
HETATM    9  O   UNL     1       7.652  27.087  53.806  1.00  0.00    -0.264 OA
BRANCH   7  10
HETATM   10  N   UNL     1       6.270  24.780  54.389  1.00  0.00    -0.183 NA
HETATM   11  C   UNL     1       6.994  24.383  55.389  1.00  0.00     0.153 C 
BRANCH  11  12
HETATM   12  C   UNL     1       7.618  23.042  55.378  1.00  0.00     0.018 A 
HETATM   13  C   UNL     1       8.176  22.471  56.529  1.00  0.00     0.077 A 
HETATM   14  C   UNL     1       8.770  21.213  56.475  1.00  0.00     0.039 A 
HETATM   15  C   UNL     1       8.807  20.515  55.267  1.00  0.00     0.026 A 
HETATM   16  C   UNL     1       8.248  21.083  54.122  1.00  0.00     0.035 A 
HETATM   17 CL   UNL     1       8.296  20.222  52.633  1.00  0.00    -0.084 Cl
HETATM   18  C   UNL     1       7.653  22.344  54.167  1.00  0.00     0.039 A 
BRANCH  13  19
HETATM   19  O   UNL     1       8.181  23.092  57.749  1.00  0.00    -0.360 OA
HETATM   20  H   UNL     1       7.411  23.700  57.779  1.00  0.00     0.217 HD
ENDBRANCH  13  19
ENDBRANCH  11  12
ENDBRANCH   7  10
ENDBRANCH   5   6
BRANCH   1  21
HETATM   21  C   UNL     1       5.843  29.082  56.759  1.00  0.00     0.296 C 
BRANCH  21  22
HETATM   22  N   UNL     1       6.960  29.975  57.281  1.00  0.00    -0.065 N 
HETATM   23  C   UNL     1       6.385  31.129  58.076  1.00  0.00     0.270 C 
HETATM   24  H   UNL     1       7.421  30.404  56.454  1.00  0.00     0.280 HD
BRANCH  22  25
HETATM   25  C   UNL     1       8.050  29.214  58.060  1.00  0.00     0.188 C 
HETATM   26  C   UNL     1       9.054  28.513  57.125  1.00  0.00     0.033 C 
HETATM   27  C   UNL     1       9.923  29.487  56.330  1.00  0.00     0.002 C 
HETATM   28  C   UNL     1      10.646  30.474  57.242  1.00  0.00     0.000 C 
HETATM   29  C   UNL     1       9.702  31.164  58.223  1.00  0.00     0.002 C 
HETATM   30  C   UNL     1       8.846  30.154  58.988  1.00  0.00     0.033 C 
ENDBRANCH  22  25
ENDBRANCH  21  22
ENDBRANCH   1  21
BRANCH   2  31
HETATM   31  C   UNL     1       4.004  31.255  55.475  1.00  0.00     0.229 A 
HETATM   32  N   UNL     1       3.017  30.959  56.323  1.00  0.00    -0.081 NA
HETATM   33  O   UNL     1       2.578  32.207  56.772  1.00  0.00    -0.103 OA
HETATM   34  N   UNL     1       3.306  33.234  56.189  1.00  0.00    -0.083 NA
HETATM   35  C   UNL     1       4.186  32.646  55.381  1.00  0.00     0.201 A 
BRANCH  35  36
HETATM   36  N   UNL     1       5.086  33.303  54.631  1.00  0.00    -0.379 N 
HETATM   37  H   UNL     1       5.154  34.315  54.699  1.00  0.00     0.158 HD
HETATM   38  H   UNL     1       5.514  32.907  53.797  1.00  0.00     0.158 HD
ENDBRANCH  35  36
ENDBRANCH   2  31
TORSDOF 9
ENDMDL
MODEL 4
REMARK VINA RESULT:      -8.8      3.930      9.190
REMARK  9 active torsions:
REMARK  status: ('A' for Active; 'I' for Inactive)
REMARK    1  A    between atoms: N_2  and  C_4 
REMARK    2  A    between atoms: N_2  and  C_10 
REMARK    3  A    between atoms: C_10  and  C_11 
REMARK    4  A    between atoms: N_12  and  C_13 
REMARK    5  A    between atoms: C_17  and  N_18 
REMARK    6  A    between atoms: C_21  and  C_22 
REMARK       I    between atoms: C_22  and  N_23 
REMARK    7  A    between atoms: N_23  and  N_24 
REMARK    8  A    between atoms: C_25  and  C_26 
REMARK    9  A    between atoms: C_27  and  O_28 
ROOT
HETATM    1  C   UNL     1       5.879  28.684  54.019  1.00  0.00     0.102 A 
HETATM    2  N   UNL     1       5.034  28.975  52.938  1.00  0.00    -0.191 N 
HETATM    3  N   UNL     1       3.828  29.375  53.424  1.00  0.00    -0.058 NA
HETATM    4  N   UNL     1       3.899  29.482  54.737  1.00  0.00    -0.124 NA
HETATM    5  C   UNL     1       5.146  29.093  55.130  1.00  0.00     0.176 A 
ENDROOT
BRANCH   5   6
HETATM    6  C   UNL     1       5.556  29.108  56.526  1.00  0.00     0.294 C 
HETATM    7  N   UNL     1       6.506  30.064  56.835  1.00  0.00    -0.242 N 
HETATM    8  H   UNL     1       6.878  30.673  56.109  1.00  0.00     0.192 HD
HETATM    9  O   UNL     1       5.049  28.333  57.336  1.00  0.00    -0.264 OA
BRANCH   7  10
HETATM   10  N   UNL     1       6.881  30.225  58.133  1.00  0.00    -0.183 NA
HETATM   11  C   UNL     1       6.894  31.441  58.581  1.00  0.00     0.153 C 
BRANCH  11  12
HETATM   12  C   UNL     1       7.262  31.719  59.986  1.00  0.00     0.018 A 
HETATM   13  C   UNL     1       8.183  30.926  60.685  1.00  0.00     0.077 A 
HETATM   14  C   UNL     1       8.491  31.210  62.013  1.00  0.00     0.039 A 
HETATM   15  C   UNL     1       7.882  32.292  62.650  1.00  0.00     0.026 A 
HETATM   16  C   UNL     1       6.968  33.082  61.953  1.00  0.00     0.035 A 
HETATM   17 CL   UNL     1       6.218  34.414  62.742  1.00  0.00    -0.084 Cl
HETATM   18  C   UNL     1       6.652  32.804  60.623  1.00  0.00     0.039 A 
BRANCH  13  19
HETATM   19  O   UNL     1       8.820  29.849  60.131  1.00  0.00    -0.360 OA
HETATM   20  H   UNL     1       9.222  29.330  60.862  1.00  0.00     0.217 HD
ENDBRANCH  13  19
ENDBRANCH  11  12
ENDBRANCH   7  10
ENDBRANCH   5   6
BRANCH   1  21
HETATM   21  C   UNL     1       7.263  28.153  53.847  1.00  0.00     0.296 C 
BRANCH  21  22
HETATM   22  N   UNL     1       7.512  26.713  54.273  1.00  0.00    -0.065 N 
HETATM   23  C   UNL     1       7.662  26.627  55.778  1.00  0.00     0.270 C 
HETATM   24  H   UNL     1       8.434  26.434  53.881  1.00  0.00     0.280 HD
BRANCH  22  25
HETATM   25  C   UNL     1       6.471  25.716  53.729  1.00  0.00     0.188 C 
HETATM   26  C   UNL     1       6.745  25.327  52.264  1.00  0.00     0.033 C 
HETATM   27  C   UNL     1       8.022  24.507  52.083  1.00  0.00     0.002 C 
HETATM   28  C   UNL     1       8.028  23.267  52.973  1.00  0.00     0.000 C 
HETATM   29  C   UNL     1       7.715  23.591  54.431  1.00  0.00     0.002 C 
HETATM   30  C   UNL     1       6.437  24.419  54.563  1.00  0.00     0.033 C 
ENDBRANCH  22  25
ENDBRANCH  21  22
ENDBRANCH   1  21
BRANCH   2  31
HETATM   31  C   UNL     1       5.296  28.918  51.546  1.00  0.00     0.229 A 
HETATM   32  N   UNL     1       5.984  29.895  50.951  1.00  0.00    -0.081 NA
HETATM   33  O   UNL     1       6.023  29.506  49.609  1.00  0.00    -0.103 OA
HETATM   34  N   UNL     1       5.360  28.303  49.417  1.00  0.00    -0.083 NA
HETATM   35  C   UNL     1       4.904  27.941  50.615  1.00  0.00     0.201 A 
BRANCH  35  36
HETATM   36  N   UNL     1       4.205  26.819  50.854  1.00  0.00    -0.379 N 
HETATM   37  H   UNL     1       4.687  25.986  51.179  1.00  0.00     0.158 HD
HETATM   38  H   UNL     1       3.276  26.648  50.475  1.00  0.00     0.158 HD
ENDBRANCH  35  36
ENDBRANCH   2  31
TORSDOF 9
ENDMDL
MODEL 5
REMARK VINA RESULT:      -8.8      3.285      5.868
REMARK  9 active torsions:
REMARK  status: ('A' for Active; 'I' for Inactive)
REMARK    1  A    between atoms: N_2  and  C_4 
REMARK    2  A    between atoms: N_2  and  C_10 
REMARK    3  A    between atoms: C_10  and  C_11 
REMARK    4  A    between atoms: N_12  and  C_13 
REMARK    5  A    between atoms: C_17  and  N_18 
REMARK    6  A    between atoms: C_21  and  C_22 
REMARK       I    between atoms: C_22  and  N_23 
REMARK    7  A    between atoms: N_23  and  N_24 
REMARK    8  A    between atoms: C_25  and  C_26 
REMARK    9  A    between atoms: C_27  and  O_28 
ROOT
HETATM    1  C   UNL     1       6.007  28.266  57.199  1.00  0.00     0.102 A 
HETATM    2  N   UNL     1       5.924  29.625  57.540  1.00  0.00    -0.191 N 
HETATM    3  N   UNL     1       7.055  29.973  58.210  1.00  0.00    -0.058 NA
HETATM    4  N   UNL     1       7.902  28.962  58.197  1.00  0.00    -0.124 NA
HETATM    5  C   UNL     1       7.303  27.912  57.565  1.00  0.00     0.176 A 
ENDROOT
BRANCH   5   6
HETATM    6  C   UNL     1       7.980  26.640  57.369  1.00  0.00     0.294 C 
HETATM    7  N   UNL     1       7.188  25.528  57.586  1.00  0.00    -0.242 N 
HETATM    8  H   UNL     1       6.219  25.637  57.881  1.00  0.00     0.192 HD
HETATM    9  O   UNL     1       9.156  26.605  57.010  1.00  0.00    -0.264 OA
BRANCH   7  10
HETATM   10  N   UNL     1       7.699  24.294  57.333  1.00  0.00    -0.183 NA
HETATM   11  C   UNL     1       7.275  23.705  56.258  1.00  0.00     0.153 C 
BRANCH  11  12
HETATM   12  C   UNL     1       7.791  22.372  55.879  1.00  0.00     0.018 A 
HETATM   13  C   UNL     1       8.253  21.454  56.833  1.00  0.00     0.077 A 
HETATM   14  C   UNL     1       8.746  20.214  56.436  1.00  0.00     0.039 A 
HETATM   15  C   UNL     1       8.779  19.882  55.081  1.00  0.00     0.026 A 
HETATM   16  C   UNL     1       8.317  20.795  54.133  1.00  0.00     0.035 A 
HETATM   17 CL   UNL     1       8.359  20.384  52.463  1.00  0.00    -0.084 Cl
HETATM   18  C   UNL     1       7.822  22.041  54.522  1.00  0.00     0.039 A 
BRANCH  13  19
HETATM   19  O   UNL     1       8.255  21.705  58.178  1.00  0.00    -0.360 OA
HETATM   20  H   UNL     1       7.387  22.103  58.411  1.00  0.00     0.217 HD
ENDBRANCH  13  19
ENDBRANCH  11  12
ENDBRANCH   7  10
ENDBRANCH   5   6
BRANCH   1  21
HETATM   21  C   UNL     1       4.903  27.534  56.511  1.00  0.00     0.296 C 
BRANCH  21  22
HETATM   22  N   UNL     1       4.863  27.608  54.991  1.00  0.00    -0.065 N 
HETATM   23  C   UNL     1       3.885  28.675  54.542  1.00  0.00     0.270 C 
HETATM   24  H   UNL     1       4.472  26.707  54.652  1.00  0.00     0.280 HD
BRANCH  22  25
HETATM   25  C   UNL     1       6.249  27.773  54.340  1.00  0.00     0.188 C 
HETATM   26  C   UNL     1       6.965  26.423  54.143  1.00  0.00     0.033 C 
HETATM   27  C   UNL     1       6.289  25.523  53.110  1.00  0.00     0.002 C 
HETATM   28  C   UNL     1       6.114  26.233  51.771  1.00  0.00     0.000 C 
HETATM   29  C   UNL     1       5.450  27.599  51.914  1.00  0.00     0.002 C 
HETATM   30  C   UNL     1       6.152  28.460  52.963  1.00  0.00     0.033 C 
ENDBRANCH  22  25
ENDBRANCH  21  22
ENDBRANCH   1  21
BRANCH   2  31
HETATM   31  C   UNL     1       4.899  30.564  57.266  1.00  0.00     0.229 A 
HETATM   32  N   UNL     1       4.983  31.357  56.196  1.00  0.00    -0.081 NA
HETATM   33  O   UNL     1       3.826  32.138  56.268  1.00  0.00    -0.103 OA
HETATM   34  N   UNL     1       3.065  31.804  57.379  1.00  0.00    -0.083 NA
HETATM   35  C   UNL     1       3.731  30.833  58.000  1.00  0.00     0.201 A 
BRANCH  35  36
HETATM   36  N   UNL     1       3.318  30.230  59.127  1.00  0.00    -0.379 N 
HETATM   37  H   UNL     1       2.739  29.397  59.068  1.00  0.00     0.158 HD
HETATM   38  H   UNL     1       3.304  30.690  60.035  1.00  0.00     0.158 HD
ENDBRANCH  35  36
ENDBRANCH   2  31
TORSDOF 9
ENDMDL
MODEL 6
REMARK VINA RESULT:      -8.7      2.100      2.866
REMARK  9 active torsions:
REMARK  status: ('A' for Active; 'I' for Inactive)
REMARK    1  A    between atoms: N_2  and  C_4 
REMARK    2  A    between atoms: N_2  and  C_10 
REMARK    3  A    between atoms: C_10  and  C_11 
REMARK    4  A    between atoms: N_12  and  C_13 
REMARK    5  A    between atoms: C_17  and  N_18 
REMARK    6  A    between atoms: C_21  and  C_22 
REMARK       I    between atoms: C_22  and  N_23 
REMARK    7  A    between atoms: N_23  and  N_24 
REMARK    8  A    between atoms: C_25  and  C_26 
REMARK    9  A    between atoms: C_27  and  O_28 
ROOT
HETATM    1  C   UNL     1       6.529  29.709  57.259  1.00  0.00     0.102 A 
HETATM    2  N   UNL     1       5.596  30.671  56.843  1.00  0.00    -0.191 N 
HETATM    3  N   UNL     1       5.347  30.491  55.518  1.00  0.00    -0.058 NA
HETATM    4  N   UNL     1       5.959  29.399  55.102  1.00  0.00    -0.124 NA
HETATM    5  C   UNL     1       6.669  28.883  56.146  1.00  0.00     0.176 A 
ENDROOT
BRANCH   5   6
HETATM    6  C   UNL     1       7.450  27.662  56.022  1.00  0.00     0.294 C 
HETATM    7  N   UNL     1       6.988  26.605  56.784  1.00  0.00    -0.242 N 
HETATM    8  H   UNL     1       6.176  26.722  57.388  1.00  0.00     0.192 HD
HETATM    9  O   UNL     1       8.417  27.612  55.264  1.00  0.00    -0.264 OA
BRANCH   7  10
HETATM   10  N   UNL     1       7.590  25.392  56.662  1.00  0.00    -0.183 NA
HETATM   11  C   UNL     1       6.976  24.517  55.928  1.00  0.00     0.153 C 
BRANCH  11  12
HETATM   12  C   UNL     1       7.562  23.176  55.711  1.00  0.00     0.018 A 
HETATM   13  C   UNL     1       8.208  22.471  56.736  1.00  0.00     0.077 A 
HETATM   14  C   UNL     1       8.761  21.218  56.487  1.00  0.00     0.039 A 
HETATM   15  C   UNL     1       8.670  20.659  55.212  1.00  0.00     0.026 A 
HETATM   16  C   UNL     1       8.024  21.361  54.193  1.00  0.00     0.035 A 
HETATM   17 CL   UNL     1       7.915  20.671  52.621  1.00  0.00    -0.084 Cl
HETATM   18  C   UNL     1       7.469  22.618  54.433  1.00  0.00     0.039 A 
BRANCH  13  19
HETATM   19  O   UNL     1       8.339  22.951  58.010  1.00  0.00    -0.360 OA
HETATM   20  H   UNL     1       9.080  22.468  58.438  1.00  0.00     0.217 HD
ENDBRANCH  13  19
ENDBRANCH  11  12
ENDBRANCH   7  10
ENDBRANCH   5   6
BRANCH   1  21
HETATM   21  C   UNL     1       7.078  29.658  58.645  1.00  0.00     0.296 C 
BRANCH  21  22
HETATM   22  N   UNL     1       8.375  30.411  58.906  1.00  0.00    -0.065 N 
HETATM   23  C   UNL     1       9.289  30.321  57.701  1.00  0.00     0.270 C 
HETATM   24  H   UNL     1       8.870  29.911  59.672  1.00  0.00     0.280 HD
BRANCH  22  25
HETATM   25  C   UNL     1       8.167  31.864  59.375  1.00  0.00     0.188 C 
HETATM   26  C   UNL     1       7.073  31.977  60.454  1.00  0.00     0.033 C 
HETATM   27  C   UNL     1       7.456  31.319  61.779  1.00  0.00     0.002 C 
HETATM   28  C   UNL     1       8.784  31.852  62.310  1.00  0.00     0.000 C 
HETATM   29  C   UNL     1       9.894  31.806  61.265  1.00  0.00     0.002 C 
HETATM   30  C   UNL     1       9.463  32.465  59.955  1.00  0.00     0.033 C 
ENDBRANCH  22  25
ENDBRANCH  21  22
ENDBRANCH   1  21
BRANCH   2  31
HETATM   31  C   UNL     1       4.947  31.683  57.593  1.00  0.00     0.229 A 
HETATM   32  N   UNL     1       5.295  32.962  57.439  1.00  0.00    -0.081 NA
HETATM   33  O   UNL     1       4.468  33.644  58.337  1.00  0.00    -0.103 OA
HETATM   34  N   UNL     1       3.636  32.766  59.017  1.00  0.00    -0.083 NA
HETATM   35  C   UNL     1       3.936  31.551  58.561  1.00  0.00     0.201 A 
BRANCH  35  36
HETATM   36  N   UNL     1       3.342  30.418  58.972  1.00  0.00    -0.379 N 
HETATM   37  H   UNL     1       3.648  29.974  59.834  1.00  0.00     0.158 HD
HETATM   38  H   UNL     1       2.803  29.815  58.356  1.00  0.00     0.158 HD
ENDBRANCH  35  36
ENDBRANCH   2  31
TORSDOF 9
ENDMDL
MODEL 7
REMARK VINA RESULT:      -8.7      5.070      7.407
REMARK  9 active torsions:
REMARK  status: ('A' for Active; 'I' for Inactive)
REMARK    1  A    between atoms: N_2  and  C_4 
REMARK    2  A    between atoms: N_2  and  C_10 
REMARK    3  A    between atoms: C_10  and  C_11 
REMARK    4  A    between atoms: N_12  and  C_13 
REMARK    5  A    between atoms: C_17  and  N_18 
REMARK    6  A    between atoms: C_21  and  C_22 
REMARK       I    between atoms: C_22  and  N_23 
REMARK    7  A    between atoms: N_23  and  N_24 
REMARK    8  A    between atoms: C_25  and  C_26 
REMARK    9  A    between atoms: C_27  and  O_28 
ROOT
HETATM    1  C   UNL     1       5.648  27.740  51.740  1.00  0.00     0.102 A 
HETATM    2  N   UNL     1       5.274  28.451  50.589  1.00  0.00    -0.191 N 
HETATM    3  N   UNL     1       4.843  27.565  49.652  1.00  0.00    -0.058 NA
HETATM    4  N   UNL     1       4.794  26.358  50.180  1.00  0.00    -0.124 NA
HETATM    5  C   UNL     1       5.254  26.433  51.461  1.00  0.00     0.176 A 
ENDROOT
BRANCH   5   6
HETATM    6  C   UNL     1       5.316  25.269  52.331  1.00  0.00     0.294 C 
HETATM    7  N   UNL     1       6.586  24.752  52.510  1.00  0.00    -0.242 N 
HETATM    8  H   UNL     1       7.383  25.170  52.033  1.00  0.00     0.192 HD
HETATM    9  O   UNL     1       4.298  24.832  52.866  1.00  0.00    -0.264 OA
BRANCH   7  10
HETATM   10  N   UNL     1       6.763  23.725  53.383  1.00  0.00    -0.183 NA
HETATM   11  C   UNL     1       7.866  23.053  53.266  1.00  0.00     0.153 C 
BRANCH  11  12
HETATM   12  C   UNL     1       8.164  21.934  54.185  1.00  0.00     0.018 A 
HETATM   13  C   UNL     1       8.409  20.634  53.721  1.00  0.00     0.077 A 
HETATM   14  C   UNL     1       8.670  19.603  54.620  1.00  0.00     0.039 A 
HETATM   15  C   UNL     1       8.691  19.866  55.990  1.00  0.00     0.026 A 
HETATM   16  C   UNL     1       8.450  21.160  56.451  1.00  0.00     0.035 A 
HETATM   17 CL   UNL     1       8.475  21.481  58.141  1.00  0.00    -0.084 Cl
HETATM   18  C   UNL     1       8.186  22.199  55.558  1.00  0.00     0.039 A 
BRANCH  13  19
HETATM   19  O   UNL     1       8.404  20.297  52.395  1.00  0.00    -0.360 OA
HETATM   20  H   UNL     1       7.921  21.000  51.908  1.00  0.00     0.217 HD
ENDBRANCH  13  19
ENDBRANCH  11  12
ENDBRANCH   7  10
ENDBRANCH   5   6
BRANCH   1  21
HETATM   21  C   UNL     1       6.231  28.397  52.946  1.00  0.00     0.296 C 
BRANCH  21  22
HETATM   22  N   UNL     1       5.386  28.402  54.211  1.00  0.00    -0.065 N 
HETATM   23  C   UNL     1       3.917  28.534  53.863  1.00  0.00     0.270 C 
HETATM   24  H   UNL     1       5.630  29.264  54.738  1.00  0.00     0.280 HD
BRANCH  22  25
HETATM   25  C   UNL     1       5.661  27.209  55.146  1.00  0.00     0.188 C 
HETATM   26  C   UNL     1       7.167  26.975  55.367  1.00  0.00     0.033 C 
HETATM   27  C   UNL     1       7.846  28.096  56.154  1.00  0.00     0.002 C 
HETATM   28  C   UNL     1       7.147  28.353  57.486  1.00  0.00     0.000 C 
HETATM   29  C   UNL     1       5.641  28.545  57.330  1.00  0.00     0.002 C 
HETATM   30  C   UNL     1       5.007  27.408  56.529  1.00  0.00     0.033 C 
ENDBRANCH  22  25
ENDBRANCH  21  22
ENDBRANCH   1  21
BRANCH   2  31
HETATM   31  C   UNL     1       5.284  29.848  50.348  1.00  0.00     0.229 A 
HETATM   32  N   UNL     1       6.381  30.440  49.869  1.00  0.00    -0.081 NA
HETATM   33  O   UNL     1       6.022  31.788  49.783  1.00  0.00    -0.103 OA
HETATM   34  N   UNL     1       4.716  31.987  50.210  1.00  0.00    -0.083 NA
HETATM   35  C   UNL     1       4.261  30.787  50.565  1.00  0.00     0.201 A 
BRANCH  35  36
HETATM   36  N   UNL     1       3.024  30.552  51.035  1.00  0.00    -0.379 N 
HETATM   37  H   UNL     1       2.903  30.235  51.993  1.00  0.00     0.158 HD
HETATM   38  H   UNL     1       2.218  30.397  50.434  1.00  0.00     0.158 HD
ENDBRANCH  35  36
ENDBRANCH   2  31
TORSDOF 9
ENDMDL
MODEL 8
REMARK VINA RESULT:      -8.6      2.680      4.850
REMARK  9 active torsions:
REMARK  status: ('A' for Active; 'I' for Inactive)
REMARK    1  A    between atoms: N_2  and  C_4 
REMARK    2  A    between atoms: N_2  and  C_10 
REMARK    3  A    between atoms: C_10  and  C_11 
REMARK    4  A    between atoms: N_12  and  C_13 
REMARK    5  A    between atoms: C_17  and  N_18 
REMARK    6  A    between atoms: C_21  and  C_22 
REMARK       I    between atoms: C_22  and  N_23 
REMARK    7  A    between atoms: N_23  and  N_24 
REMARK    8  A    between atoms: C_25  and  C_26 
REMARK    9  A    between atoms: C_27  and  O_28 
ROOT
HETATM    1  C   UNL     1       6.202  32.056  61.848  1.00  0.00     0.102 A 
HETATM    2  N   UNL     1       6.691  32.480  63.093  1.00  0.00    -0.191 N 
HETATM    3  N   UNL     1       8.044  32.339  63.099  1.00  0.00    -0.058 NA
HETATM    4  N   UNL     1       8.452  31.981  61.897  1.00  0.00    -0.124 NA
HETATM    5  C   UNL     1       7.354  31.825  61.102  1.00  0.00     0.176 A 
ENDROOT
BRANCH   5   6
HETATM    6  C   UNL     1       7.461  31.444  59.702  1.00  0.00     0.294 C 
HETATM    7  N   UNL     1       7.887  30.146  59.490  1.00  0.00    -0.242 N 
HETATM    8  H   UNL     1       8.119  29.546  60.279  1.00  0.00     0.192 HD
HETATM    9  O   UNL     1       7.157  32.238  58.813  1.00  0.00    -0.264 OA
BRANCH   7  10
HETATM   10  N   UNL     1       7.924  29.664  58.219  1.00  0.00    -0.183 NA
HETATM   11  C   UNL     1       7.365  28.509  58.026  1.00  0.00     0.153 C 
BRANCH  11  12
HETATM   12  C   UNL     1       7.329  27.910  56.675  1.00  0.00     0.018 A 
HETATM   13  C   UNL     1       7.013  28.663  55.535  1.00  0.00     0.077 A 
HETATM   14  C   UNL     1       6.973  28.058  54.281  1.00  0.00     0.039 A 
HETATM   15  C   UNL     1       7.251  26.696  54.158  1.00  0.00     0.026 A 
HETATM   16  C   UNL     1       7.567  25.949  55.293  1.00  0.00     0.035 A 
HETATM   17 CL   UNL     1       7.908  24.270  55.139  1.00  0.00    -0.084 Cl
HETATM   18  C   UNL     1       7.608  26.546  56.553  1.00  0.00     0.039 A 
BRANCH  13  19
HETATM   19  O   UNL     1       6.728  30.001  55.573  1.00  0.00    -0.360 OA
HETATM   20  H   UNL     1       7.037  30.349  56.437  1.00  0.00     0.217 HD
ENDBRANCH  13  19
ENDBRANCH  11  12
ENDBRANCH   7  10
ENDBRANCH   5   6
BRANCH   1  21
HETATM   21  C   UNL     1       4.746  32.014  61.521  1.00  0.00     0.296 C 
BRANCH  21  22
HETATM   22  N   UNL     1       4.264  32.906  60.385  1.00  0.00    -0.065 N 
HETATM   23  C   UNL     1       3.858  32.067  59.191  1.00  0.00     0.270 C 
HETATM   24  H   UNL     1       5.081  33.467  60.070  1.00  0.00     0.280 HD
BRANCH  22  25
HETATM   25  C   UNL     1       3.166  33.903  60.801  1.00  0.00     0.188 C 
HETATM   26  C   UNL     1       3.614  34.815  61.959  1.00  0.00     0.033 C 
HETATM   27  C   UNL     1       4.726  35.788  61.570  1.00  0.00     0.002 C 
HETATM   28  C   UNL     1       4.343  36.624  60.352  1.00  0.00     0.000 C 
HETATM   29  C   UNL     1       3.847  35.771  59.188  1.00  0.00     0.002 C 
HETATM   30  C   UNL     1       2.744  34.807  59.626  1.00  0.00     0.033 C 
ENDBRANCH  22  25
ENDBRANCH  21  22
ENDBRANCH   1  21
BRANCH   2  31
HETATM   31  C   UNL     1       5.990  33.001  64.209  1.00  0.00     0.229 A 
HETATM   32  N   UNL     1       4.712  32.675  64.412  1.00  0.00    -0.081 NA
HETATM   33  O   UNL     1       4.368  33.379  65.570  1.00  0.00    -0.103 OA
HETATM   34  N   UNL     1       5.443  34.116  66.046  1.00  0.00    -0.083 NA
HETATM   35  C   UNL     1       6.446  33.888  65.201  1.00  0.00     0.201 A 
BRANCH  35  36
HETATM   36  N   UNL     1       7.673  34.422  65.316  1.00  0.00    -0.379 N 
HETATM   37  H   UNL     1       8.274  34.137  66.085  1.00  0.00     0.158 HD
HETATM   38  H   UNL     1       7.950  35.290  64.864  1.00  0.00     0.158 HD
ENDBRANCH  35  36
ENDBRANCH   2  31
TORSDOF 9
ENDMDL
MODEL 9
REMARK VINA RESULT:      -8.5      4.263     10.039
REMARK  9 active torsions:
REMARK  status: ('A' for Active; 'I' for Inactive)
REMARK    1  A    between atoms: N_2  and  C_4 
REMARK    2  A    between atoms: N_2  and  C_10 
REMARK    3  A    between atoms: C_10  and  C_11 
REMARK    4  A    between atoms: N_12  and  C_13 
REMARK    5  A    between atoms: C_17  and  N_18 
REMARK    6  A    between atoms: C_21  and  C_22 
REMARK       I    between atoms: C_22  and  N_23 
REMARK    7  A    between atoms: N_23  and  N_24 
REMARK    8  A    between atoms: C_25  and  C_26 
REMARK    9  A    between atoms: C_27  and  O_28 
ROOT
HETATM    1  C   UNL     1       7.512  23.990  55.084  1.00  0.00     0.102 A 
HETATM    2  N   UNL     1       8.384  22.892  55.138  1.00  0.00    -0.191 N 
HETATM    3  N   UNL     1       9.208  23.045  56.209  1.00  0.00    -0.058 NA
HETATM    4  N   UNL     1       8.828  24.096  56.908  1.00  0.00    -0.124 NA
HETATM    5  C   UNL     1       7.778  24.681  56.263  1.00  0.00     0.176 A 
ENDROOT
BRANCH   5   6
HETATM    6  C   UNL     1       7.112  25.864  56.785  1.00  0.00     0.294 C 
HETATM    7  N   UNL     1       7.881  27.013  56.766  1.00  0.00    -0.242 N 
HETATM    8  H   UNL     1       8.841  26.983  56.426  1.00  0.00     0.192 HD
HETATM    9  O   UNL     1       5.946  25.806  57.174  1.00  0.00    -0.264 OA
BRANCH   7  10
HETATM   10  N   UNL     1       7.316  28.191  57.140  1.00  0.00    -0.183 NA
HETATM   11  C   UNL     1       7.909  28.836  58.096  1.00  0.00     0.153 C 
BRANCH  11  12
HETATM   12  C   UNL     1       7.387  30.141  58.557  1.00  0.00     0.018 A 
HETATM   13  C   UNL     1       7.810  30.730  59.757  1.00  0.00     0.077 A 
HETATM   14  C   UNL     1       7.283  31.952  60.165  1.00  0.00     0.039 A 
HETATM   15  C   UNL     1       6.330  32.595  59.375  1.00  0.00     0.026 A 
HETATM   16  C   UNL     1       5.912  32.010  58.180  1.00  0.00     0.035 A 
HETATM   17 CL   UNL     1       4.735  32.805  57.208  1.00  0.00    -0.084 Cl
HETATM   18  C   UNL     1       6.433  30.784  57.763  1.00  0.00     0.039 A 
BRANCH  13  19
HETATM   19  O   UNL     1       8.738  30.161  60.587  1.00  0.00    -0.360 OA
HETATM   20  H   UNL     1       8.543  29.200  60.640  1.00  0.00     0.217 HD
ENDBRANCH  13  19
ENDBRANCH  11  12
ENDBRANCH   7  10
ENDBRANCH   5   6
BRANCH   1  21
HETATM   21  C   UNL     1       6.513  24.179  53.991  1.00  0.00     0.296 C 
BRANCH  21  22
HETATM   22  N   UNL     1       6.682  25.401  53.099  1.00  0.00    -0.065 N 
HETATM   23  C   UNL     1       7.722  25.133  52.031  1.00  0.00     0.270 C 
HETATM   24  H   UNL     1       7.076  26.159  53.692  1.00  0.00     0.280 HD
BRANCH  22  25
HETATM   25  C   UNL     1       5.360  25.928  52.511  1.00  0.00     0.188 C 
HETATM   26  C   UNL     1       4.377  26.390  53.604  1.00  0.00     0.033 C 
HETATM   27  C   UNL     1       4.850  27.632  54.359  1.00  0.00     0.002 C 
HETATM   28  C   UNL     1       5.167  28.783  53.408  1.00  0.00     0.000 C 
HETATM   29  C   UNL     1       6.102  28.367  52.276  1.00  0.00     0.002 C 
HETATM   30  C   UNL     1       5.596  27.117  51.557  1.00  0.00     0.033 C 
ENDBRANCH  22  25
ENDBRANCH  21  22
ENDBRANCH   1  21
BRANCH   2  31
HETATM   31  C   UNL     1       8.463  21.758  54.290  1.00  0.00     0.229 A 
HETATM   32  N   UNL     1       8.113  21.854  53.006  1.00  0.00    -0.081 NA
HETATM   33  O   UNL     1       8.303  20.561  52.511  1.00  0.00    -0.103 OA
HETATM   34  N   UNL     1       8.764  19.708  53.504  1.00  0.00    -0.083 NA
HETATM   35  C   UNL     1       8.858  20.447  54.607  1.00  0.00     0.201 A 
BRANCH  35  36
HETATM   36  N   UNL     1       9.275  19.986  55.798  1.00  0.00    -0.379 N 
HETATM   37  H   UNL     1      10.230  20.162  56.098  1.00  0.00     0.158 HD
HETATM   38  H   UNL     1       8.806  19.238  56.303  1.00  0.00     0.158 HD
ENDBRANCH  35  36
ENDBRANCH   2  31
TORSDOF 9
ENDMDL
MODEL 10
REMARK VINA RESULT:      -8.2      3.880      9.014
REMARK  9 active torsions:
REMARK  status: ('A' for Active; 'I' for Inactive)
REMARK    1  A    between atoms: N_2  and  C_4 
REMARK    2  A    between atoms: N_2  and  C_10 
REMARK    3  A    between atoms: C_10  and  C_11 
REMARK    4  A    between atoms: N_12  and  C_13 
REMARK    5  A    between atoms: C_17  and  N_18 
REMARK    6  A    between atoms: C_21  and  C_22 
REMARK       I    between atoms: C_22  and  N_23 
REMARK    7  A    between atoms: N_23  and  N_24 
REMARK    8  A    between atoms: C_25  and  C_26 
REMARK    9  A    between atoms: C_27  and  O_28 
ROOT
HETATM    1  C   UNL     1       7.447  29.398  57.588  1.00  0.00     0.102 A 
HETATM    2  N   UNL     1       8.163  28.416  56.887  1.00  0.00    -0.191 N 
HETATM    3  N   UNL     1       9.492  28.679  57.005  1.00  0.00    -0.058 NA
HETATM    4  N   UNL     1       9.667  29.683  57.842  1.00  0.00    -0.124 NA
HETATM    5  C   UNL     1       8.440  30.129  58.237  1.00  0.00     0.176 A 
ENDROOT
BRANCH   5   6
HETATM    6  C   UNL     1       8.281  31.227  59.178  1.00  0.00     0.294 C 
HETATM    7  N   UNL     1       7.483  30.937  60.269  1.00  0.00    -0.242 N 
HETATM    8  H   UNL     1       7.042  30.023  60.356  1.00  0.00     0.192 HD
HETATM    9  O   UNL     1       8.856  32.299  58.992  1.00  0.00    -0.264 OA
BRANCH   7  10
HETATM   10  N   UNL     1       7.354  31.864  61.256  1.00  0.00    -0.183 NA
HETATM   11  C   UNL     1       6.334  31.727  62.045  1.00  0.00     0.153 C 
BRANCH  11  12
HETATM   12  C   UNL     1       6.120  32.668  63.165  1.00  0.00     0.018 A 
HETATM   13  C   UNL     1       7.177  33.132  63.960  1.00  0.00     0.077 A 
HETATM   14  C   UNL     1       6.932  34.005  65.017  1.00  0.00     0.039 A 
HETATM   15  C   UNL     1       5.627  34.421  65.285  1.00  0.00     0.026 A 
HETATM   16  C   UNL     1       4.576  33.961  64.492  1.00  0.00     0.035 A 
HETATM   17 CL   UNL     1       2.969  34.474  64.825  1.00  0.00    -0.084 Cl
HETATM   18  C   UNL     1       4.812  33.084  63.432  1.00  0.00     0.039 A 
BRANCH  13  19
HETATM   19  O   UNL     1       8.481  32.770  63.762  1.00  0.00    -0.360 OA
HETATM   20  H   UNL     1       8.488  31.981  63.177  1.00  0.00     0.217 HD
ENDBRANCH  13  19
ENDBRANCH  11  12
ENDBRANCH   7  10
ENDBRANCH   5   6
BRANCH   1  21
HETATM   21  C   UNL     1       5.956  29.452  57.613  1.00  0.00     0.296 C 
BRANCH  21  22
HETATM   22  N   UNL     1       5.284  30.498  56.735  1.00  0.00    -0.065 N 
HETATM   23  C   UNL     1       5.037  29.942  55.348  1.00  0.00     0.270 C 
HETATM   24  H   UNL     1       5.965  31.274  56.610  1.00  0.00     0.280 HD
BRANCH  22  25
HETATM   25  C   UNL     1       4.013  31.108  57.357  1.00  0.00     0.188 C 
HETATM   26  C   UNL     1       4.300  31.815  58.695  1.00  0.00     0.033 C 
HETATM   27  C   UNL     1       5.155  33.073  58.546  1.00  0.00     0.002 C 
HETATM   28  C   UNL     1       4.548  34.053  57.546  1.00  0.00     0.000 C 
HETATM   29  C   UNL     1       4.201  33.392  56.215  1.00  0.00     0.002 C 
HETATM   30  C   UNL     1       3.355  32.134  56.413  1.00  0.00     0.033 C 
ENDBRANCH  22  25
ENDBRANCH  21  22
ENDBRANCH   1  21
BRANCH   2  31
HETATM   31  C   UNL     1       7.686  27.292  56.167  1.00  0.00     0.229 A 
HETATM   32  N   UNL     1       7.485  27.373  54.850  1.00  0.00    -0.081 NA
HETATM   33  O   UNL     1       7.008  26.105  54.507  1.00  0.00    -0.103 OA
HETATM   34  N   UNL     1       6.929  25.281  55.621  1.00  0.00    -0.083 NA
HETATM   35  C   UNL     1       7.343  26.017  56.650  1.00  0.00     0.201 A 
BRANCH  35  36
HETATM   36  N   UNL     1       7.418  25.577  57.917  1.00  0.00    -0.379 N 
HETATM   37  H   UNL     1       6.594  25.610  58.510  1.00  0.00     0.158 HD
HETATM   38  H   UNL     1       8.296  25.471  58.421  1.00  0.00     0.158 HD
ENDBRANCH  35  36
ENDBRANCH   2  31
TORSDOF 9
ENDMDL
