MODEL 1
REMARK VINA RESULT:      -9.3      0.000      0.000
REMARK  6 active torsions:
REMARK  status: ('A' for Active; 'I' for Inactive)
REMARK    1  A    between atoms: N_2  and  C_4 
REMARK    2  A    between atoms: C_4  and  C_5 
REMARK       I    between atoms: C_5  and  N_7 
REMARK    3  A    between atoms: N_7  and  C_8 
REMARK    4  A    between atoms: C_8  and  C_9 
REMARK    5  A    between atoms: C_8  and  C_26 
REMARK    6  A    between atoms: C_14  and  C_20 
ROOT
HETATM    1  C   UNL     1       6.202  27.988  55.508  1.00  0.00     0.135 A 
HETATM    2  N   UNL     1       6.808  27.555  54.445  1.00  0.00    -0.232 NA
HETATM    3  C   UNL     1       7.044  26.174  54.344  1.00  0.00     0.074 A 
HETATM    4  C   UNL     1       7.726  25.689  53.229  1.00  0.00     0.033 A 
HETATM    5  C   UNL     1       8.030  24.327  53.117  1.00  0.00     0.014 A 
HETATM    6  C   UNL     1       7.658  23.424  54.123  1.00  0.00    -0.022 A 
HETATM    7  C   UNL     1       6.951  23.903  55.232  1.00  0.00     0.031 A 
HETATM    8  C   UNL     1       6.654  25.268  55.332  1.00  0.00     0.061 A 
HETATM    9  C   UNL     1       5.928  25.803  56.495  1.00  0.00     0.259 A 
HETATM   10  O   UNL     1       5.483  25.079  57.377  1.00  0.00    -0.267 OA
HETATM   11  N   UNL     1       5.790  27.164  56.524  1.00  0.00    -0.309 N 
HETATM   12  H   UNL     1       5.220  27.543  57.268  1.00  0.00     0.170 HD
ENDROOT
BRANCH   1  13
HETATM   13  C   UNL     1       6.007  29.499  55.729  1.00  0.00     0.187 C 
BRANCH  13  14
HETATM   14  N   UNL     1       4.613  29.884  55.933  1.00  0.00    -0.344 N 
HETATM   15  C   UNL     1       3.807  30.517  55.025  1.00  0.00     0.247 C 
HETATM   16  O   UNL     1       2.808  31.105  55.447  1.00  0.00    -0.272 OA
HETATM   17  H   UNL     1       4.336  30.131  56.876  1.00  0.00     0.163 HD
BRANCH  15  18
HETATM   18  C   UNL     1       4.127  30.448  53.530  1.00  0.00     0.373 C 
BRANCH  18  19
HETATM   19  N   UNL     1       3.154  29.591  52.822  1.00  0.00     0.088 N 
HETATM   20  C   UNL     1       3.067  29.946  51.401  1.00  0.00     0.310 C 
HETATM   21  C   UNL     1       3.543  28.185  52.955  1.00  0.00     0.310 C 
ENDBRANCH  18  19
ENDBRANCH  15  18
ENDBRANCH  13  14
BRANCH  13  22
HETATM   22  C   UNL     1       6.884  29.946  56.896  1.00  0.00    -0.028 A 
HETATM   23  C   UNL     1       6.352  30.818  57.863  1.00  0.00     0.011 A 
HETATM   24  C   UNL     1       7.146  31.295  58.910  1.00  0.00     0.024 A 
HETATM   25  C   UNL     1       8.480  30.908  59.000  1.00  0.00     0.034 A 
HETATM   26 CL   UNL     1       9.459  31.500  60.284  1.00  0.00    -0.084 Cl
HETATM   27  C   UNL     1       9.029  30.053  58.048  1.00  0.00     0.024 A 
HETATM   28  C   UNL     1       8.239  29.578  56.997  1.00  0.00     0.011 A 
ENDBRANCH  13  22
ENDBRANCH   1  13
BRANCH   6  29
HETATM   29  C   UNL     1       8.022  22.023  54.013  1.00  0.00     0.010 A 
HETATM   30  C   UNL     1       8.042  21.152  52.899  1.00  0.00     0.152 A 
HETATM   31  N   UNL     1       8.482  19.929  53.205  1.00  0.00    -0.187 NA
HETATM   32  N   UNL     1       8.751  20.011  54.518  1.00  0.00    -0.289 N 
HETATM   33  H   UNL     1       9.115  19.189  54.988  1.00  0.00     0.188 HD
HETATM   34  C   UNL     1       8.494  21.243  55.048  1.00  0.00     0.123 A 
ENDBRANCH   6  29
TORSDOF 6
ENDMDL
MODEL 2
REMARK VINA RESULT:      -9.1      3.045      5.003
REMARK  6 active torsions:
REMARK  status: ('A' for Active; 'I' for Inactive)
REMARK    1  A    between atoms: N_2  and  C_4 
REMARK    2  A    between atoms: C_4  and  C_5 
REMARK       I    between atoms: C_5  and  N_7 
REMARK    3  A    between atoms: N_7  and  C_8 
REMARK    4  A    between atoms: C_8  and  C_9 
REMARK    5  A    between atoms: C_8  and  C_26 
REMARK    6  A    between atoms: C_14  and  C_20 
ROOT
HETATM    1  C   UNL     1       7.576  28.040  57.119  1.00  0.00     0.135 A 
HETATM    2  N   UNL     1       7.980  26.984  57.755  1.00  0.00    -0.232 NA
HETATM    3  C   UNL     1       8.102  25.789  57.027  1.00  0.00     0.074 A 
HETATM    4  C   UNL     1       8.501  24.633  57.696  1.00  0.00     0.033 A 
HETATM    5  C   UNL     1       8.582  23.410  57.020  1.00  0.00     0.014 A 
HETATM    6  C   UNL     1       8.262  23.322  55.657  1.00  0.00    -0.022 A 
HETATM    7  C   UNL     1       7.887  24.486  54.975  1.00  0.00     0.031 A 
HETATM    8  C   UNL     1       7.810  25.702  55.665  1.00  0.00     0.061 A 
HETATM    9  C   UNL     1       7.400  26.939  54.979  1.00  0.00     0.259 A 
HETATM   10  O   UNL     1       7.192  26.977  53.773  1.00  0.00    -0.267 OA
HETATM   11  N   UNL     1       7.264  28.038  55.783  1.00  0.00    -0.309 N 
HETATM   12  H   UNL     1       7.070  28.913  55.318  1.00  0.00     0.170 HD
ENDROOT
BRANCH   1  13
HETATM   13  C   UNL     1       7.319  29.355  57.879  1.00  0.00     0.187 C 
BRANCH  13  14
HETATM   14  N   UNL     1       8.444  30.284  57.833  1.00  0.00    -0.344 N 
HETATM   15  C   UNL     1       8.933  31.018  58.881  1.00  0.00     0.247 C 
HETATM   16  O   UNL     1       9.614  32.014  58.625  1.00  0.00    -0.272 OA
HETATM   17  H   UNL     1       8.599  30.778  56.961  1.00  0.00     0.163 HD
BRANCH  15  18
HETATM   18  C   UNL     1       8.667  30.574  60.322  1.00  0.00     0.373 C 
BRANCH  18  19
HETATM   19  N   UNL     1       8.118  31.687  61.123  1.00  0.00     0.088 N 
HETATM   20  C   UNL     1       6.785  32.075  60.650  1.00  0.00     0.310 C 
HETATM   21  C   UNL     1       8.044  31.293  62.533  1.00  0.00     0.310 C 
ENDBRANCH  18  19
ENDBRANCH  15  18
ENDBRANCH  13  14
BRANCH  13  22
HETATM   22  C   UNL     1       6.043  29.997  57.341  1.00  0.00    -0.028 A 
HETATM   23  C   UNL     1       4.869  29.228  57.253  1.00  0.00     0.011 A 
HETATM   24  C   UNL     1       3.700  29.767  56.709  1.00  0.00     0.024 A 
HETATM   25  C   UNL     1       3.693  31.079  56.244  1.00  0.00     0.034 A 
HETATM   26 CL   UNL     1       2.257  31.740  55.568  1.00  0.00    -0.084 Cl
HETATM   27  C   UNL     1       4.847  31.855  56.313  1.00  0.00     0.024 A 
HETATM   28  C   UNL     1       6.019  31.317  56.852  1.00  0.00     0.011 A 
ENDBRANCH  13  22
ENDBRANCH   1  13
BRANCH   6  29
HETATM   29  C   UNL     1       8.306  22.038  54.981  1.00  0.00     0.010 A 
HETATM   30  C   UNL     1       7.850  21.646  53.701  1.00  0.00     0.152 A 
HETATM   31  N   UNL     1       8.115  20.365  53.427  1.00  0.00    -0.187 NA
HETATM   32  N   UNL     1       8.746  19.932  54.530  1.00  0.00    -0.289 N 
HETATM   33  H   UNL     1       9.061  18.968  54.558  1.00  0.00     0.188 HD
HETATM   34  C   UNL     1       8.887  20.895  55.488  1.00  0.00     0.123 A 
ENDBRANCH   6  29
TORSDOF 6
ENDMDL
MODEL 3
REMARK VINA RESULT:      -9.0      1.944      2.869
REMARK  6 active torsions:
REMARK  status: ('A' for Active; 'I' for Inactive)
REMARK    1  A    between atoms: N_2  and  C_4 
REMARK    2  A    between atoms: C_4  and  C_5 
REMARK       I    between atoms: C_5  and  N_7 
REMARK    3  A    between atoms: N_7  and  C_8 
REMARK    4  A    between atoms: C_8  and  C_9 
REMARK    5  A    between atoms: C_8  and  C_26 
REMARK    6  A    between atoms: C_14  and  C_20 
ROOT
HETATM    1  C   UNL     1       6.507  29.067  56.770  1.00  0.00     0.135 A 
HETATM    2  N   UNL     1       6.369  27.921  57.363  1.00  0.00    -0.232 NA
HETATM    3  C   UNL     1       6.738  26.768  56.650  1.00  0.00     0.074 A 
HETATM    4  C   UNL     1       6.564  25.523  57.252  1.00  0.00     0.033 A 
HETATM    5  C   UNL     1       6.868  24.346  56.557  1.00  0.00     0.014 A 
HETATM    6  C   UNL     1       7.350  24.396  55.241  1.00  0.00    -0.022 A 
HETATM    7  C   UNL     1       7.551  25.645  54.642  1.00  0.00     0.031 A 
HETATM    8  C   UNL     1       7.242  26.813  55.349  1.00  0.00     0.061 A 
HETATM    9  C   UNL     1       7.425  28.140  54.739  1.00  0.00     0.259 A 
HETATM   10  O   UNL     1       7.926  28.286  53.631  1.00  0.00    -0.267 OA
HETATM   11  N   UNL     1       6.991  29.197  55.492  1.00  0.00    -0.309 N 
HETATM   12  H   UNL     1       7.187  30.119  55.130  1.00  0.00     0.170 HD
ENDROOT
BRANCH   1  13
HETATM   13  C   UNL     1       6.023  30.359  57.453  1.00  0.00     0.187 C 
BRANCH  13  14
HETATM   14  N   UNL     1       4.724  30.222  58.107  1.00  0.00    -0.344 N 
HETATM   15  C   UNL     1       3.664  31.080  57.990  1.00  0.00     0.247 C 
HETATM   16  O   UNL     1       2.794  31.051  58.865  1.00  0.00    -0.272 OA
HETATM   17  H   UNL     1       4.711  29.775  59.016  1.00  0.00     0.163 HD
BRANCH  15  18
HETATM   18  C   UNL     1       3.554  32.009  56.778  1.00  0.00     0.373 C 
BRANCH  18  19
HETATM   19  N   UNL     1       2.673  31.426  55.746  1.00  0.00     0.088 N 
HETATM   20  C   UNL     1       1.824  32.451  55.130  1.00  0.00     0.310 C 
HETATM   21  C   UNL     1       3.484  30.774  54.713  1.00  0.00     0.310 C 
ENDBRANCH  18  19
ENDBRANCH  15  18
ENDBRANCH  13  14
BRANCH  13  22
HETATM   22  C   UNL     1       7.093  30.832  58.434  1.00  0.00    -0.028 A 
HETATM   23  C   UNL     1       8.294  30.110  58.542  1.00  0.00     0.011 A 
HETATM   24  C   UNL     1       9.270  30.479  59.473  1.00  0.00     0.024 A 
HETATM   25  C   UNL     1       9.053  31.573  60.307  1.00  0.00     0.034 A 
HETATM   26 CL   UNL     1      10.248  32.023  61.457  1.00  0.00    -0.084 Cl
HETATM   27  C   UNL     1       7.865  32.296  60.223  1.00  0.00     0.024 A 
HETATM   28  C   UNL     1       6.887  31.925  59.296  1.00  0.00     0.011 A 
ENDBRANCH  13  22
ENDBRANCH   1  13
BRANCH   6  29
HETATM   29  C   UNL     1       7.616  23.166  54.518  1.00  0.00     0.010 A 
HETATM   30  C   UNL     1       7.723  21.828  54.965  1.00  0.00     0.152 A 
HETATM   31  N   UNL     1       7.940  20.964  53.970  1.00  0.00    -0.187 NA
HETATM   32  N   UNL     1       7.968  21.744  52.877  1.00  0.00    -0.289 N 
HETATM   33  H   UNL     1       8.113  21.305  51.975  1.00  0.00     0.188 HD
HETATM   34  C   UNL     1       7.777  23.068  53.151  1.00  0.00     0.123 A 
ENDBRANCH   6  29
TORSDOF 6
ENDMDL
MODEL 4
REMARK VINA RESULT:      -8.9      1.917      2.532
REMARK  6 active torsions:
REMARK  status: ('A' for Active; 'I' for Inactive)
REMARK    1  A    between atoms: N_2  and  C_4 
REMARK    2  A    between atoms: C_4  and  C_5 
REMARK       I    between atoms: C_5  and  N_7 
REMARK    3  A    between atoms: N_7  and  C_8 
REMARK    4  A    between atoms: C_8  and  C_9 
REMARK    5  A    between atoms: C_8  and  C_26 
REMARK    6  A    between atoms: C_14  and  C_20 
ROOT
HETATM    1  C   UNL     1       5.388  27.453  54.102  1.00  0.00     0.135 A 
HETATM    2  N   UNL     1       6.074  26.837  53.189  1.00  0.00    -0.232 NA
HETATM    3  C   UNL     1       6.528  25.539  53.477  1.00  0.00     0.074 A 
HETATM    4  C   UNL     1       7.298  24.871  52.526  1.00  0.00     0.033 A 
HETATM    5  C   UNL     1       7.816  23.599  52.795  1.00  0.00     0.014 A 
HETATM    6  C   UNL     1       7.574  22.972  54.026  1.00  0.00    -0.022 A 
HETATM    7  C   UNL     1       6.780  23.628  54.973  1.00  0.00     0.031 A 
HETATM    8  C   UNL     1       6.268  24.901  54.691  1.00  0.00     0.061 A 
HETATM    9  C   UNL     1       5.445  25.623  55.675  1.00  0.00     0.259 A 
HETATM   10  O   UNL     1       5.105  25.119  56.738  1.00  0.00    -0.267 OA
HETATM   11  N   UNL     1       5.093  26.898  55.322  1.00  0.00    -0.309 N 
HETATM   12  H   UNL     1       4.457  27.377  55.943  1.00  0.00     0.170 HD
ENDROOT
BRANCH   1  13
HETATM   13  C   UNL     1       4.952  28.915  53.892  1.00  0.00     0.187 C 
BRANCH  13  14
HETATM   14  N   UNL     1       3.677  29.049  53.192  1.00  0.00    -0.344 N 
HETATM   15  C   UNL     1       3.508  29.227  51.845  1.00  0.00     0.247 C 
HETATM   16  O   UNL     1       2.436  29.693  51.451  1.00  0.00    -0.272 OA
HETATM   17  H   UNL     1       2.916  29.487  53.699  1.00  0.00     0.163 HD
BRANCH  15  18
HETATM   18  C   UNL     1       4.611  28.812  50.868  1.00  0.00     0.373 C 
BRANCH  18  19
HETATM   19  N   UNL     1       4.082  27.902  49.832  1.00  0.00     0.088 N 
HETATM   20  C   UNL     1       4.190  28.498  48.495  1.00  0.00     0.310 C 
HETATM   21  C   UNL     1       4.815  26.633  49.865  1.00  0.00     0.310 C 
ENDBRANCH  18  19
ENDBRANCH  15  18
ENDBRANCH  13  14
BRANCH  13  22
HETATM   22  C   UNL     1       4.921  29.622  55.245  1.00  0.00    -0.028 A 
HETATM   23  C   UNL     1       3.692  30.074  55.757  1.00  0.00     0.011 A 
HETATM   24  C   UNL     1       3.635  30.779  56.963  1.00  0.00     0.024 A 
HETATM   25  C   UNL     1       4.807  31.041  57.668  1.00  0.00     0.034 A 
HETATM   26 CL   UNL     1       4.739  31.913  59.148  1.00  0.00    -0.084 Cl
HETATM   27  C   UNL     1       6.036  30.610  57.174  1.00  0.00     0.024 A 
HETATM   28  C   UNL     1       6.095  29.909  55.966  1.00  0.00     0.011 A 
ENDBRANCH  13  22
ENDBRANCH   1  13
BRANCH   6  29
HETATM   29  C   UNL     1       8.157  21.673  54.307  1.00  0.00     0.010 A 
HETATM   30  C   UNL     1       8.373  20.550  53.474  1.00  0.00     0.152 A 
HETATM   31  N   UNL     1       8.982  19.544  54.107  1.00  0.00    -0.187 NA
HETATM   32  N   UNL     1       9.163  20.019  55.350  1.00  0.00    -0.289 N 
HETATM   33  H   UNL     1       9.625  19.425  56.030  1.00  0.00     0.188 HD
HETATM   34  C   UNL     1       8.689  21.288  55.521  1.00  0.00     0.123 A 
ENDBRANCH   6  29
TORSDOF 6
ENDMDL
MODEL 5
REMARK VINA RESULT:      -8.3      1.571      1.943
REMARK  6 active torsions:
REMARK  status: ('A' for Active; 'I' for Inactive)
REMARK    1  A    between atoms: N_2  and  C_4 
REMARK    2  A    between atoms: C_4  and  C_5 
REMARK       I    between atoms: C_5  and  N_7 
REMARK    3  A    between atoms: N_7  and  C_8 
REMARK    4  A    between atoms: C_8  and  C_9 
REMARK    5  A    between atoms: C_8  and  C_26 
REMARK    6  A    between atoms: C_14  and  C_20 
ROOT
HETATM    1  C   UNL     1       6.371  28.469  56.549  1.00  0.00     0.135 A 
HETATM    2  N   UNL     1       6.072  27.930  55.407  1.00  0.00    -0.232 NA
HETATM    3  C   UNL     1       6.409  26.581  55.213  1.00  0.00     0.074 A 
HETATM    4  C   UNL     1       6.131  25.990  53.981  1.00  0.00     0.033 A 
HETATM    5  C   UNL     1       6.500  24.663  53.728  1.00  0.00     0.014 A 
HETATM    6  C   UNL     1       7.159  23.903  54.705  1.00  0.00    -0.022 A 
HETATM    7  C   UNL     1       7.417  24.485  55.952  1.00  0.00     0.031 A 
HETATM    8  C   UNL     1       7.042  25.813  56.191  1.00  0.00     0.061 A 
HETATM    9  C   UNL     1       7.317  26.457  57.487  1.00  0.00     0.259 A 
HETATM   10  O   UNL     1       7.803  25.845  58.429  1.00  0.00    -0.267 OA
HETATM   11  N   UNL     1       6.996  27.785  57.561  1.00  0.00    -0.309 N 
HETATM   12  H   UNL     1       7.095  28.222  58.466  1.00  0.00     0.170 HD
ENDROOT
BRANCH   1  13
HETATM   13  C   UNL     1       6.126  29.971  56.788  1.00  0.00     0.187 C 
BRANCH  13  14
HETATM   14  N   UNL     1       4.735  30.293  57.097  1.00  0.00    -0.344 N 
HETATM   15  C   UNL     1       3.916  31.120  56.376  1.00  0.00     0.247 C 
HETATM   16  O   UNL     1       2.924  31.589  56.939  1.00  0.00    -0.272 OA
HETATM   17  H   UNL     1       4.472  30.310  58.075  1.00  0.00     0.163 HD
BRANCH  15  18
HETATM   18  C   UNL     1       4.214  31.406  54.902  1.00  0.00     0.373 C 
BRANCH  18  19
HETATM   19  N   UNL     1       3.680  32.725  54.504  1.00  0.00     0.088 N 
HETATM   20  C   UNL     1       4.736  33.581  53.952  1.00  0.00     0.310 C 
HETATM   21  C   UNL     1       2.619  32.550  53.508  1.00  0.00     0.310 C 
ENDBRANCH  18  19
ENDBRANCH  15  18
ENDBRANCH  13  14
BRANCH  13  22
HETATM   22  C   UNL     1       7.068  30.458  57.886  1.00  0.00    -0.028 A 
HETATM   23  C   UNL     1       6.560  31.264  58.920  1.00  0.00     0.011 A 
HETATM   24  C   UNL     1       7.406  31.778  59.907  1.00  0.00     0.024 A 
HETATM   25  C   UNL     1       8.768  31.493  59.869  1.00  0.00     0.034 A 
HETATM   26 CL   UNL     1       9.811  32.131  61.079  1.00  0.00    -0.084 Cl
HETATM   27  C   UNL     1       9.293  30.705  58.848  1.00  0.00     0.024 A 
HETATM   28  C   UNL     1       8.450  30.194  57.857  1.00  0.00     0.011 A 
ENDBRANCH  13  22
ENDBRANCH   1  13
BRANCH   6  29
HETATM   29  C   UNL     1       7.577  22.545  54.410  1.00  0.00     0.010 A 
HETATM   30  C   UNL     1       7.862  21.454  55.264  1.00  0.00     0.152 A 
HETATM   31  N   UNL     1       8.181  20.342  54.596  1.00  0.00    -0.187 NA
HETATM   32  N   UNL     1       8.097  20.715  53.309  1.00  0.00    -0.289 N 
HETATM   33  H   UNL     1       8.291  20.022  52.593  1.00  0.00     0.188 HD
HETATM   34  C   UNL     1       7.738  22.022  53.144  1.00  0.00     0.123 A 
ENDBRANCH   6  29
TORSDOF 6
ENDMDL
MODEL 6
REMARK VINA RESULT:      -8.3      2.291      3.467
REMARK  6 active torsions:
REMARK  status: ('A' for Active; 'I' for Inactive)
REMARK    1  A    between atoms: N_2  and  C_4 
REMARK    2  A    between atoms: C_4  and  C_5 
REMARK       I    between atoms: C_5  and  N_7 
REMARK    3  A    between atoms: N_7  and  C_8 
REMARK    4  A    between atoms: C_8  and  C_9 
REMARK    5  A    between atoms: C_8  and  C_26 
REMARK    6  A    between atoms: C_14  and  C_20 
ROOT
HETATM    1  C   UNL     1       6.565  30.143  57.708  1.00  0.00     0.135 A 
HETATM    2  N   UNL     1       5.686  29.202  57.547  1.00  0.00    -0.232 NA
HETATM    3  C   UNL     1       6.151  27.930  57.176  1.00  0.00     0.074 A 
HETATM    4  C   UNL     1       5.223  26.912  56.961  1.00  0.00     0.033 A 
HETATM    5  C   UNL     1       5.640  25.645  56.537  1.00  0.00     0.014 A 
HETATM    6  C   UNL     1       6.998  25.373  56.318  1.00  0.00    -0.022 A 
HETATM    7  C   UNL     1       7.936  26.385  56.558  1.00  0.00     0.031 A 
HETATM    8  C   UNL     1       7.504  27.648  56.981  1.00  0.00     0.061 A 
HETATM    9  C   UNL     1       8.465  28.736  57.223  1.00  0.00     0.259 A 
HETATM   10  O   UNL     1       9.676  28.567  57.148  1.00  0.00    -0.267 OA
HETATM   11  N   UNL     1       7.912  29.949  57.533  1.00  0.00    -0.309 N 
HETATM   12  H   UNL     1       8.555  30.685  57.788  1.00  0.00     0.170 HD
ENDROOT
BRANCH   1  13
HETATM   13  C   UNL     1       6.115  31.584  58.011  1.00  0.00     0.187 C 
BRANCH  13  14
HETATM   14  N   UNL     1       4.677  31.790  57.859  1.00  0.00    -0.344 N 
HETATM   15  C   UNL     1       4.044  32.311  56.762  1.00  0.00     0.247 C 
HETATM   16  O   UNL     1       2.909  32.770  56.910  1.00  0.00    -0.272 OA
HETATM   17  H   UNL     1       4.151  32.005  58.698  1.00  0.00     0.163 HD
BRANCH  15  18
HETATM   18  C   UNL     1       4.724  32.275  55.391  1.00  0.00     0.373 C 
BRANCH  18  19
HETATM   19  N   UNL     1       3.904  31.527  54.416  1.00  0.00     0.088 N 
HETATM   20  C   UNL     1       3.970  32.140  53.085  1.00  0.00     0.310 C 
HETATM   21  C   UNL     1       4.368  30.138  54.342  1.00  0.00     0.310 C 
ENDBRANCH  18  19
ENDBRANCH  15  18
ENDBRANCH  13  14
BRANCH  13  22
HETATM   22  C   UNL     1       6.588  31.968  59.411  1.00  0.00    -0.028 A 
HETATM   23  C   UNL     1       7.963  31.945  59.703  1.00  0.00     0.011 A 
HETATM   24  C   UNL     1       8.426  32.231  60.990  1.00  0.00     0.024 A 
HETATM   25  C   UNL     1       7.518  32.541  62.000  1.00  0.00     0.034 A 
HETATM   26 CL   UNL     1       8.086  32.886  63.585  1.00  0.00    -0.084 Cl
HETATM   27  C   UNL     1       6.151  32.560  61.734  1.00  0.00     0.024 A 
HETATM   28  C   UNL     1       5.686  32.269  60.448  1.00  0.00     0.011 A 
ENDBRANCH  13  22
ENDBRANCH   1  13
BRANCH   6  29
HETATM   29  C   UNL     1       7.410  24.069  55.833  1.00  0.00     0.010 A 
HETATM   30  C   UNL     1       8.151  23.037  56.456  1.00  0.00     0.152 A 
HETATM   31  N   UNL     1       8.289  21.958  55.681  1.00  0.00    -0.187 NA
HETATM   32  N   UNL     1       7.632  22.291  54.559  1.00  0.00    -0.289 N 
HETATM   33  H   UNL     1       7.588  21.612  53.806  1.00  0.00     0.188 HD
HETATM   34  C   UNL     1       7.086  23.542  54.600  1.00  0.00     0.123 A 
ENDBRANCH   6  29
TORSDOF 6
ENDMDL
MODEL 7
REMARK VINA RESULT:      -8.2      5.962     11.024
REMARK  6 active torsions:
REMARK  status: ('A' for Active; 'I' for Inactive)
REMARK    1  A    between atoms: N_2  and  C_4 
REMARK    2  A    between atoms: C_4  and  C_5 
REMARK       I    between atoms: C_5  and  N_7 
REMARK    3  A    between atoms: N_7  and  C_8 
REMARK    4  A    between atoms: C_8  and  C_9 
REMARK    5  A    between atoms: C_8  and  C_26 
REMARK    6  A    between atoms: C_14  and  C_20 
ROOT
HETATM    1  C   UNL     1       5.940  32.034  60.252  1.00  0.00     0.135 A 
HETATM    2  N   UNL     1       6.941  32.325  61.025  1.00  0.00    -0.232 NA
HETATM    3  C   UNL     1       6.661  32.668  62.357  1.00  0.00     0.074 A 
HETATM    4  C   UNL     1       7.716  33.020  63.196  1.00  0.00     0.033 A 
HETATM    5  C   UNL     1       7.475  33.421  64.516  1.00  0.00     0.014 A 
HETATM    6  C   UNL     1       6.167  33.481  65.019  1.00  0.00    -0.022 A 
HETATM    7  C   UNL     1       5.106  33.103  64.187  1.00  0.00     0.031 A 
HETATM    8  C   UNL     1       5.363  32.704  62.870  1.00  0.00     0.061 A 
HETATM    9  C   UNL     1       4.265  32.320  61.967  1.00  0.00     0.259 A 
HETATM   10  O   UNL     1       3.103  32.252  62.344  1.00  0.00    -0.267 OA
HETATM   11  N   UNL     1       4.635  32.049  60.677  1.00  0.00    -0.309 N 
HETATM   12  H   UNL     1       3.912  31.699  60.065  1.00  0.00     0.170 HD
ENDROOT
BRANCH   1  13
HETATM   13  C   UNL     1       6.169  31.753  58.755  1.00  0.00     0.187 C 
BRANCH  13  14
HETATM   14  N   UNL     1       6.163  30.331  58.421  1.00  0.00    -0.344 N 
HETATM   15  C   UNL     1       7.263  29.536  58.245  1.00  0.00     0.247 C 
HETATM   16  O   UNL     1       7.126  28.486  57.612  1.00  0.00    -0.272 OA
HETATM   17  H   UNL     1       5.396  29.995  57.850  1.00  0.00     0.163 HD
BRANCH  15  18
HETATM   18  C   UNL     1       8.607  29.932  58.862  1.00  0.00     0.373 C 
BRANCH  18  19
HETATM   19  N   UNL     1       9.461  30.617  57.870  1.00  0.00     0.088 N 
HETATM   20  C   UNL     1      10.207  31.721  58.483  1.00  0.00     0.310 C 
HETATM   21  C   UNL     1      10.398  29.659  57.277  1.00  0.00     0.310 C 
ENDBRANCH  18  19
ENDBRANCH  15  18
ENDBRANCH  13  14
BRANCH  13  22
HETATM   22  C   UNL     1       5.129  32.520  57.942  1.00  0.00    -0.028 A 
HETATM   23  C   UNL     1       4.991  33.906  58.135  1.00  0.00     0.011 A 
HETATM   24  C   UNL     1       4.009  34.629  57.452  1.00  0.00     0.024 A 
HETATM   25  C   UNL     1       3.153  33.973  56.572  1.00  0.00     0.034 A 
HETATM   26 CL   UNL     1       1.940  34.860  55.737  1.00  0.00    -0.084 Cl
HETATM   27  C   UNL     1       3.266  32.600  56.373  1.00  0.00     0.024 A 
HETATM   28  C   UNL     1       4.245  31.874  57.059  1.00  0.00     0.011 A 
ENDBRANCH  13  22
ENDBRANCH   1  13
BRANCH   6  29
HETATM   29  C   UNL     1       5.930  33.944  66.374  1.00  0.00     0.010 A 
HETATM   30  C   UNL     1       6.830  34.307  67.403  1.00  0.00     0.152 A 
HETATM   31  N   UNL     1       6.210  34.725  68.510  1.00  0.00    -0.187 NA
HETATM   32  N   UNL     1       4.908  34.635  68.194  1.00  0.00    -0.289 N 
HETATM   33  H   UNL     1       4.223  34.912  68.889  1.00  0.00     0.188 HD
HETATM   34  C   UNL     1       4.688  34.175  66.927  1.00  0.00     0.123 A 
ENDBRANCH   6  29
TORSDOF 6
ENDMDL
MODEL 8
REMARK VINA RESULT:      -8.2      3.580      4.939
REMARK  6 active torsions:
REMARK  status: ('A' for Active; 'I' for Inactive)
REMARK    1  A    between atoms: N_2  and  C_4 
REMARK    2  A    between atoms: C_4  and  C_5 
REMARK       I    between atoms: C_5  and  N_7 
REMARK    3  A    between atoms: N_7  and  C_8 
REMARK    4  A    between atoms: C_8  and  C_9 
REMARK    5  A    between atoms: C_8  and  C_26 
REMARK    6  A    between atoms: C_14  and  C_20 
ROOT
HETATM    1  C   UNL     1       5.033  27.434  53.591  1.00  0.00     0.135 A 
HETATM    2  N   UNL     1       5.980  27.167  54.437  1.00  0.00    -0.232 NA
HETATM    3  C   UNL     1       6.527  25.874  54.418  1.00  0.00     0.074 A 
HETATM    4  C   UNL     1       7.521  25.552  55.341  1.00  0.00     0.033 A 
HETATM    5  C   UNL     1       8.054  24.258  55.391  1.00  0.00     0.014 A 
HETATM    6  C   UNL     1       7.599  23.260  54.518  1.00  0.00    -0.022 A 
HETATM    7  C   UNL     1       6.620  23.586  53.572  1.00  0.00     0.031 A 
HETATM    8  C   UNL     1       6.095  24.884  53.533  1.00  0.00     0.061 A 
HETATM    9  C   UNL     1       5.051  25.251  52.562  1.00  0.00     0.259 A 
HETATM   10  O   UNL     1       4.658  24.474  51.701  1.00  0.00    -0.267 OA
HETATM   11  N   UNL     1       4.549  26.517  52.692  1.00  0.00    -0.309 N 
HETATM   12  H   UNL     1       3.896  26.818  51.982  1.00  0.00     0.170 HD
ENDROOT
BRANCH   1  13
HETATM   13  C   UNL     1       4.317  28.798  53.630  1.00  0.00     0.187 C 
BRANCH  13  14
HETATM   14  N   UNL     1       4.947  29.761  54.529  1.00  0.00    -0.344 N 
HETATM   15  C   UNL     1       4.415  30.954  54.939  1.00  0.00     0.247 C 
HETATM   16  O   UNL     1       5.185  31.814  55.375  1.00  0.00    -0.272 OA
HETATM   17  H   UNL     1       5.958  29.821  54.506  1.00  0.00     0.163 HD
BRANCH  15  18
HETATM   18  C   UNL     1       2.901  31.180  54.892  1.00  0.00     0.373 C 
BRANCH  18  19
HETATM   19  N   UNL     1       2.588  32.559  54.467  1.00  0.00     0.088 N 
HETATM   20  C   UNL     1       2.630  32.688  53.006  1.00  0.00     0.310 C 
HETATM   21  C   UNL     1       1.259  32.938  54.956  1.00  0.00     0.310 C 
ENDBRANCH  18  19
ENDBRANCH  15  18
ENDBRANCH  13  14
BRANCH  13  22
HETATM   22  C   UNL     1       4.216  29.345  52.209  1.00  0.00    -0.028 A 
HETATM   23  C   UNL     1       2.964  29.378  51.571  1.00  0.00     0.011 A 
HETATM   24  C   UNL     1       2.845  29.816  50.249  1.00  0.00     0.024 A 
HETATM   25  C   UNL     1       3.978  30.223  49.550  1.00  0.00     0.034 A 
HETATM   26 CL   UNL     1       3.834  30.755  47.922  1.00  0.00    -0.084 Cl
HETATM   27  C   UNL     1       5.230  30.190  50.160  1.00  0.00     0.024 A 
HETATM   28  C   UNL     1       5.351  29.748  51.480  1.00  0.00     0.011 A 
ENDBRANCH  13  22
ENDBRANCH   1  13
BRANCH   6  29
HETATM   29  C   UNL     1       8.128  21.912  54.615  1.00  0.00     0.010 A 
HETATM   30  C   UNL     1       8.118  20.841  53.692  1.00  0.00     0.152 A 
HETATM   31  N   UNL     1       8.753  19.758  54.147  1.00  0.00    -0.187 NA
HETATM   32  N   UNL     1       9.177  20.132  55.365  1.00  0.00    -0.289 N 
HETATM   33  H   UNL     1       9.706  19.465  55.917  1.00  0.00     0.188 HD
HETATM   34  C   UNL     1       8.831  21.412  55.691  1.00  0.00     0.123 A 
ENDBRANCH   6  29
TORSDOF 6
ENDMDL
MODEL 9
REMARK VINA RESULT:      -8.1      3.220      4.174
REMARK  6 active torsions:
REMARK  status: ('A' for Active; 'I' for Inactive)
REMARK    1  A    between atoms: N_2  and  C_4 
REMARK    2  A    between atoms: C_4  and  C_5 
REMARK       I    between atoms: C_5  and  N_7 
REMARK    3  A    between atoms: N_7  and  C_8 
REMARK    4  A    between atoms: C_8  and  C_9 
REMARK    5  A    between atoms: C_8  and  C_26 
REMARK    6  A    between atoms: C_14  and  C_20 
ROOT
HETATM    1  C   UNL     1       4.843  28.700  52.866  1.00  0.00     0.135 A 
HETATM    2  N   UNL     1       4.409  27.482  52.756  1.00  0.00    -0.232 NA
HETATM    3  C   UNL     1       5.288  26.441  53.096  1.00  0.00     0.074 A 
HETATM    4  C   UNL     1       4.857  25.124  52.951  1.00  0.00     0.033 A 
HETATM    5  C   UNL     1       5.721  24.057  53.227  1.00  0.00     0.014 A 
HETATM    6  C   UNL     1       7.036  24.291  53.652  1.00  0.00    -0.022 A 
HETATM    7  C   UNL     1       7.465  25.613  53.824  1.00  0.00     0.031 A 
HETATM    8  C   UNL     1       6.590  26.670  53.544  1.00  0.00     0.061 A 
HETATM    9  C   UNL     1       7.019  28.070  53.698  1.00  0.00     0.259 A 
HETATM   10  O   UNL     1       8.116  28.371  54.151  1.00  0.00    -0.267 OA
HETATM   11  N   UNL     1       6.109  29.009  53.295  1.00  0.00    -0.309 N 
HETATM   12  H   UNL     1       6.349  29.974  53.473  1.00  0.00     0.170 HD
ENDROOT
BRANCH   1  13
HETATM   13  C   UNL     1       3.967  29.882  52.409  1.00  0.00     0.187 C 
BRANCH  13  14
HETATM   14  N   UNL     1       2.666  29.476  51.885  1.00  0.00    -0.344 N 
HETATM   15  C   UNL     1       2.346  29.290  50.567  1.00  0.00     0.247 C 
HETATM   16  O   UNL     1       1.154  29.321  50.249  1.00  0.00    -0.272 OA
HETATM   17  H   UNL     1       1.847  29.772  52.403  1.00  0.00     0.163 HD
BRANCH  15  18
HETATM   18  C   UNL     1       3.445  29.010  49.538  1.00  0.00     0.373 C 
BRANCH  18  19
HETATM   19  N   UNL     1       3.310  27.649  48.981  1.00  0.00     0.088 N 
HETATM   20  C   UNL     1       3.021  27.689  47.544  1.00  0.00     0.310 C 
HETATM   21  C   UNL     1       4.544  26.893  49.214  1.00  0.00     0.310 C 
ENDBRANCH  18  19
ENDBRANCH  15  18
ENDBRANCH  13  14
BRANCH  13  22
HETATM   22  C   UNL     1       3.819  30.866  53.567  1.00  0.00    -0.028 A 
HETATM   23  C   UNL     1       3.341  30.404  54.805  1.00  0.00     0.011 A 
HETATM   24  C   UNL     1       3.135  31.288  55.868  1.00  0.00     0.024 A 
HETATM   25  C   UNL     1       3.403  32.644  55.702  1.00  0.00     0.034 A 
HETATM   26 CL   UNL     1       3.144  33.734  57.006  1.00  0.00    -0.084 Cl
HETATM   27  C   UNL     1       3.869  33.125  54.481  1.00  0.00     0.024 A 
HETATM   28  C   UNL     1       4.070  32.242  53.416  1.00  0.00     0.011 A 
ENDBRANCH  13  22
ENDBRANCH   1  13
BRANCH   6  29
HETATM   29  C   UNL     1       7.933  23.175  53.889  1.00  0.00     0.010 A 
HETATM   30  C   UNL     1       8.843  22.920  54.942  1.00  0.00     0.152 A 
HETATM   31  N   UNL     1       9.466  21.745  54.816  1.00  0.00    -0.187 NA
HETATM   32  N   UNL     1       8.955  21.239  53.683  1.00  0.00    -0.289 N 
HETATM   33  H   UNL     1       9.275  20.327  53.375  1.00  0.00     0.188 HD
HETATM   34  C   UNL     1       8.033  22.055  53.091  1.00  0.00     0.123 A 
ENDBRANCH   6  29
TORSDOF 6
ENDMDL
MODEL 10
REMARK VINA RESULT:      -8.1      3.681      7.740
REMARK  6 active torsions:
REMARK  status: ('A' for Active; 'I' for Inactive)
REMARK    1  A    between atoms: N_2  and  C_4 
REMARK    2  A    between atoms: C_4  and  C_5 
REMARK       I    between atoms: C_5  and  N_7 
REMARK    3  A    between atoms: N_7  and  C_8 
REMARK    4  A    between atoms: C_8  and  C_9 
REMARK    5  A    between atoms: C_8  and  C_26 
REMARK    6  A    between atoms: C_14  and  C_20 
ROOT
HETATM    1  C   UNL     1       6.198  27.997  54.196  1.00  0.00     0.135 A 
HETATM    2  N   UNL     1       5.314  28.518  54.991  1.00  0.00    -0.232 NA
HETATM    3  C   UNL     1       5.777  29.318  56.048  1.00  0.00     0.074 A 
HETATM    4  C   UNL     1       4.849  29.859  56.937  1.00  0.00     0.033 A 
HETATM    5  C   UNL     1       5.273  30.617  58.035  1.00  0.00     0.014 A 
HETATM    6  C   UNL     1       6.637  30.845  58.266  1.00  0.00    -0.022 A 
HETATM    7  C   UNL     1       7.570  30.325  57.361  1.00  0.00     0.031 A 
HETATM    8  C   UNL     1       7.133  29.569  56.267  1.00  0.00     0.061 A 
HETATM    9  C   UNL     1       8.093  28.994  55.310  1.00  0.00     0.259 A 
HETATM   10  O   UNL     1       9.295  29.217  55.378  1.00  0.00    -0.267 OA
HETATM   11  N   UNL     1       7.548  28.191  54.345  1.00  0.00    -0.309 N 
HETATM   12  H   UNL     1       8.178  27.859  53.628  1.00  0.00     0.170 HD
ENDROOT
BRANCH   1  13
HETATM   13  C   UNL     1       5.765  27.025  53.082  1.00  0.00     0.187 C 
BRANCH  13  14
HETATM   14  N   UNL     1       5.958  27.557  51.736  1.00  0.00    -0.344 N 
HETATM   15  C   UNL     1       5.001  28.139  50.950  1.00  0.00     0.247 C 
HETATM   16  O   UNL     1       5.202  28.193  49.734  1.00  0.00    -0.272 OA
HETATM   17  H   UNL     1       6.655  27.103  51.157  1.00  0.00     0.163 HD
BRANCH  15  18
HETATM   18  C   UNL     1       3.744  28.740  51.584  1.00  0.00     0.373 C 
BRANCH  18  19
HETATM   19  N   UNL     1       2.995  29.551  50.603  1.00  0.00     0.088 N 
HETATM   20  C   UNL     1       1.635  29.035  50.413  1.00  0.00     0.310 C 
HETATM   21  C   UNL     1       2.933  30.944  51.055  1.00  0.00     0.310 C 
ENDBRANCH  18  19
ENDBRANCH  15  18
ENDBRANCH  13  14
BRANCH  13  22
HETATM   22  C   UNL     1       6.500  25.700  53.268  1.00  0.00    -0.028 A 
HETATM   23  C   UNL     1       7.356  25.239  52.253  1.00  0.00     0.011 A 
HETATM   24  C   UNL     1       7.997  24.002  52.364  1.00  0.00     0.024 A 
HETATM   25  C   UNL     1       7.784  23.210  53.489  1.00  0.00     0.034 A 
HETATM   26 CL   UNL     1       8.566  21.685  53.623  1.00  0.00    -0.084 Cl
HETATM   27  C   UNL     1       6.932  23.643  54.502  1.00  0.00     0.024 A 
HETATM   28  C   UNL     1       6.287  24.878  54.391  1.00  0.00     0.011 A 
ENDBRANCH  13  22
ENDBRANCH   1  13
BRANCH   6  29
HETATM   29  C   UNL     1       7.061  31.593  59.435  1.00  0.00     0.010 A 
HETATM   30  C   UNL     1       8.337  31.751  60.025  1.00  0.00     0.152 A 
HETATM   31  N   UNL     1       8.321  32.563  61.085  1.00  0.00    -0.187 NA
HETATM   32  N   UNL     1       7.034  32.933  61.178  1.00  0.00    -0.289 N 
HETATM   33  H   UNL     1       6.768  33.571  61.920  1.00  0.00     0.188 HD
HETATM   34  C   UNL     1       6.240  32.381  60.213  1.00  0.00     0.123 A 
ENDBRANCH   6  29
TORSDOF 6
ENDMDL
