MODEL 1
REMARK VINA RESULT:      -9.7      0.000      0.000
REMARK  3 active torsions:
REMARK  status: ('A' for Active; 'I' for Inactive)
REMARK    1  A    between atoms: C_7  and  C_8 
REMARK    2  A    between atoms: C_12  and  C_13 
REMARK    3  A    between atoms: C_16  and  C_17 
ROOT
HETATM    1  C   UNL     1       8.295  20.540  52.751  1.00  0.00     0.048 C 
HETATM    2  C   UNL     1       8.284  21.669  53.737  1.00  0.00    -0.061 A 
HETATM    3  C   UNL     1       7.619  22.870  53.462  1.00  0.00     0.021 A 
HETATM    4  C   UNL     1       7.578  23.946  54.394  1.00  0.00     0.008 A 
HETATM    5  C   UNL     1       8.247  23.777  55.622  1.00  0.00     0.068 A 
HETATM    6  N   UNL     1       8.301  24.727  56.565  1.00  0.00    -0.252 NA
HETATM    7  C   UNL     1       7.703  25.921  56.369  1.00  0.00     0.040 A 
HETATM    8  C   UNL     1       7.016  26.176  55.192  1.00  0.00     0.044 A 
HETATM    9  C   UNL     1       6.930  25.196  54.191  1.00  0.00     0.034 A 
HETATM   10  C   UNL     1       8.890  22.577  55.888  1.00  0.00     0.033 A 
HETATM   11  C   UNL     1       8.910  21.526  54.970  1.00  0.00     0.009 A 
ENDROOT
BRANCH   9  12
HETATM   12  C   UNL     1       6.161  25.492  52.982  1.00  0.00     0.207 A 
HETATM   13  O   UNL     1       5.231  24.560  52.598  1.00  0.00    -0.191 OA
HETATM   14  N   UNL     1       4.619  25.046  51.437  1.00  0.00    -0.108 NA
HETATM   15  C   UNL     1       5.223  26.219  51.249  1.00  0.00     0.189 A 
HETATM   16  N   UNL     1       6.205  26.526  52.160  1.00  0.00    -0.202 NA
BRANCH  15  17
HETATM   17  C   UNL     1       4.915  27.145  50.119  1.00  0.00     0.282 C 
HETATM   18  N   UNL     1       3.735  28.050  50.493  1.00  0.00    -0.060 N 
HETATM   19  H   UNL     1       2.999  27.441  50.882  1.00  0.00     0.278 HD
HETATM   20  H   UNL     1       4.024  28.653  51.274  1.00  0.00     0.278 HD
HETATM   21  C   UNL     1       3.229  28.869  49.348  1.00  0.00     0.259 C 
HETATM   22  C   UNL     1       2.931  27.958  48.156  1.00  0.00     0.195 C 
HETATM   23  O   UNL     1       4.104  27.223  47.791  1.00  0.00    -0.387 OA
HETATM   24  C   UNL     1       4.543  26.355  48.847  1.00  0.00     0.208 C 
ENDBRANCH  15  17
ENDBRANCH   9  12
BRANCH   7  25
HETATM   25  C   UNL     1       7.819  26.970  57.448  1.00  0.00     0.038 A 
HETATM   26  C   UNL     1       8.684  28.192  57.237  1.00  0.00     0.011 A 
HETATM   27  C   UNL     1       7.191  28.330  57.241  1.00  0.00     0.011 A 
ENDBRANCH   7  25
TORSDOF 3
ENDMDL
MODEL 2
REMARK VINA RESULT:      -9.5      1.616      4.336
REMARK  3 active torsions:
REMARK  status: ('A' for Active; 'I' for Inactive)
REMARK    1  A    between atoms: C_7  and  C_8 
REMARK    2  A    between atoms: C_12  and  C_13 
REMARK    3  A    between atoms: C_16  and  C_17 
ROOT
HETATM    1  C   UNL     1       6.558  27.976  57.396  1.00  0.00     0.048 C 
HETATM    2  C   UNL     1       7.123  26.704  56.840  1.00  0.00    -0.061 A 
HETATM    3  C   UNL     1       6.824  26.283  55.539  1.00  0.00     0.021 A 
HETATM    4  C   UNL     1       7.369  25.090  54.984  1.00  0.00     0.008 A 
HETATM    5  C   UNL     1       8.224  24.318  55.795  1.00  0.00     0.068 A 
HETATM    6  N   UNL     1       8.774  23.165  55.393  1.00  0.00    -0.252 NA
HETATM    7  C   UNL     1       8.520  22.678  54.160  1.00  0.00     0.040 A 
HETATM    8  C   UNL     1       7.693  23.372  53.288  1.00  0.00     0.044 A 
HETATM    9  C   UNL     1       7.113  24.590  53.676  1.00  0.00     0.034 A 
HETATM   10  C   UNL     1       8.523  24.755  57.077  1.00  0.00     0.033 A 
HETATM   11  C   UNL     1       7.993  25.934  57.603  1.00  0.00     0.009 A 
ENDROOT
BRANCH   9  12
HETATM   12  C   UNL     1       6.281  25.309  52.712  1.00  0.00     0.207 A 
HETATM   13  O   UNL     1       5.303  24.584  52.078  1.00  0.00    -0.191 OA
HETATM   14  N   UNL     1       4.636  25.462  51.216  1.00  0.00    -0.108 NA
HETATM   15  C   UNL     1       5.261  26.620  51.427  1.00  0.00     0.189 A 
HETATM   16  N   UNL     1       6.303  26.571  52.320  1.00  0.00    -0.202 NA
BRANCH  15  17
HETATM   17  C   UNL     1       4.911  27.895  50.733  1.00  0.00     0.282 C 
HETATM   18  N   UNL     1       5.535  27.916  49.333  1.00  0.00    -0.060 N 
HETATM   19  H   UNL     1       6.522  27.636  49.438  1.00  0.00     0.278 HD
HETATM   20  H   UNL     1       5.102  27.170  48.774  1.00  0.00     0.278 HD
HETATM   21  C   UNL     1       5.404  29.238  48.644  1.00  0.00     0.259 C 
HETATM   22  C   UNL     1       5.936  30.347  49.554  1.00  0.00     0.195 C 
HETATM   23  O   UNL     1       5.236  30.340  50.803  1.00  0.00    -0.387 OA
HETATM   24  C   UNL     1       5.435  29.113  51.521  1.00  0.00     0.208 C 
ENDBRANCH  15  17
ENDBRANCH   9  12
BRANCH   7  25
HETATM   25  C   UNL     1       9.137  21.359  53.764  1.00  0.00     0.038 A 
HETATM   26  C   UNL     1       8.569  20.060  54.290  1.00  0.00     0.011 A 
HETATM   27  C   UNL     1       8.383  20.423  52.847  1.00  0.00     0.011 A 
ENDBRANCH   7  25
TORSDOF 3
ENDMDL
MODEL 3
REMARK VINA RESULT:      -9.5      3.327      7.328
REMARK  3 active torsions:
REMARK  status: ('A' for Active; 'I' for Inactive)
REMARK    1  A    between atoms: C_7  and  C_8 
REMARK    2  A    between atoms: C_12  and  C_13 
REMARK    3  A    between atoms: C_16  and  C_17 
ROOT
HETATM    1  C   UNL     1       4.487  28.130  52.063  1.00  0.00     0.048 C 
HETATM    2  C   UNL     1       5.170  26.873  52.512  1.00  0.00    -0.061 A 
HETATM    3  C   UNL     1       5.960  26.847  53.667  1.00  0.00     0.021 A 
HETATM    4  C   UNL     1       6.599  25.658  54.123  1.00  0.00     0.008 A 
HETATM    5  C   UNL     1       6.426  24.486  53.361  1.00  0.00     0.068 A 
HETATM    6  N   UNL     1       6.998  23.317  53.674  1.00  0.00    -0.252 NA
HETATM    7  C   UNL     1       7.791  23.211  54.761  1.00  0.00     0.040 A 
HETATM    8  C   UNL     1       8.016  24.312  55.575  1.00  0.00     0.044 A 
HETATM    9  C   UNL     1       7.419  25.548  55.280  1.00  0.00     0.034 A 
HETATM   10  C   UNL     1       5.629  24.522  52.226  1.00  0.00     0.033 A 
HETATM   11  C   UNL     1       4.998  25.691  51.800  1.00  0.00     0.009 A 
ENDROOT
BRANCH   9  12
HETATM   12  C   UNL     1       7.650  26.673  56.187  1.00  0.00     0.207 A 
HETATM   13  O   UNL     1       7.472  26.433  57.526  1.00  0.00    -0.191 OA
HETATM   14  N   UNL     1       7.748  27.630  58.196  1.00  0.00    -0.108 NA
HETATM   15  C   UNL     1       8.076  28.458  57.206  1.00  0.00     0.189 A 
HETATM   16  N   UNL     1       8.002  27.923  55.943  1.00  0.00    -0.202 NA
BRANCH  15  17
HETATM   17  C   UNL     1       8.464  29.886  57.407  1.00  0.00     0.282 C 
HETATM   18  N   UNL     1       9.941  29.974  57.810  1.00  0.00    -0.060 N 
HETATM   19  H   UNL     1      10.091  29.284  58.561  1.00  0.00     0.278 HD
HETATM   20  H   UNL     1      10.511  29.642  57.021  1.00  0.00     0.278 HD
HETATM   21  C   UNL     1      10.362  31.348  58.227  1.00  0.00     0.259 C 
HETATM   22  C   UNL     1       9.415  31.870  59.308  1.00  0.00     0.195 C 
HETATM   23  O   UNL     1       8.065  31.863  58.829  1.00  0.00    -0.387 OA
HETATM   24  C   UNL     1       7.614  30.535  58.519  1.00  0.00     0.208 C 
ENDBRANCH  15  17
ENDBRANCH   9  12
BRANCH   7  25
HETATM   25  C   UNL     1       8.439  21.880  55.055  1.00  0.00     0.038 A 
HETATM   26  C   UNL     1       7.667  20.794  55.770  1.00  0.00     0.011 A 
HETATM   27  C   UNL     1       7.984  20.644  54.312  1.00  0.00     0.011 A 
ENDBRANCH   7  25
TORSDOF 3
ENDMDL
MODEL 4
REMARK VINA RESULT:      -9.4      1.093      4.068
REMARK  3 active torsions:
REMARK  status: ('A' for Active; 'I' for Inactive)
REMARK    1  A    between atoms: C_7  and  C_8 
REMARK    2  A    between atoms: C_12  and  C_13 
REMARK    3  A    between atoms: C_16  and  C_17 
ROOT
HETATM    1  C   UNL     1       7.776  27.885  57.591  1.00  0.00     0.048 C 
HETATM    2  C   UNL     1       7.858  26.536  56.942  1.00  0.00    -0.061 A 
HETATM    3  C   UNL     1       7.217  26.273  55.726  1.00  0.00     0.021 A 
HETATM    4  C   UNL     1       7.301  25.006  55.082  1.00  0.00     0.008 A 
HETATM    5  C   UNL     1       8.050  23.995  55.715  1.00  0.00     0.068 A 
HETATM    6  N   UNL     1       8.179  22.758  55.220  1.00  0.00    -0.252 NA
HETATM    7  C   UNL     1       7.575  22.417  54.063  1.00  0.00     0.040 A 
HETATM    8  C   UNL     1       6.820  23.348  53.365  1.00  0.00     0.044 A 
HETATM    9  C   UNL     1       6.677  24.657  53.852  1.00  0.00     0.034 A 
HETATM   10  C   UNL     1       8.693  24.273  56.914  1.00  0.00     0.033 A 
HETATM   11  C   UNL     1       8.613  25.525  57.526  1.00  0.00     0.009 A 
ENDROOT
BRANCH   9  12
HETATM   12  C   UNL     1       5.907  25.619  53.064  1.00  0.00     0.207 A 
HETATM   13  O   UNL     1       4.980  26.371  53.741  1.00  0.00    -0.191 OA
HETATM   14  N   UNL     1       4.373  27.214  52.803  1.00  0.00    -0.108 NA
HETATM   15  C   UNL     1       4.999  26.900  51.670  1.00  0.00     0.189 A 
HETATM   16  N   UNL     1       5.934  25.899  51.772  1.00  0.00    -0.202 NA
BRANCH  15  17
HETATM   17  C   UNL     1       4.708  27.539  50.352  1.00  0.00     0.282 C 
HETATM   18  N   UNL     1       3.332  28.214  50.391  1.00  0.00    -0.060 N 
HETATM   19  H   UNL     1       2.673  27.532  50.796  1.00  0.00     0.278 HD
HETATM   20  H   UNL     1       3.370  28.986  51.070  1.00  0.00     0.278 HD
HETATM   21  C   UNL     1       2.872  28.705  49.055  1.00  0.00     0.259 C 
HETATM   22  C   UNL     1       2.952  27.568  48.035  1.00  0.00     0.195 C 
HETATM   23  O   UNL     1       4.288  27.056  47.969  1.00  0.00    -0.387 OA
HETATM   24  C   UNL     1       4.706  26.490  49.221  1.00  0.00     0.208 C 
ENDBRANCH  15  17
ENDBRANCH   9  12
BRANCH   7  25
HETATM   25  C   UNL     1       7.724  21.001  53.562  1.00  0.00     0.038 A 
HETATM   26  C   UNL     1       8.989  20.568  52.856  1.00  0.00     0.011 A 
HETATM   27  C   UNL     1       8.699  20.064  54.239  1.00  0.00     0.011 A 
ENDBRANCH   7  25
TORSDOF 3
ENDMDL
MODEL 5
REMARK VINA RESULT:      -9.2      1.575      2.139
REMARK  3 active torsions:
REMARK  status: ('A' for Active; 'I' for Inactive)
REMARK    1  A    between atoms: C_7  and  C_8 
REMARK    2  A    between atoms: C_12  and  C_13 
REMARK    3  A    between atoms: C_16  and  C_17 
ROOT
HETATM    1  C   UNL     1       7.788  22.228  54.320  1.00  0.00     0.048 C 
HETATM    2  C   UNL     1       7.905  23.443  55.191  1.00  0.00    -0.061 A 
HETATM    3  C   UNL     1       7.265  24.642  54.857  1.00  0.00     0.021 A 
HETATM    4  C   UNL     1       7.345  25.800  55.681  1.00  0.00     0.008 A 
HETATM    5  C   UNL     1       8.110  25.716  56.861  1.00  0.00     0.068 A 
HETATM    6  N   UNL     1       8.281  26.745  57.700  1.00  0.00    -0.252 NA
HETATM    7  C   UNL     1       7.715  27.942  57.440  1.00  0.00     0.040 A 
HETATM    8  C   UNL     1       6.939  28.119  56.304  1.00  0.00     0.044 A 
HETATM    9  C   UNL     1       6.731  27.055  55.412  1.00  0.00     0.034 A 
HETATM   10  C   UNL     1       8.728  24.517  57.188  1.00  0.00     0.033 A 
HETATM   11  C   UNL     1       8.629  23.386  56.376  1.00  0.00     0.009 A 
ENDROOT
BRANCH   9  12
HETATM   12  C   UNL     1       5.872  27.273  54.248  1.00  0.00     0.207 A 
HETATM   13  O   UNL     1       4.545  27.521  54.496  1.00  0.00    -0.191 OA
HETATM   14  N   UNL     1       3.924  27.702  53.256  1.00  0.00    -0.108 NA
HETATM   15  C   UNL     1       4.930  27.563  52.394  1.00  0.00     0.189 A 
HETATM   16  N   UNL     1       6.148  27.268  52.956  1.00  0.00    -0.202 NA
BRANCH  15  17
HETATM   17  C   UNL     1       4.780  27.673  50.912  1.00  0.00     0.282 C 
HETATM   18  N   UNL     1       3.380  28.193  50.566  1.00  0.00    -0.060 N 
HETATM   19  H   UNL     1       2.708  27.638  51.117  1.00  0.00     0.278 HD
HETATM   20  H   UNL     1       3.293  29.153  50.925  1.00  0.00     0.278 HD
HETATM   21  C   UNL     1       3.073  28.144  49.103  1.00  0.00     0.259 C 
HETATM   22  C   UNL     1       3.337  26.735  48.569  1.00  0.00     0.195 C 
HETATM   23  O   UNL     1       4.693  26.354  48.829  1.00  0.00    -0.387 OA
HETATM   24  C   UNL     1       4.974  26.300  50.236  1.00  0.00     0.208 C 
ENDBRANCH  15  17
ENDBRANCH   9  12
BRANCH   7  25
HETATM   25  C   UNL     1       7.963  29.081  58.400  1.00  0.00     0.038 A 
HETATM   26  C   UNL     1       9.013  30.125  58.093  1.00  0.00     0.011 A 
HETATM   27  C   UNL     1       7.559  30.487  58.016  1.00  0.00     0.011 A 
ENDBRANCH   7  25
TORSDOF 3
ENDMDL
MODEL 6
REMARK VINA RESULT:      -9.2      3.260      7.043
REMARK  3 active torsions:
REMARK  status: ('A' for Active; 'I' for Inactive)
REMARK    1  A    between atoms: C_7  and  C_8 
REMARK    2  A    between atoms: C_12  and  C_13 
REMARK    3  A    between atoms: C_16  and  C_17 
ROOT
HETATM    1  C   UNL     1       8.870  23.157  55.889  1.00  0.00     0.048 C 
HETATM    2  C   UNL     1       8.104  23.845  54.799  1.00  0.00    -0.061 A 
HETATM    3  C   UNL     1       7.521  25.101  55.001  1.00  0.00     0.021 A 
HETATM    4  C   UNL     1       6.809  25.781  53.972  1.00  0.00     0.008 A 
HETATM    5  C   UNL     1       6.689  25.142  52.723  1.00  0.00     0.068 A 
HETATM    6  N   UNL     1       6.020  25.669  51.690  1.00  0.00    -0.252 NA
HETATM    7  C   UNL     1       5.412  26.868  51.808  1.00  0.00     0.040 A 
HETATM    8  C   UNL     1       5.480  27.575  52.999  1.00  0.00     0.044 A 
HETATM    9  C   UNL     1       6.185  27.054  54.096  1.00  0.00     0.034 A 
HETATM   10  C   UNL     1       7.284  23.902  52.532  1.00  0.00     0.033 A 
HETATM   11  C   UNL     1       7.991  23.255  53.546  1.00  0.00     0.009 A 
ENDROOT
BRANCH   9  12
HETATM   12  C   UNL     1       6.266  27.850  55.320  1.00  0.00     0.207 A 
HETATM   13  O   UNL     1       5.334  27.586  56.292  1.00  0.00    -0.191 OA
HETATM   14  N   UNL     1       5.601  28.450  57.360  1.00  0.00    -0.108 NA
HETATM   15  C   UNL     1       6.666  29.130  56.937  1.00  0.00     0.189 A 
HETATM   16  N   UNL     1       7.096  28.817  55.671  1.00  0.00    -0.202 NA
BRANCH  15  17
HETATM   17  C   UNL     1       7.348  30.192  57.734  1.00  0.00     0.282 C 
HETATM   18  N   UNL     1       7.848  29.610  59.061  1.00  0.00    -0.060 N 
HETATM   19  H   UNL     1       7.067  29.075  59.469  1.00  0.00     0.278 HD
HETATM   20  H   UNL     1       8.574  28.911  58.854  1.00  0.00     0.278 HD
HETATM   21  C   UNL     1       8.365  30.647  60.008  1.00  0.00     0.259 C 
HETATM   22  C   UNL     1       7.314  31.743  60.193  1.00  0.00     0.195 C 
HETATM   23  O   UNL     1       6.972  32.319  58.927  1.00  0.00    -0.387 OA
HETATM   24  C   UNL     1       6.381  31.354  58.043  1.00  0.00     0.208 C 
ENDBRANCH  15  17
ENDBRANCH   9  12
BRANCH   7  25
HETATM   25  C   UNL     1       4.644  27.407  50.625  1.00  0.00     0.038 A 
HETATM   26  C   UNL     1       5.374  28.041  49.463  1.00  0.00     0.011 A 
HETATM   27  C   UNL     1       4.727  26.699  49.291  1.00  0.00     0.011 A 
ENDBRANCH   7  25
TORSDOF 3
ENDMDL
MODEL 7
REMARK VINA RESULT:      -8.7      2.020      2.755
REMARK  3 active torsions:
REMARK  status: ('A' for Active; 'I' for Inactive)
REMARK    1  A    between atoms: C_7  and  C_8 
REMARK    2  A    between atoms: C_12  and  C_13 
REMARK    3  A    between atoms: C_16  and  C_17 
ROOT
HETATM    1  C   UNL     1       7.686  22.943  52.798  1.00  0.00     0.048 C 
HETATM    2  C   UNL     1       7.218  23.994  53.760  1.00  0.00    -0.061 A 
HETATM    3  C   UNL     1       6.671  25.201  53.310  1.00  0.00     0.021 A 
HETATM    4  C   UNL     1       6.200  26.202  54.206  1.00  0.00     0.008 A 
HETATM    5  C   UNL     1       6.311  25.951  55.588  1.00  0.00     0.068 A 
HETATM    6  N   UNL     1       5.929  26.828  56.526  1.00  0.00    -0.252 NA
HETATM    7  C   UNL     1       5.410  28.023  56.175  1.00  0.00     0.040 A 
HETATM    8  C   UNL     1       5.258  28.357  54.838  1.00  0.00     0.044 A 
HETATM    9  C   UNL     1       5.637  27.453  53.832  1.00  0.00     0.034 A 
HETATM   10  C   UNL     1       6.843  24.745  56.021  1.00  0.00     0.033 A 
HETATM   11  C   UNL     1       7.287  23.767  55.130  1.00  0.00     0.009 A 
ENDROOT
BRANCH   9  12
HETATM   12  C   UNL     1       5.421  27.829  52.434  1.00  0.00     0.207 A 
HETATM   13  O   UNL     1       6.163  28.879  51.954  1.00  0.00    -0.191 OA
HETATM   14  N   UNL     1       5.801  29.057  50.615  1.00  0.00    -0.108 NA
HETATM   15  C   UNL     1       4.899  28.096  50.418  1.00  0.00     0.189 A 
HETATM   16  N   UNL     1       4.608  27.330  51.520  1.00  0.00    -0.202 NA
BRANCH  15  17
HETATM   17  C   UNL     1       4.202  27.860  49.119  1.00  0.00     0.282 C 
HETATM   18  N   UNL     1       2.713  27.591  49.367  1.00  0.00    -0.060 N 
HETATM   19  H   UNL     1       2.655  26.891  50.123  1.00  0.00     0.278 HD
HETATM   20  H   UNL     1       2.290  28.443  49.757  1.00  0.00     0.278 HD
HETATM   21  C   UNL     1       1.977  27.146  48.142  1.00  0.00     0.259 C 
HETATM   22  C   UNL     1       2.704  25.958  47.509  1.00  0.00     0.195 C 
HETATM   23  O   UNL     1       4.057  26.313  47.203  1.00  0.00    -0.387 OA
HETATM   24  C   UNL     1       4.804  26.645  48.384  1.00  0.00     0.208 C 
ENDBRANCH  15  17
ENDBRANCH   9  12
BRANCH   7  25
HETATM   25  C   UNL     1       5.023  28.989  57.268  1.00  0.00     0.038 A 
HETATM   26  C   UNL     1       5.893  30.189  57.573  1.00  0.00     0.011 A 
HETATM   27  C   UNL     1       4.563  30.384  56.908  1.00  0.00     0.011 A 
ENDBRANCH   7  25
TORSDOF 3
ENDMDL
MODEL 8
REMARK VINA RESULT:      -8.6      3.428      7.456
REMARK  3 active torsions:
REMARK  status: ('A' for Active; 'I' for Inactive)
REMARK    1  A    between atoms: C_7  and  C_8 
REMARK    2  A    between atoms: C_12  and  C_13 
REMARK    3  A    between atoms: C_16  and  C_17 
ROOT
HETATM    1  C   UNL     1       4.934  29.617  50.871  1.00  0.00     0.048 C 
HETATM    2  C   UNL     1       5.352  28.266  51.369  1.00  0.00    -0.061 A 
HETATM    3  C   UNL     1       5.975  28.108  52.612  1.00  0.00     0.021 A 
HETATM    4  C   UNL     1       6.359  26.832  53.112  1.00  0.00     0.008 A 
HETATM    5  C   UNL     1       6.104  25.706  52.304  1.00  0.00     0.068 A 
HETATM    6  N   UNL     1       6.444  24.459  52.655  1.00  0.00    -0.252 NA
HETATM    7  C   UNL     1       7.068  24.224  53.829  1.00  0.00     0.040 A 
HETATM    8  C   UNL     1       7.356  25.270  54.692  1.00  0.00     0.044 A 
HETATM    9  C   UNL     1       6.999  26.587  54.358  1.00  0.00     0.034 A 
HETATM   10  C   UNL     1       5.473  25.874  51.080  1.00  0.00     0.033 A 
HETATM   11  C   UNL     1       5.089  27.131  50.610  1.00  0.00     0.009 A 
ENDROOT
BRANCH   9  12
HETATM   12  C   UNL     1       7.285  27.655  55.316  1.00  0.00     0.207 A 
HETATM   13  O   UNL     1       8.344  28.478  55.026  1.00  0.00    -0.191 OA
HETATM   14  N   UNL     1       8.428  29.416  56.060  1.00  0.00    -0.108 NA
HETATM   15  C   UNL     1       7.413  29.079  56.854  1.00  0.00     0.189 A 
HETATM   16  N   UNL     1       6.695  27.979  56.453  1.00  0.00    -0.202 NA
BRANCH  15  17
HETATM   17  C   UNL     1       7.070  29.794  58.119  1.00  0.00     0.282 C 
HETATM   18  N   UNL     1       6.492  31.177  57.798  1.00  0.00    -0.060 N 
HETATM   19  H   UNL     1       7.123  31.614  57.108  1.00  0.00     0.278 HD
HETATM   20  H   UNL     1       5.600  31.048  57.303  1.00  0.00     0.278 HD
HETATM   21  C   UNL     1       6.309  32.040  59.006  1.00  0.00     0.259 C 
HETATM   22  C   UNL     1       7.618  32.106  59.794  1.00  0.00     0.195 C 
HETATM   23  O   UNL     1       8.043  30.787  60.157  1.00  0.00    -0.387 OA
HETATM   24  C   UNL     1       8.320  29.978  59.003  1.00  0.00     0.208 C 
ENDBRANCH  15  17
ENDBRANCH   9  12
BRANCH   7  25
HETATM   25  C   UNL     1       7.459  22.805  54.165  1.00  0.00     0.038 A 
HETATM   26  C   UNL     1       8.538  22.100  53.373  1.00  0.00     0.011 A 
HETATM   27  C   UNL     1       8.811  22.527  54.785  1.00  0.00     0.011 A 
ENDBRANCH   7  25
TORSDOF 3
ENDMDL
MODEL 9
REMARK VINA RESULT:      -8.5      2.413      7.957
REMARK  3 active torsions:
REMARK  status: ('A' for Active; 'I' for Inactive)
REMARK    1  A    between atoms: C_7  and  C_8 
REMARK    2  A    between atoms: C_12  and  C_13 
REMARK    3  A    between atoms: C_16  and  C_17 
ROOT
HETATM    1  C   UNL     1       4.628  29.300  55.580  1.00  0.00     0.048 C 
HETATM    2  C   UNL     1       4.409  28.950  54.139  1.00  0.00    -0.061 A 
HETATM    3  C   UNL     1       5.009  27.823  53.564  1.00  0.00     0.021 A 
HETATM    4  C   UNL     1       4.796  27.461  52.203  1.00  0.00     0.008 A 
HETATM    5  C   UNL     1       3.959  28.287  51.427  1.00  0.00     0.068 A 
HETATM    6  N   UNL     1       3.707  28.064  50.131  1.00  0.00    -0.252 NA
HETATM    7  C   UNL     1       4.263  27.011  49.496  1.00  0.00     0.040 A 
HETATM    8  C   UNL     1       5.096  26.139  50.181  1.00  0.00     0.044 A 
HETATM    9  C   UNL     1       5.369  26.339  51.544  1.00  0.00     0.034 A 
HETATM   10  C   UNL     1       3.360  29.393  52.013  1.00  0.00     0.033 A 
HETATM   11  C   UNL     1       3.567  29.727  53.351  1.00  0.00     0.009 A 
ENDROOT
BRANCH   9  12
HETATM   12  C   UNL     1       6.220  25.373  52.238  1.00  0.00     0.207 A 
HETATM   13  O   UNL     1       7.567  25.441  51.984  1.00  0.00    -0.191 OA
HETATM   14  N   UNL     1       8.179  24.442  52.748  1.00  0.00    -0.108 NA
HETATM   15  C   UNL     1       7.153  23.886  53.391  1.00  0.00     0.189 A 
HETATM   16  N   UNL     1       5.919  24.406  53.087  1.00  0.00    -0.202 NA
BRANCH  15  17
HETATM   17  C   UNL     1       7.287  22.751  54.352  1.00  0.00     0.282 C 
HETATM   18  N   UNL     1       8.248  23.135  55.483  1.00  0.00    -0.060 N 
HETATM   19  H   UNL     1       9.085  23.543  55.042  1.00  0.00     0.278 HD
HETATM   20  H   UNL     1       7.825  23.903  56.021  1.00  0.00     0.278 HD
HETATM   21  C   UNL     1       8.597  21.989  56.380  1.00  0.00     0.259 C 
HETATM   22  C   UNL     1       9.099  20.813  55.541  1.00  0.00     0.195 C 
HETATM   23  O   UNL     1       8.109  20.436  54.577  1.00  0.00    -0.387 OA
HETATM   24  C   UNL     1       7.838  21.495  53.646  1.00  0.00     0.208 C 
ENDBRANCH  15  17
ENDBRANCH   9  12
BRANCH   7  25
HETATM   25  C   UNL     1       3.973  26.819  48.027  1.00  0.00     0.038 A 
HETATM   26  C   UNL     1       3.254  25.579  47.544  1.00  0.00     0.011 A 
HETATM   27  C   UNL     1       2.548  26.901  47.527  1.00  0.00     0.011 A 
ENDBRANCH   7  25
TORSDOF 3
ENDMDL
MODEL 10
REMARK VINA RESULT:      -8.1      3.478      7.246
REMARK  3 active torsions:
REMARK  status: ('A' for Active; 'I' for Inactive)
REMARK    1  A    between atoms: C_7  and  C_8 
REMARK    2  A    between atoms: C_12  and  C_13 
REMARK    3  A    between atoms: C_16  and  C_17 
ROOT
HETATM    1  C   UNL     1       3.787  29.511  50.153  1.00  0.00     0.048 C 
HETATM    2  C   UNL     1       4.371  28.269  50.754  1.00  0.00    -0.061 A 
HETATM    3  C   UNL     1       4.748  28.219  52.102  1.00  0.00     0.021 A 
HETATM    4  C   UNL     1       5.284  27.042  52.697  1.00  0.00     0.008 A 
HETATM    5  C   UNL     1       5.443  25.906  51.880  1.00  0.00     0.068 A 
HETATM    6  N   UNL     1       5.961  24.753  52.320  1.00  0.00    -0.252 NA
HETATM    7  C   UNL     1       6.368  24.629  53.601  1.00  0.00     0.040 A 
HETATM    8  C   UNL     1       6.245  25.693  54.482  1.00  0.00     0.044 A 
HETATM    9  C   UNL     1       5.694  26.911  54.053  1.00  0.00     0.034 A 
HETATM   10  C   UNL     1       5.053  25.964  50.549  1.00  0.00     0.033 A 
HETATM   11  C   UNL     1       4.516  27.121  49.983  1.00  0.00     0.009 A 
ENDROOT
BRANCH   9  12
HETATM   12  C   UNL     1       5.545  27.994  55.025  1.00  0.00     0.207 A 
HETATM   13  O   UNL     1       4.331  28.094  55.658  1.00  0.00    -0.191 OA
HETATM   14  N   UNL     1       4.415  29.181  56.535  1.00  0.00    -0.108 NA
HETATM   15  C   UNL     1       5.663  29.613  56.357  1.00  0.00     0.189 A 
HETATM   16  N   UNL     1       6.391  28.932  55.413  1.00  0.00    -0.202 NA
BRANCH  15  17
HETATM   17  C   UNL     1       6.254  30.777  57.083  1.00  0.00     0.282 C 
HETATM   18  N   UNL     1       6.677  30.352  58.494  1.00  0.00    -0.060 N 
HETATM   19  H   UNL     1       5.886  29.832  58.903  1.00  0.00     0.278 HD
HETATM   20  H   UNL     1       7.437  29.664  58.411  1.00  0.00     0.278 HD
HETATM   21  C   UNL     1       7.093  31.499  59.360  1.00  0.00     0.259 C 
HETATM   22  C   UNL     1       5.998  32.567  59.360  1.00  0.00     0.195 C 
HETATM   23  O   UNL     1       5.729  32.997  58.020  1.00  0.00    -0.387 OA
HETATM   24  C   UNL     1       5.232  31.926  57.204  1.00  0.00     0.208 C 
ENDBRANCH  15  17
ENDBRANCH   9  12
BRANCH   7  25
HETATM   25  C   UNL     1       6.975  23.318  54.041  1.00  0.00     0.038 A 
HETATM   26  C   UNL     1       8.475  23.126  54.025  1.00  0.00     0.011 A 
HETATM   27  C   UNL     1       7.755  23.251  55.335  1.00  0.00     0.011 A 
ENDBRANCH   7  25
TORSDOF 3
ENDMDL
