MODEL 1
REMARK VINA RESULT:      -9.8      0.000      0.000
REMARK  3 active torsions:
REMARK  status: ('A' for Active; 'I' for Inactive)
REMARK    1  A    between atoms: N_1  and  C_2 
REMARK    2  A    between atoms: C_6  and  C_8 
REMARK    3  A    between atoms: C_13  and  C_17 
ROOT
HETATM    1  C   UNL     1       7.336  32.041  62.547  1.00  0.00    -0.006 A 
HETATM    2  C   UNL     1       8.528  31.316  62.699  1.00  0.00     0.016 A 
HETATM    3  C   UNL     1       9.117  30.629  61.626  1.00  0.00     0.034 A 
HETATM    4  C   UNL     1       8.509  30.660  60.359  1.00  0.00     0.074 A 
HETATM    5  N   UNL     1       8.986  30.046  59.216  1.00  0.00    -0.244 NA
HETATM    6  C   UNL     1       8.205  30.315  58.191  1.00  0.00     0.083 A 
HETATM    7  S   UNL     1       6.791  31.221  58.575  1.00  0.00    -0.072 SA
HETATM    8  C   UNL     1       7.317  31.364  60.207  1.00  0.00     0.036 A 
HETATM    9  C   UNL     1       6.717  32.048  61.279  1.00  0.00     0.035 A 
ENDROOT
BRANCH   6  10
HETATM   10  C   UNL     1       8.446  29.828  56.776  1.00  0.00     0.074 C 
HETATM   11  C   UNL     1       9.444  28.670  56.709  1.00  0.00     0.187 C 
HETATM   12  O   UNL     1       9.003  27.484  57.375  1.00  0.00    -0.350 OA
HETATM   13  C   UNL     1       7.709  27.122  57.111  1.00  0.00     0.075 A 
HETATM   14  C   UNL     1       7.340  25.840  57.518  1.00  0.00     0.037 A 
HETATM   15  C   UNL     1       6.775  27.969  56.508  1.00  0.00    -0.024 A 
HETATM   16  C   UNL     1       6.040  25.384  57.303  1.00  0.00     0.003 A 
HETATM   17  C   UNL     1       5.107  26.214  56.682  1.00  0.00     0.001 A 
HETATM   18  C   UNL     1       5.472  27.501  56.284  1.00  0.00     0.010 A 
HETATM   19  C   UNL     1       7.155  29.364  56.090  1.00  0.00     0.055 C 
ENDBRANCH   6  10
BRANCH   1  20
HETATM   20  C   UNL     1       6.728  32.784  63.673  1.00  0.00     0.071 A 
HETATM   21  C   UNL     1       7.464  33.270  64.736  1.00  0.00     0.052 A 
HETATM   22  C   UNL     1       6.760  33.945  65.703  1.00  0.00     0.122 A 
HETATM   23  N   UNL     1       5.432  34.142  65.650  1.00  0.00    -0.231 NA
HETATM   24  C   UNL     1       4.805  33.660  64.576  1.00  0.00     0.199 A 
HETATM   25  N   UNL     1       5.392  32.977  63.591  1.00  0.00    -0.218 NA
BRANCH  24  26
HETATM   26  N   UNL     1       3.440  33.839  64.503  1.00  0.00    -0.271 NA
HETATM   27  H   UNL     1       3.002  33.411  65.306  1.00  0.00     0.127 HD
HETATM   28  H   UNL     1       3.112  33.555  63.590  1.00  0.00     0.127 HD
ENDBRANCH  24  26
ENDBRANCH   1  20
TORSDOF 3
ENDMDL
MODEL 2
REMARK VINA RESULT:      -9.0      9.441     11.195
REMARK  3 active torsions:
REMARK  status: ('A' for Active; 'I' for Inactive)
REMARK    1  A    between atoms: N_1  and  C_2 
REMARK    2  A    between atoms: C_6  and  C_8 
REMARK    3  A    between atoms: C_13  and  C_17 
ROOT
HETATM    1  C   UNL     1       7.385  23.897  53.959  1.00  0.00    -0.006 A 
HETATM    2  C   UNL     1       7.818  23.956  52.625  1.00  0.00     0.016 A 
HETATM    3  C   UNL     1       7.416  24.988  51.763  1.00  0.00     0.034 A 
HETATM    4  C   UNL     1       6.559  25.998  52.233  1.00  0.00     0.074 A 
HETATM    5  N   UNL     1       6.100  27.077  51.502  1.00  0.00    -0.244 NA
HETATM    6  C   UNL     1       5.357  27.860  52.255  1.00  0.00     0.083 A 
HETATM    7  S   UNL     1       5.073  27.272  53.850  1.00  0.00    -0.072 SA
HETATM    8  C   UNL     1       6.112  25.935  53.550  1.00  0.00     0.036 A 
HETATM    9  C   UNL     1       6.504  24.899  54.418  1.00  0.00     0.035 A 
ENDROOT
BRANCH   6  10
HETATM   10  C   UNL     1       4.715  29.150  51.785  1.00  0.00     0.074 C 
HETATM   11  C   UNL     1       5.514  29.841  50.679  1.00  0.00     0.187 C 
HETATM   12  O   UNL     1       5.608  29.082  49.470  1.00  0.00    -0.350 OA
HETATM   13  C   UNL     1       4.431  28.527  49.045  1.00  0.00     0.075 A 
HETATM   14  C   UNL     1       4.430  28.021  47.745  1.00  0.00     0.037 A 
HETATM   15  C   UNL     1       3.291  28.418  49.846  1.00  0.00    -0.024 A 
HETATM   16  C   UNL     1       3.281  27.425  47.226  1.00  0.00     0.003 A 
HETATM   17  C   UNL     1       2.132  27.333  48.010  1.00  0.00     0.001 A 
HETATM   18  C   UNL     1       2.135  27.829  49.315  1.00  0.00     0.010 A 
HETATM   19  C   UNL     1       3.290  28.936  51.260  1.00  0.00     0.055 C 
ENDBRANCH   6  10
BRANCH   1  20
HETATM   20  C   UNL     1       7.826  22.822  54.874  1.00  0.00     0.071 A 
HETATM   21  C   UNL     1       7.870  22.977  56.246  1.00  0.00     0.052 A 
HETATM   22  C   UNL     1       8.296  21.888  56.966  1.00  0.00     0.122 A 
HETATM   23  N   UNL     1       8.656  20.722  56.403  1.00  0.00    -0.231 NA
HETATM   24  C   UNL     1       8.559  20.654  55.074  1.00  0.00     0.199 A 
HETATM   25  N   UNL     1       8.173  21.657  54.282  1.00  0.00    -0.218 NA
BRANCH  24  26
HETATM   26  N   UNL     1       8.933  19.472  54.469  1.00  0.00    -0.271 NA
HETATM   27  H   UNL     1       8.392  19.341  53.627  1.00  0.00     0.127 HD
HETATM   28  H   UNL     1       8.918  18.726  55.151  1.00  0.00     0.127 HD
ENDBRANCH  24  26
ENDBRANCH   1  20
TORSDOF 3
ENDMDL
MODEL 3
REMARK VINA RESULT:      -9.0      3.564      5.555
REMARK  3 active torsions:
REMARK  status: ('A' for Active; 'I' for Inactive)
REMARK    1  A    between atoms: N_1  and  C_2 
REMARK    2  A    between atoms: C_6  and  C_8 
REMARK    3  A    between atoms: C_13  and  C_17 
ROOT
HETATM    1  C   UNL     1       8.730  29.773  57.951  1.00  0.00    -0.006 A 
HETATM    2  C   UNL     1       9.494  29.994  56.795  1.00  0.00     0.016 A 
HETATM    3  C   UNL     1       9.239  29.306  55.599  1.00  0.00     0.034 A 
HETATM    4  C   UNL     1       8.193  28.369  55.540  1.00  0.00     0.074 A 
HETATM    5  N   UNL     1       7.823  27.637  54.429  1.00  0.00    -0.244 NA
HETATM    6  C   UNL     1       6.774  26.889  54.700  1.00  0.00     0.083 A 
HETATM    7  S   UNL     1       6.254  26.939  56.342  1.00  0.00    -0.072 SA
HETATM    8  C   UNL     1       7.443  28.133  56.689  1.00  0.00     0.036 A 
HETATM    9  C   UNL     1       7.697  28.813  57.894  1.00  0.00     0.035 A 
ENDROOT
BRANCH   6  10
HETATM   10  C   UNL     1       6.084  25.980  53.702  1.00  0.00     0.074 C 
HETATM   11  C   UNL     1       6.921  25.735  52.445  1.00  0.00     0.187 C 
HETATM   12  O   UNL     1       8.152  25.048  52.692  1.00  0.00    -0.350 OA
HETATM   13  C   UNL     1       8.049  23.959  53.516  1.00  0.00     0.075 A 
HETATM   14  C   UNL     1       9.160  23.118  53.555  1.00  0.00     0.037 A 
HETATM   15  C   UNL     1       6.933  23.694  54.314  1.00  0.00    -0.024 A 
HETATM   16  C   UNL     1       9.156  21.989  54.373  1.00  0.00     0.003 A 
HETATM   17  C   UNL     1       8.038  21.703  55.156  1.00  0.00     0.001 A 
HETATM   18  C   UNL     1       6.929  22.551  55.126  1.00  0.00     0.010 A 
HETATM   19  C   UNL     1       5.739  24.611  54.300  1.00  0.00     0.055 C 
ENDBRANCH   6  10
BRANCH   1  20
HETATM   20  C   UNL     1       8.983  30.514  59.206  1.00  0.00     0.071 A 
HETATM   21  C   UNL     1       9.287  31.861  59.233  1.00  0.00     0.052 A 
HETATM   22  C   UNL     1       9.490  32.412  60.474  1.00  0.00     0.122 A 
HETATM   23  N   UNL     1       9.406  31.713  61.618  1.00  0.00    -0.231 NA
HETATM   24  C   UNL     1       9.084  30.424  61.500  1.00  0.00     0.199 A 
HETATM   25  N   UNL     1       8.882  29.789  60.343  1.00  0.00    -0.218 NA
BRANCH  24  26
HETATM   26  N   UNL     1       9.002  29.680  62.658  1.00  0.00    -0.271 NA
HETATM   27  H   UNL     1       9.859  29.780  63.183  1.00  0.00     0.127 HD
HETATM   28  H   UNL     1       8.702  28.741  62.435  1.00  0.00     0.127 HD
ENDBRANCH  24  26
ENDBRANCH   1  20
TORSDOF 3
ENDMDL
MODEL 4
REMARK VINA RESULT:      -8.8      3.509      8.986
REMARK  3 active torsions:
REMARK  status: ('A' for Active; 'I' for Inactive)
REMARK    1  A    between atoms: N_1  and  C_2 
REMARK    2  A    between atoms: C_6  and  C_8 
REMARK    3  A    between atoms: C_13  and  C_17 
ROOT
HETATM    1  C   UNL     1       8.222  31.219  60.249  1.00  0.00    -0.006 A 
HETATM    2  C   UNL     1       8.722  31.053  61.550  1.00  0.00     0.016 A 
HETATM    3  C   UNL     1       8.051  31.566  62.670  1.00  0.00     0.034 A 
HETATM    4  C   UNL     1       6.844  32.265  62.502  1.00  0.00     0.074 A 
HETATM    5  N   UNL     1       6.073  32.807  63.513  1.00  0.00    -0.244 NA
HETATM    6  C   UNL     1       4.981  33.350  63.018  1.00  0.00     0.083 A 
HETATM    7  S   UNL     1       4.885  33.344  61.297  1.00  0.00    -0.072 SA
HETATM    8  C   UNL     1       6.352  32.448  61.212  1.00  0.00     0.036 A 
HETATM    9  C   UNL     1       7.023  31.944  60.084  1.00  0.00     0.035 A 
ENDROOT
BRANCH   6  10
HETATM   10  C   UNL     1       3.896  34.010  63.845  1.00  0.00     0.074 C 
HETATM   11  C   UNL     1       4.440  34.687  65.105  1.00  0.00     0.187 C 
HETATM   12  O   UNL     1       5.332  35.774  64.839  1.00  0.00    -0.350 OA
HETATM   13  C   UNL     1       4.906  36.647  63.875  1.00  0.00     0.075 A 
HETATM   14  C   UNL     1       5.608  37.849  63.787  1.00  0.00     0.037 A 
HETATM   15  C   UNL     1       3.863  36.372  62.986  1.00  0.00    -0.024 A 
HETATM   16  C   UNL     1       5.256  38.798  62.828  1.00  0.00     0.003 A 
HETATM   17  C   UNL     1       4.202  38.542  61.952  1.00  0.00     0.001 A 
HETATM   18  C   UNL     1       3.506  37.335  62.031  1.00  0.00     0.010 A 
HETATM   19  C   UNL     1       3.117  35.066  63.053  1.00  0.00     0.055 C 
ENDBRANCH   6  10
BRANCH   1  20
HETATM   20  C   UNL     1       8.918  30.659  59.070  1.00  0.00     0.071 A 
HETATM   21  C   UNL     1      10.014  31.265  58.487  1.00  0.00     0.052 A 
HETATM   22  C   UNL     1      10.556  30.623  57.401  1.00  0.00     0.122 A 
HETATM   23  N   UNL     1      10.077  29.470  56.907  1.00  0.00    -0.231 NA
HETATM   24  C   UNL     1       9.032  28.942  57.546  1.00  0.00     0.199 A 
HETATM   25  N   UNL     1       8.421  29.492  58.598  1.00  0.00    -0.218 NA
BRANCH  24  26
HETATM   26  N   UNL     1       8.513  27.764  57.053  1.00  0.00    -0.271 NA
HETATM   27  H   UNL     1       7.743  27.970  56.432  1.00  0.00     0.127 HD
HETATM   28  H   UNL     1       8.334  27.128  57.818  1.00  0.00     0.127 HD
ENDBRANCH  24  26
ENDBRANCH   1  20
TORSDOF 3
ENDMDL
MODEL 5
REMARK VINA RESULT:      -8.8      7.919     11.057
REMARK  3 active torsions:
REMARK  status: ('A' for Active; 'I' for Inactive)
REMARK    1  A    between atoms: N_1  and  C_2 
REMARK    2  A    between atoms: C_6  and  C_8 
REMARK    3  A    between atoms: C_13  and  C_17 
ROOT
HETATM    1  C   UNL     1       7.240  24.014  54.664  1.00  0.00    -0.006 A 
HETATM    2  C   UNL     1       7.527  25.021  55.599  1.00  0.00     0.016 A 
HETATM    3  C   UNL     1       7.036  26.327  55.452  1.00  0.00     0.034 A 
HETATM    4  C   UNL     1       6.233  26.651  54.345  1.00  0.00     0.074 A 
HETATM    5  N   UNL     1       5.671  27.887  54.085  1.00  0.00    -0.244 NA
HETATM    6  C   UNL     1       4.936  27.837  52.994  1.00  0.00     0.083 A 
HETATM    7  S   UNL     1       4.981  26.330  52.159  1.00  0.00    -0.072 SA
HETATM    8  C   UNL     1       5.960  25.660  53.405  1.00  0.00     0.036 A 
HETATM    9  C   UNL     1       6.455  24.351  53.542  1.00  0.00     0.035 A 
ENDROOT
BRANCH   6  10
HETATM   10  C   UNL     1       4.150  29.005  52.431  1.00  0.00     0.074 C 
HETATM   11  C   UNL     1       5.049  30.106  51.865  1.00  0.00     0.187 C 
HETATM   12  O   UNL     1       5.837  29.693  50.744  1.00  0.00    -0.350 OA
HETATM   13  C   UNL     1       5.157  28.982  49.792  1.00  0.00     0.075 A 
HETATM   14  C   UNL     1       5.817  28.805  48.577  1.00  0.00     0.037 A 
HETATM   15  C   UNL     1       3.895  28.417  50.000  1.00  0.00    -0.024 A 
HETATM   16  C   UNL     1       5.210  28.084  47.548  1.00  0.00     0.003 A 
HETATM   17  C   UNL     1       3.942  27.537  47.739  1.00  0.00     0.001 A 
HETATM   18  C   UNL     1       3.285  27.704  48.959  1.00  0.00     0.010 A 
HETATM   19  C   UNL     1       3.186  28.578  51.319  1.00  0.00     0.055 C 
ENDBRANCH   6  10
BRANCH   1  20
HETATM   20  C   UNL     1       7.739  22.631  54.831  1.00  0.00     0.071 A 
HETATM   21  C   UNL     1       8.077  22.100  56.061  1.00  0.00     0.052 A 
HETATM   22  C   UNL     1       8.519  20.799  56.058  1.00  0.00     0.122 A 
HETATM   23  N   UNL     1       8.628  20.056  54.944  1.00  0.00    -0.231 NA
HETATM   24  C   UNL     1       8.257  20.642  53.804  1.00  0.00     0.199 A 
HETATM   25  N   UNL     1       7.830  21.902  53.696  1.00  0.00    -0.218 NA
BRANCH  24  26
HETATM   26  N   UNL     1       8.369  19.905  52.645  1.00  0.00    -0.271 NA
HETATM   27  H   UNL     1       7.922  19.008  52.772  1.00  0.00     0.127 HD
HETATM   28  H   UNL     1       9.332  19.904  52.338  1.00  0.00     0.127 HD
ENDBRANCH  24  26
ENDBRANCH   1  20
TORSDOF 3
ENDMDL
MODEL 6
REMARK VINA RESULT:      -8.4      3.272      8.999
REMARK  3 active torsions:
REMARK  status: ('A' for Active; 'I' for Inactive)
REMARK    1  A    between atoms: N_1  and  C_2 
REMARK    2  A    between atoms: C_6  and  C_8 
REMARK    3  A    between atoms: C_13  and  C_17 
ROOT
HETATM    1  C   UNL     1       7.597  31.474  59.535  1.00  0.00    -0.006 A 
HETATM    2  C   UNL     1       8.134  31.973  60.732  1.00  0.00     0.016 A 
HETATM    3  C   UNL     1       7.419  32.862  61.548  1.00  0.00     0.034 A 
HETATM    4  C   UNL     1       6.128  33.272  61.173  1.00  0.00     0.074 A 
HETATM    5  N   UNL     1       5.308  34.125  61.886  1.00  0.00    -0.244 NA
HETATM    6  C   UNL     1       4.147  34.261  61.281  1.00  0.00     0.083 A 
HETATM    7  S   UNL     1       4.027  33.463  59.758  1.00  0.00    -0.072 SA
HETATM    8  C   UNL     1       5.597  32.793  59.977  1.00  0.00     0.036 A 
HETATM    9  C   UNL     1       6.311  31.908  59.150  1.00  0.00     0.035 A 
ENDROOT
BRANCH   6  10
HETATM   10  C   UNL     1       2.998  35.101  61.801  1.00  0.00     0.074 C 
HETATM   11  C   UNL     1       2.028  34.303  62.674  1.00  0.00     0.187 C 
HETATM   12  O   UNL     1       2.612  33.796  63.877  1.00  0.00    -0.350 OA
HETATM   13  C   UNL     1       3.376  34.696  64.571  1.00  0.00     0.075 A 
HETATM   14  C   UNL     1       3.728  34.325  65.868  1.00  0.00     0.037 A 
HETATM   15  C   UNL     1       3.830  35.905  64.033  1.00  0.00    -0.024 A 
HETATM   16  C   UNL     1       4.515  35.170  66.649  1.00  0.00     0.003 A 
HETATM   17  C   UNL     1       4.953  36.388  66.130  1.00  0.00     0.001 A 
HETATM   18  C   UNL     1       4.611  36.756  64.828  1.00  0.00     0.010 A 
HETATM   19  C   UNL     1       3.479  36.302  62.624  1.00  0.00     0.055 C 
ENDBRANCH   6  10
BRANCH   1  20
HETATM   20  C   UNL     1       8.342  30.519  58.686  1.00  0.00     0.071 A 
HETATM   21  C   UNL     1       7.774  29.366  58.179  1.00  0.00     0.052 A 
HETATM   22  C   UNL     1       8.589  28.580  57.401  1.00  0.00     0.122 A 
HETATM   23  N   UNL     1       9.869  28.884  57.127  1.00  0.00    -0.231 NA
HETATM   24  C   UNL     1      10.327  30.028  57.637  1.00  0.00     0.199 A 
HETATM   25  N   UNL     1       9.624  30.853  58.417  1.00  0.00    -0.218 NA
BRANCH  24  26
HETATM   26  N   UNL     1      11.640  30.358  57.380  1.00  0.00    -0.271 NA
HETATM   27  H   UNL     1      11.738  31.364  57.374  1.00  0.00     0.127 HD
HETATM   28  H   UNL     1      11.960  29.856  56.563  1.00  0.00     0.127 HD
ENDBRANCH  24  26
ENDBRANCH   1  20
TORSDOF 3
ENDMDL
MODEL 7
REMARK VINA RESULT:      -8.3      6.846     10.278
REMARK  3 active torsions:
REMARK  status: ('A' for Active; 'I' for Inactive)
REMARK    1  A    between atoms: N_1  and  C_2 
REMARK    2  A    between atoms: C_6  and  C_8 
REMARK    3  A    between atoms: C_13  and  C_17 
ROOT
HETATM    1  C   UNL     1       6.085  26.552  54.302  1.00  0.00    -0.006 A 
HETATM    2  C   UNL     1       5.499  25.291  54.111  1.00  0.00     0.016 A 
HETATM    3  C   UNL     1       4.979  24.900  52.867  1.00  0.00     0.034 A 
HETATM    4  C   UNL     1       5.042  25.781  51.775  1.00  0.00     0.074 A 
HETATM    5  N   UNL     1       4.586  25.520  50.496  1.00  0.00    -0.244 NA
HETATM    6  C   UNL     1       4.842  26.538  49.701  1.00  0.00     0.083 A 
HETATM    7  S   UNL     1       5.537  27.909  50.480  1.00  0.00    -0.072 SA
HETATM    8  C   UNL     1       5.606  27.040  51.963  1.00  0.00     0.036 A 
HETATM    9  C   UNL     1       6.122  27.443  53.208  1.00  0.00     0.035 A 
ENDROOT
BRANCH   6  10
HETATM   10  C   UNL     1       4.507  26.581  48.223  1.00  0.00     0.074 C 
HETATM   11  C   UNL     1       3.054  26.198  47.934  1.00  0.00     0.187 C 
HETATM   12  O   UNL     1       2.094  27.097  48.497  1.00  0.00    -0.350 OA
HETATM   13  C   UNL     1       2.369  28.425  48.311  1.00  0.00     0.075 A 
HETATM   14  C   UNL     1       1.330  29.309  48.601  1.00  0.00     0.037 A 
HETATM   15  C   UNL     1       3.614  28.908  47.897  1.00  0.00    -0.024 A 
HETATM   16  C   UNL     1       1.518  30.683  48.454  1.00  0.00     0.003 A 
HETATM   17  C   UNL     1       2.749  31.173  48.019  1.00  0.00     0.001 A 
HETATM   18  C   UNL     1       3.793  30.289  47.740  1.00  0.00     0.010 A 
HETATM   19  C   UNL     1       4.751  27.964  47.609  1.00  0.00     0.055 C 
ENDBRANCH   6  10
BRANCH   1  20
HETATM   20  C   UNL     1       6.654  26.957  55.606  1.00  0.00     0.071 A 
HETATM   21  C   UNL     1       6.700  28.272  56.028  1.00  0.00     0.052 A 
HETATM   22  C   UNL     1       7.252  28.492  57.267  1.00  0.00     0.122 A 
HETATM   23  N   UNL     1       7.729  27.510  58.050  1.00  0.00    -0.231 NA
HETATM   24  C   UNL     1       7.622  26.269  57.573  1.00  0.00     0.199 A 
HETATM   25  N   UNL     1       7.119  25.949  56.379  1.00  0.00    -0.218 NA
BRANCH  24  26
HETATM   26  N   UNL     1       8.115  25.244  58.352  1.00  0.00    -0.271 NA
HETATM   27  H   UNL     1       7.752  25.332  59.291  1.00  0.00     0.127 HD
HETATM   28  H   UNL     1       9.118  25.192  58.246  1.00  0.00     0.127 HD
ENDBRANCH  24  26
ENDBRANCH   1  20
TORSDOF 3
ENDMDL
MODEL 8
REMARK VINA RESULT:      -8.2      1.822      2.310
REMARK  3 active torsions:
REMARK  status: ('A' for Active; 'I' for Inactive)
REMARK    1  A    between atoms: N_1  and  C_2 
REMARK    2  A    between atoms: C_6  and  C_8 
REMARK    3  A    between atoms: C_13  and  C_17 
ROOT
HETATM    1  C   UNL     1       5.313  32.732  60.604  1.00  0.00    -0.006 A 
HETATM    2  C   UNL     1       4.318  32.403  59.670  1.00  0.00     0.016 A 
HETATM    3  C   UNL     1       4.610  31.676  58.506  1.00  0.00     0.034 A 
HETATM    4  C   UNL     1       5.928  31.257  58.256  1.00  0.00     0.074 A 
HETATM    5  N   UNL     1       6.352  30.524  57.164  1.00  0.00    -0.244 NA
HETATM    6  C   UNL     1       7.637  30.256  57.260  1.00  0.00     0.083 A 
HETATM    7  S   UNL     1       8.427  30.977  58.612  1.00  0.00    -0.072 SA
HETATM    8  C   UNL     1       6.922  31.595  59.171  1.00  0.00     0.036 A 
HETATM    9  C   UNL     1       6.639  32.330  60.335  1.00  0.00     0.035 A 
ENDROOT
BRANCH   6  10
HETATM   10  C   UNL     1       8.426  29.445  56.252  1.00  0.00     0.074 C 
HETATM   11  C   UNL     1       9.362  28.429  56.909  1.00  0.00     0.187 C 
HETATM   12  O   UNL     1       8.684  27.417  57.661  1.00  0.00    -0.350 OA
HETATM   13  C   UNL     1       7.605  26.857  57.031  1.00  0.00     0.075 A 
HETATM   14  C   UNL     1       7.098  25.694  57.610  1.00  0.00     0.037 A 
HETATM   15  C   UNL     1       6.996  27.407  55.899  1.00  0.00    -0.024 A 
HETATM   16  C   UNL     1       5.992  25.057  57.048  1.00  0.00     0.003 A 
HETATM   17  C   UNL     1       5.392  25.585  55.906  1.00  0.00     0.001 A 
HETATM   18  C   UNL     1       5.892  26.755  55.332  1.00  0.00     0.010 A 
HETATM   19  C   UNL     1       7.519  28.677  55.283  1.00  0.00     0.055 C 
ENDBRANCH   6  10
BRANCH   1  20
HETATM   20  C   UNL     1       5.002  33.478  61.843  1.00  0.00     0.071 A 
HETATM   21  C   UNL     1       5.940  34.236  62.517  1.00  0.00     0.052 A 
HETATM   22  C   UNL     1       5.500  34.877  63.650  1.00  0.00     0.122 A 
HETATM   23  N   UNL     1       4.239  34.796  64.105  1.00  0.00    -0.231 NA
HETATM   24  C   UNL     1       3.395  34.063  63.378  1.00  0.00     0.199 A 
HETATM   25  N   UNL     1       3.723  33.388  62.274  1.00  0.00    -0.218 NA
BRANCH  24  26
HETATM   26  N   UNL     1       2.096  33.954  63.829  1.00  0.00    -0.271 NA
HETATM   27  H   UNL     1       1.460  34.143  63.067  1.00  0.00     0.127 HD
HETATM   28  H   UNL     1       1.986  34.501  64.672  1.00  0.00     0.127 HD
ENDBRANCH  24  26
ENDBRANCH   1  20
TORSDOF 3
ENDMDL
MODEL 9
REMARK VINA RESULT:      -8.0      3.281      9.028
REMARK  3 active torsions:
REMARK  status: ('A' for Active; 'I' for Inactive)
REMARK    1  A    between atoms: N_1  and  C_2 
REMARK    2  A    between atoms: C_6  and  C_8 
REMARK    3  A    between atoms: C_13  and  C_17 
ROOT
HETATM    1  C   UNL     1       7.490  31.071  58.758  1.00  0.00    -0.006 A 
HETATM    2  C   UNL     1       6.249  31.574  58.337  1.00  0.00     0.016 A 
HETATM    3  C   UNL     1       5.347  32.161  59.237  1.00  0.00     0.034 A 
HETATM    4  C   UNL     1       5.682  32.259  60.599  1.00  0.00     0.074 A 
HETATM    5  N   UNL     1       4.900  32.827  61.587  1.00  0.00    -0.244 NA
HETATM    6  C   UNL     1       5.529  32.800  62.743  1.00  0.00     0.083 A 
HETATM    7  S   UNL     1       7.046  31.981  62.723  1.00  0.00    -0.072 SA
HETATM    8  C   UNL     1       6.905  31.746  61.024  1.00  0.00     0.036 A 
HETATM    9  C   UNL     1       7.810  31.149  60.130  1.00  0.00     0.035 A 
ENDROOT
BRANCH   6  10
HETATM   10  C   UNL     1       4.977  33.365  64.036  1.00  0.00     0.074 C 
HETATM   11  C   UNL     1       6.013  34.173  64.820  1.00  0.00     0.187 C 
HETATM   12  O   UNL     1       6.470  35.346  64.139  1.00  0.00    -0.350 OA
HETATM   13  C   UNL     1       5.482  36.104  63.572  1.00  0.00     0.075 A 
HETATM   14  C   UNL     1       5.860  37.377  63.146  1.00  0.00     0.037 A 
HETATM   15  C   UNL     1       4.174  35.653  63.376  1.00  0.00    -0.024 A 
HETATM   16  C   UNL     1       4.927  38.221  62.544  1.00  0.00     0.003 A 
HETATM   17  C   UNL     1       3.614  37.788  62.365  1.00  0.00     0.001 A 
HETATM   18  C   UNL     1       3.237  36.510  62.781  1.00  0.00     0.010 A 
HETATM   19  C   UNL     1       3.762  34.271  63.806  1.00  0.00     0.055 C 
ENDBRANCH   6  10
BRANCH   1  20
HETATM   20  C   UNL     1       8.451  30.472  57.806  1.00  0.00     0.071 A 
HETATM   21  C   UNL     1       8.057  29.732  56.708  1.00  0.00     0.052 A 
HETATM   22  C   UNL     1       9.064  29.244  55.912  1.00  0.00     0.122 A 
HETATM   23  N   UNL     1      10.368  29.455  56.154  1.00  0.00    -0.231 NA
HETATM   24  C   UNL     1      10.657  30.201  57.222  1.00  0.00     0.199 A 
HETATM   25  N   UNL     1       9.757  30.707  58.068  1.00  0.00    -0.218 NA
BRANCH  24  26
HETATM   26  N   UNL     1      11.989  30.424  57.500  1.00  0.00    -0.271 NA
HETATM   27  H   UNL     1      12.559  29.848  56.897  1.00  0.00     0.127 HD
HETATM   28  H   UNL     1      12.143  30.346  58.496  1.00  0.00     0.127 HD
ENDBRANCH  24  26
ENDBRANCH   1  20
TORSDOF 3
ENDMDL
MODEL 10
REMARK VINA RESULT:      -7.7      3.679      9.083
REMARK  3 active torsions:
REMARK  status: ('A' for Active; 'I' for Inactive)
REMARK    1  A    between atoms: N_1  and  C_2 
REMARK    2  A    between atoms: C_6  and  C_8 
REMARK    3  A    between atoms: C_13  and  C_17 
ROOT
HETATM    1  C   UNL     1       6.457  27.917  55.213  1.00  0.00    -0.006 A 
HETATM    2  C   UNL     1       5.478  28.246  56.164  1.00  0.00     0.016 A 
HETATM    3  C   UNL     1       5.805  28.888  57.368  1.00  0.00     0.034 A 
HETATM    4  C   UNL     1       7.143  29.219  57.643  1.00  0.00     0.074 A 
HETATM    5  N   UNL     1       7.602  29.863  58.776  1.00  0.00    -0.244 NA
HETATM    6  C   UNL     1       8.900  30.065  58.696  1.00  0.00     0.083 A 
HETATM    7  S   UNL     1       9.655  29.380  57.306  1.00  0.00    -0.072 SA
HETATM    8  C   UNL     1       8.120  28.879  56.711  1.00  0.00     0.036 A 
HETATM    9  C   UNL     1       7.802  28.229  55.506  1.00  0.00     0.035 A 
ENDROOT
BRANCH   6  10
HETATM   10  C   UNL     1       9.728  30.772  59.751  1.00  0.00     0.074 C 
HETATM   11  C   UNL     1       9.766  32.289  59.555  1.00  0.00     0.187 C 
HETATM   12  O   UNL     1       8.489  32.923  59.685  1.00  0.00    -0.350 OA
HETATM   13  C   UNL     1       7.751  32.516  60.764  1.00  0.00     0.075 A 
HETATM   14  C   UNL     1       6.640  33.300  61.072  1.00  0.00     0.037 A 
HETATM   15  C   UNL     1       8.038  31.371  61.513  1.00  0.00    -0.024 A 
HETATM   16  C   UNL     1       5.819  32.960  62.147  1.00  0.00     0.003 A 
HETATM   17  C   UNL     1       6.109  31.832  62.913  1.00  0.00     0.001 A 
HETATM   18  C   UNL     1       7.215  31.040  62.599  1.00  0.00     0.010 A 
HETATM   19  C   UNL     1       9.219  30.502  61.171  1.00  0.00     0.055 C 
ENDBRANCH   6  10
BRANCH   1  20
HETATM   20  C   UNL     1       6.110  27.261  53.933  1.00  0.00     0.071 A 
HETATM   21  C   UNL     1       4.881  27.412  53.323  1.00  0.00     0.052 A 
HETATM   22  C   UNL     1       4.708  26.745  52.134  1.00  0.00     0.122 A 
HETATM   23  N   UNL     1       5.658  25.983  51.568  1.00  0.00    -0.231 NA
HETATM   24  C   UNL     1       6.823  25.913  52.214  1.00  0.00     0.199 A 
HETATM   25  N   UNL     1       7.087  26.507  53.380  1.00  0.00    -0.218 NA
BRANCH  24  26
HETATM   26  N   UNL     1       7.812  25.128  51.660  1.00  0.00    -0.271 NA
HETATM   27  H   UNL     1       7.922  25.366  50.685  1.00  0.00     0.127 HD
HETATM   28  H   UNL     1       7.637  24.158  51.884  1.00  0.00     0.127 HD
ENDBRANCH  24  26
ENDBRANCH   1  20
TORSDOF 3
ENDMDL
