MODEL 1
REMARK VINA RESULT:      -8.9      0.000      0.000
REMARK  8 active torsions:
REMARK  status: ('A' for Active; 'I' for Inactive)
REMARK    1  A    between atoms: O_2  and  C_3 
REMARK    2  A    between atoms: C_7  and  C_9 
REMARK    3  A    between atoms: C_9  and  C_10 
REMARK    4  A    between atoms: C_9  and  N_13 
REMARK    5  A    between atoms: C_10  and  C_11 
REMARK    6  A    between atoms: C_11  and  O_12 
REMARK       I    between atoms: N_13  and  C_14 
REMARK    7  A    between atoms: C_14  and  C_16 
REMARK    8  A    between atoms: C_19  and  C_22 
ROOT
HETATM    1  N   UNL     1       6.944  26.674  54.923  1.00  0.00    -0.348 N 
HETATM    2  C   UNL     1       7.630  27.863  54.799  1.00  0.00     0.252 C 
HETATM    3  O   UNL     1       8.044  28.292  53.728  1.00  0.00    -0.268 OA
HETATM    4  H   UNL     1       6.571  26.390  55.816  1.00  0.00     0.163 HD
ENDROOT
BRANCH   1   5
HETATM    5  C   UNL     1       6.696  25.797  53.786  1.00  0.00     0.120 C 
BRANCH   5   6
HETATM    6  C   UNL     1       7.288  24.407  53.989  1.00  0.00    -0.033 A 
HETATM    7  C   UNL     1       7.507  23.592  52.865  1.00  0.00     0.009 A 
HETATM    8  C   UNL     1       8.002  22.296  53.008  1.00  0.00     0.003 A 
HETATM    9  C   UNL     1       8.298  21.802  54.276  1.00  0.00     0.037 A 
HETATM   10  C   UNL     1       8.113  22.601  55.405  1.00  0.00     0.068 A 
HETATM   11  C   UNL     1       7.590  23.889  55.262  1.00  0.00     0.046 A 
BRANCH  10  12
HETATM   12  O   UNL     1       8.451  22.008  56.591  1.00  0.00    -0.356 OA
HETATM   13  C   UNL     1       8.725  20.613  56.536  1.00  0.00     0.210 C 
ENDBRANCH  10  12
ENDBRANCH   5   6
BRANCH   5  14
HETATM   14  C   UNL     1       5.188  25.692  53.512  1.00  0.00     0.056 C 
BRANCH  14  15
HETATM   15  C   UNL     1       4.658  26.900  52.748  1.00  0.00     0.166 C 
BRANCH  15  16
HETATM   16  O   UNL     1       3.440  27.341  53.337  1.00  0.00    -0.401 OA
HETATM   17  H   UNL     1       3.007  26.566  53.735  1.00  0.00     0.209 HD
ENDBRANCH  15  16
ENDBRANCH  14  15
ENDBRANCH   5  14
ENDBRANCH   1   5
BRANCH   2  18
HETATM   18  C   UNL     1       7.799  28.669  56.043  1.00  0.00     0.032 A 
HETATM   19  C   UNL     1       9.048  28.924  56.619  1.00  0.00     0.018 A 
HETATM   20  C   UNL     1       9.138  29.646  57.817  1.00  0.00     0.013 A 
HETATM   21  C   UNL     1       7.990  30.140  58.460  1.00  0.00    -0.026 A 
HETATM   22  C   UNL     1       6.747  29.907  57.850  1.00  0.00     0.013 A 
HETATM   23  C   UNL     1       6.651  29.183  56.656  1.00  0.00     0.018 A 
BRANCH  21  24
HETATM   24  C   UNL     1       8.087  30.867  59.739  1.00  0.00    -0.023 A 
HETATM   25  C   UNL     1       9.077  30.560  60.681  1.00  0.00     0.031 A 
HETATM   26  C   UNL     1       9.117  31.266  61.874  1.00  0.00     0.117 A 
HETATM   27  N   UNL     1       8.250  32.246  62.196  1.00  0.00    -0.273 NA
HETATM   28  C   UNL     1       7.303  32.537  61.281  1.00  0.00     0.117 A 
HETATM   29  C   UNL     1       7.184  31.888  60.062  1.00  0.00     0.031 A 
ENDBRANCH  21  24
ENDBRANCH   2  18
TORSDOF 8
ENDMDL
MODEL 2
REMARK VINA RESULT:      -8.8      2.913      9.106
REMARK  8 active torsions:
REMARK  status: ('A' for Active; 'I' for Inactive)
REMARK    1  A    between atoms: O_2  and  C_3 
REMARK    2  A    between atoms: C_7  and  C_9 
REMARK    3  A    between atoms: C_9  and  C_10 
REMARK    4  A    between atoms: C_9  and  N_13 
REMARK    5  A    between atoms: C_10  and  C_11 
REMARK    6  A    between atoms: C_11  and  O_12 
REMARK       I    between atoms: N_13  and  C_14 
REMARK    7  A    between atoms: C_14  and  C_16 
REMARK    8  A    between atoms: C_19  and  C_22 
ROOT
HETATM    1  N   UNL     1       8.608  29.444  58.050  1.00  0.00    -0.348 N 
HETATM    2  C   UNL     1       7.676  28.987  57.144  1.00  0.00     0.252 C 
HETATM    3  O   UNL     1       6.892  29.723  56.558  1.00  0.00    -0.268 OA
HETATM    4  H   UNL     1       9.273  28.809  58.464  1.00  0.00     0.163 HD
ENDROOT
BRANCH   1   5
HETATM    5  C   UNL     1       8.705  30.849  58.426  1.00  0.00     0.120 C 
BRANCH   5   6
HETATM    6  C   UNL     1       8.343  31.083  59.887  1.00  0.00    -0.033 A 
HETATM    7  C   UNL     1       9.136  30.491  60.886  1.00  0.00     0.009 A 
HETATM    8  C   UNL     1       8.814  30.639  62.234  1.00  0.00     0.003 A 
HETATM    9  C   UNL     1       7.702  31.391  62.604  1.00  0.00     0.037 A 
HETATM   10  C   UNL     1       6.913  32.008  61.633  1.00  0.00     0.068 A 
HETATM   11  C   UNL     1       7.221  31.836  60.280  1.00  0.00     0.046 A 
BRANCH  10  12
HETATM   12  O   UNL     1       5.857  32.728  62.121  1.00  0.00    -0.356 OA
HETATM   13  C   UNL     1       4.628  32.022  62.252  1.00  0.00     0.210 C 
ENDBRANCH  10  12
ENDBRANCH   5   6
BRANCH   5  14
HETATM   14  C   UNL     1      10.118  31.382  58.141  1.00  0.00     0.056 C 
BRANCH  14  15
HETATM   15  C   UNL     1      10.966  30.375  57.371  1.00  0.00     0.166 C 
BRANCH  15  16
HETATM   16  O   UNL     1      10.590  30.385  55.999  1.00  0.00    -0.401 OA
HETATM   17  H   UNL     1      11.256  30.902  55.513  1.00  0.00     0.209 HD
ENDBRANCH  15  16
ENDBRANCH  14  15
ENDBRANCH   5  14
ENDBRANCH   1   5
BRANCH   2  18
HETATM   18  C   UNL     1       7.699  27.526  56.842  1.00  0.00     0.032 A 
HETATM   19  C   UNL     1       7.943  26.553  57.817  1.00  0.00     0.018 A 
HETATM   20  C   UNL     1       8.002  25.198  57.462  1.00  0.00     0.013 A 
HETATM   21  C   UNL     1       7.807  24.782  56.133  1.00  0.00    -0.026 A 
HETATM   22  C   UNL     1       7.527  25.769  55.174  1.00  0.00     0.013 A 
HETATM   23  C   UNL     1       7.471  27.123  55.523  1.00  0.00     0.018 A 
BRANCH  21  24
HETATM   24  C   UNL     1       7.906  23.360  55.759  1.00  0.00    -0.023 A 
HETATM   25  C   UNL     1       7.649  22.928  54.451  1.00  0.00     0.031 A 
HETATM   26  C   UNL     1       7.744  21.577  54.155  1.00  0.00     0.117 A 
HETATM   27  N   UNL     1       8.073  20.631  55.056  1.00  0.00    -0.273 NA
HETATM   28  C   UNL     1       8.321  21.057  56.311  1.00  0.00     0.117 A 
HETATM   29  C   UNL     1       8.252  22.385  56.703  1.00  0.00     0.031 A 
ENDBRANCH  21  24
ENDBRANCH   2  18
TORSDOF 8
ENDMDL
MODEL 3
REMARK VINA RESULT:      -8.7      7.636     13.354
REMARK  8 active torsions:
REMARK  status: ('A' for Active; 'I' for Inactive)
REMARK    1  A    between atoms: O_2  and  C_3 
REMARK    2  A    between atoms: C_7  and  C_9 
REMARK    3  A    between atoms: C_9  and  C_10 
REMARK    4  A    between atoms: C_9  and  N_13 
REMARK    5  A    between atoms: C_10  and  C_11 
REMARK    6  A    between atoms: C_11  and  O_12 
REMARK       I    between atoms: N_13  and  C_14 
REMARK    7  A    between atoms: C_14  and  C_16 
REMARK    8  A    between atoms: C_19  and  C_22 
ROOT
HETATM    1  N   UNL     1       6.151  33.874  66.221  1.00  0.00    -0.348 N 
HETATM    2  C   UNL     1       5.439  33.365  65.157  1.00  0.00     0.252 C 
HETATM    3  O   UNL     1       4.215  33.354  65.111  1.00  0.00    -0.268 OA
HETATM    4  H   UNL     1       7.158  33.916  66.188  1.00  0.00     0.163 HD
ENDROOT
BRANCH   1   5
HETATM    5  C   UNL     1       5.499  34.401  67.413  1.00  0.00     0.120 C 
BRANCH   5   6
HETATM    6  C   UNL     1       6.353  34.226  68.663  1.00  0.00    -0.033 A 
HETATM    7  C   UNL     1       7.544  34.964  68.780  1.00  0.00     0.009 A 
HETATM    8  C   UNL     1       8.381  34.801  69.883  1.00  0.00     0.003 A 
HETATM    9  C   UNL     1       8.031  33.907  70.893  1.00  0.00     0.037 A 
HETATM   10  C   UNL     1       6.843  33.181  70.812  1.00  0.00     0.068 A 
HETATM   11  C   UNL     1       6.019  33.325  69.691  1.00  0.00     0.046 A 
BRANCH  10  12
HETATM   12  O   UNL     1       6.605  32.345  71.869  1.00  0.00    -0.356 OA
HETATM   13  C   UNL     1       7.543  31.292  72.054  1.00  0.00     0.210 C 
ENDBRANCH  10  12
ENDBRANCH   5   6
BRANCH   5  14
HETATM   14  C   UNL     1       5.148  35.884  67.218  1.00  0.00     0.056 C 
BRANCH  14  15
HETATM   15  C   UNL     1       3.731  36.074  66.688  1.00  0.00     0.166 C 
BRANCH  15  16
HETATM   16  O   UNL     1       2.868  35.107  67.276  1.00  0.00    -0.401 OA
HETATM   17  H   UNL     1       2.696  34.420  66.610  1.00  0.00     0.209 HD
ENDBRANCH  15  16
ENDBRANCH  14  15
ENDBRANCH   5  14
ENDBRANCH   1   5
BRANCH   2  18
HETATM   18  C   UNL     1       6.234  32.872  63.995  1.00  0.00     0.032 A 
HETATM   19  C   UNL     1       7.632  32.810  64.003  1.00  0.00     0.018 A 
HETATM   20  C   UNL     1       8.325  32.385  62.862  1.00  0.00     0.013 A 
HETATM   21  C   UNL     1       7.644  32.001  61.693  1.00  0.00    -0.026 A 
HETATM   22  C   UNL     1       6.241  32.034  61.715  1.00  0.00     0.013 A 
HETATM   23  C   UNL     1       5.543  32.462  62.850  1.00  0.00     0.018 A 
BRANCH  21  24
HETATM   24  C   UNL     1       8.380  31.589  60.484  1.00  0.00    -0.023 A 
HETATM   25  C   UNL     1       9.563  32.229  60.095  1.00  0.00     0.031 A 
HETATM   26  C   UNL     1      10.209  31.812  58.941  1.00  0.00     0.117 A 
HETATM   27  N   UNL     1       9.767  30.812  58.152  1.00  0.00    -0.273 NA
HETATM   28  C   UNL     1       8.629  30.200  58.537  1.00  0.00     0.117 A 
HETATM   29  C   UNL     1       7.914  30.546  59.673  1.00  0.00     0.031 A 
ENDBRANCH  21  24
ENDBRANCH   2  18
TORSDOF 8
ENDMDL
MODEL 4
REMARK VINA RESULT:      -8.6      5.614      8.934
REMARK  8 active torsions:
REMARK  status: ('A' for Active; 'I' for Inactive)
REMARK    1  A    between atoms: O_2  and  C_3 
REMARK    2  A    between atoms: C_7  and  C_9 
REMARK    3  A    between atoms: C_9  and  C_10 
REMARK    4  A    between atoms: C_9  and  N_13 
REMARK    5  A    between atoms: C_10  and  C_11 
REMARK    6  A    between atoms: C_11  and  O_12 
REMARK       I    between atoms: N_13  and  C_14 
REMARK    7  A    between atoms: C_14  and  C_16 
REMARK    8  A    between atoms: C_19  and  C_22 
ROOT
HETATM    1  N   UNL     1       4.556  27.403  51.774  1.00  0.00    -0.348 N 
HETATM    2  C   UNL     1       5.762  27.351  52.440  1.00  0.00     0.252 C 
HETATM    3  O   UNL     1       6.413  28.347  52.728  1.00  0.00    -0.268 OA
HETATM    4  H   UNL     1       4.026  26.560  51.610  1.00  0.00     0.163 HD
ENDROOT
BRANCH   1   5
HETATM    5  C   UNL     1       3.976  28.657  51.311  1.00  0.00     0.120 C 
BRANCH   5   6
HETATM    6  C   UNL     1       3.356  28.529  49.924  1.00  0.00    -0.033 A 
HETATM    7  C   UNL     1       2.336  29.422  49.552  1.00  0.00     0.009 A 
HETATM    8  C   UNL     1       1.708  29.312  48.312  1.00  0.00     0.003 A 
HETATM    9  C   UNL     1       2.101  28.316  47.421  1.00  0.00     0.037 A 
HETATM   10  C   UNL     1       3.127  27.433  47.758  1.00  0.00     0.068 A 
HETATM   11  C   UNL     1       3.736  27.527  49.013  1.00  0.00     0.046 A 
BRANCH  10  12
HETATM   12  O   UNL     1       3.429  26.508  46.796  1.00  0.00    -0.356 OA
HETATM   13  C   UNL     1       2.678  25.300  46.836  1.00  0.00     0.210 C 
ENDBRANCH  10  12
ENDBRANCH   5   6
BRANCH   5  14
HETATM   14  C   UNL     1       2.926  29.162  52.313  1.00  0.00     0.056 C 
BRANCH  14  15
HETATM   15  C   UNL     1       3.330  30.487  52.949  1.00  0.00     0.166 C 
BRANCH  15  16
HETATM   16  O   UNL     1       4.748  30.617  52.922  1.00  0.00    -0.401 OA
HETATM   17  H   UNL     1       4.986  31.374  53.485  1.00  0.00     0.209 HD
ENDBRANCH  15  16
ENDBRANCH  14  15
ENDBRANCH   5  14
ENDBRANCH   1   5
BRANCH   2  18
HETATM   18  C   UNL     1       6.230  26.001  52.869  1.00  0.00     0.032 A 
HETATM   19  C   UNL     1       5.891  25.437  54.103  1.00  0.00     0.018 A 
HETATM   20  C   UNL     1       6.403  24.185  54.471  1.00  0.00     0.013 A 
HETATM   21  C   UNL     1       7.253  23.463  53.615  1.00  0.00    -0.026 A 
HETATM   22  C   UNL     1       7.554  24.028  52.365  1.00  0.00     0.013 A 
HETATM   23  C   UNL     1       7.048  25.279  51.994  1.00  0.00     0.018 A 
BRANCH  21  24
HETATM   24  C   UNL     1       7.819  22.164  54.022  1.00  0.00    -0.023 A 
HETATM   25  C   UNL     1       8.275  21.237  53.076  1.00  0.00     0.031 A 
HETATM   26  C   UNL     1       8.786  20.024  53.512  1.00  0.00     0.117 A 
HETATM   27  N   UNL     1       8.876  19.668  54.808  1.00  0.00    -0.273 NA
HETATM   28  C   UNL     1       8.437  20.569  55.711  1.00  0.00     0.117 A 
HETATM   29  C   UNL     1       7.911  21.806  55.373  1.00  0.00     0.031 A 
ENDBRANCH  21  24
ENDBRANCH   2  18
TORSDOF 8
ENDMDL
MODEL 5
REMARK VINA RESULT:      -8.4      3.797      9.913
REMARK  8 active torsions:
REMARK  status: ('A' for Active; 'I' for Inactive)
REMARK    1  A    between atoms: O_2  and  C_3 
REMARK    2  A    between atoms: C_7  and  C_9 
REMARK    3  A    between atoms: C_9  and  C_10 
REMARK    4  A    between atoms: C_9  and  N_13 
REMARK    5  A    between atoms: C_10  and  C_11 
REMARK    6  A    between atoms: C_11  and  O_12 
REMARK       I    between atoms: N_13  and  C_14 
REMARK    7  A    between atoms: C_14  and  C_16 
REMARK    8  A    between atoms: C_19  and  C_22 
ROOT
HETATM    1  N   UNL     1       7.465  30.856  60.252  1.00  0.00    -0.348 N 
HETATM    2  C   UNL     1       7.621  30.936  58.885  1.00  0.00     0.252 C 
HETATM    3  O   UNL     1       7.922  31.971  58.303  1.00  0.00    -0.268 OA
HETATM    4  H   UNL     1       7.275  29.968  60.693  1.00  0.00     0.163 HD
ENDROOT
BRANCH   1   5
HETATM    5  C   UNL     1       7.598  32.018  61.121  1.00  0.00     0.120 C 
BRANCH   5   6
HETATM    6  C   UNL     1       6.267  32.434  61.737  1.00  0.00    -0.033 A 
HETATM    7  C   UNL     1       5.199  32.764  60.884  1.00  0.00     0.009 A 
HETATM    8  C   UNL     1       3.979  33.196  61.403  1.00  0.00     0.003 A 
HETATM    9  C   UNL     1       3.805  33.290  62.782  1.00  0.00     0.037 A 
HETATM   10  C   UNL     1       4.842  32.944  63.649  1.00  0.00     0.068 A 
HETATM   11  C   UNL     1       6.074  32.539  63.126  1.00  0.00     0.046 A 
BRANCH  10  12
HETATM   12  O   UNL     1       4.546  33.068  64.979  1.00  0.00    -0.356 OA
HETATM   13  C   UNL     1       5.423  33.891  65.739  1.00  0.00     0.210 C 
ENDBRANCH  10  12
ENDBRANCH   5   6
BRANCH   5  14
HETATM   14  C   UNL     1       8.628  31.744  62.227  1.00  0.00     0.056 C 
BRANCH  14  15
HETATM   15  C   UNL     1       9.502  30.535  61.910  1.00  0.00     0.166 C 
BRANCH  15  16
HETATM   16  O   UNL     1       8.965  29.378  62.541  1.00  0.00    -0.401 OA
HETATM   17  H   UNL     1       8.246  29.669  63.128  1.00  0.00     0.209 HD
ENDBRANCH  15  16
ENDBRANCH  14  15
ENDBRANCH   5  14
ENDBRANCH   1   5
BRANCH   2  18
HETATM   18  C   UNL     1       7.471  29.664  58.120  1.00  0.00     0.032 A 
HETATM   19  C   UNL     1       6.230  29.160  57.719  1.00  0.00     0.018 A 
HETATM   20  C   UNL     1       6.150  27.933  57.046  1.00  0.00     0.013 A 
HETATM   21  C   UNL     1       7.304  27.187  56.747  1.00  0.00    -0.026 A 
HETATM   22  C   UNL     1       8.545  27.725  57.125  1.00  0.00     0.013 A 
HETATM   23  C   UNL     1       8.630  28.947  57.801  1.00  0.00     0.018 A 
BRANCH  21  24
HETATM   24  C   UNL     1       7.212  25.880  56.072  1.00  0.00    -0.023 A 
HETATM   25  C   UNL     1       6.513  25.727  54.868  1.00  0.00     0.031 A 
HETATM   26  C   UNL     1       6.446  24.473  54.281  1.00  0.00     0.117 A 
HETATM   27  N   UNL     1       7.018  23.369  54.800  1.00  0.00    -0.273 NA
HETATM   28  C   UNL     1       7.690  23.527  55.957  1.00  0.00     0.117 A 
HETATM   29  C   UNL     1       7.813  24.740  56.619  1.00  0.00     0.031 A 
ENDBRANCH  21  24
ENDBRANCH   2  18
TORSDOF 8
ENDMDL
MODEL 6
REMARK VINA RESULT:      -8.4      5.937      9.013
REMARK  8 active torsions:
REMARK  status: ('A' for Active; 'I' for Inactive)
REMARK    1  A    between atoms: O_2  and  C_3 
REMARK    2  A    between atoms: C_7  and  C_9 
REMARK    3  A    between atoms: C_9  and  C_10 
REMARK    4  A    between atoms: C_9  and  N_13 
REMARK    5  A    between atoms: C_10  and  C_11 
REMARK    6  A    between atoms: C_11  and  O_12 
REMARK       I    between atoms: N_13  and  C_14 
REMARK    7  A    between atoms: C_14  and  C_16 
REMARK    8  A    between atoms: C_19  and  C_22 
ROOT
HETATM    1  N   UNL     1       4.614  26.817  50.985  1.00  0.00    -0.348 N 
HETATM    2  C   UNL     1       5.679  27.006  51.840  1.00  0.00     0.252 C 
HETATM    3  O   UNL     1       6.179  28.102  52.057  1.00  0.00    -0.268 OA
HETATM    4  H   UNL     1       4.197  25.904  50.882  1.00  0.00     0.163 HD
ENDROOT
BRANCH   1   5
HETATM    5  C   UNL     1       4.023  27.910  50.225  1.00  0.00     0.120 C 
BRANCH   5   6
HETATM    6  C   UNL     1       3.273  27.418  48.993  1.00  0.00    -0.033 A 
HETATM    7  C   UNL     1       3.580  26.147  48.475  1.00  0.00     0.009 A 
HETATM    8  C   UNL     1       2.953  25.676  47.322  1.00  0.00     0.003 A 
HETATM    9  C   UNL     1       2.001  26.462  46.679  1.00  0.00     0.037 A 
HETATM   10  C   UNL     1       1.661  27.716  47.187  1.00  0.00     0.068 A 
HETATM   11  C   UNL     1       2.311  28.200  48.327  1.00  0.00     0.046 A 
BRANCH  10  12
HETATM   12  O   UNL     1       0.706  28.388  46.474  1.00  0.00    -0.356 OA
HETATM   13  C   UNL     1      -0.182  27.582  45.708  1.00  0.00     0.210 C 
ENDBRANCH  10  12
ENDBRANCH   5   6
BRANCH   5  14
HETATM   14  C   UNL     1       3.084  28.735  51.118  1.00  0.00     0.056 C 
BRANCH  14  15
HETATM   15  C   UNL     1       3.516  30.195  51.212  1.00  0.00     0.166 C 
BRANCH  15  16
HETATM   16  O   UNL     1       2.575  30.922  51.994  1.00  0.00    -0.401 OA
HETATM   17  H   UNL     1       2.296  31.697  51.476  1.00  0.00     0.209 HD
ENDBRANCH  15  16
ENDBRANCH  14  15
ENDBRANCH   5  14
ENDBRANCH   1   5
BRANCH   2  18
HETATM   18  C   UNL     1       6.175  25.800  52.565  1.00  0.00     0.032 A 
HETATM   19  C   UNL     1       5.703  25.425  53.827  1.00  0.00     0.018 A 
HETATM   20  C   UNL     1       6.244  24.310  54.480  1.00  0.00     0.013 A 
HETATM   21  C   UNL     1       7.258  23.537  53.887  1.00  0.00    -0.026 A 
HETATM   22  C   UNL     1       7.695  23.905  52.604  1.00  0.00     0.013 A 
HETATM   23  C   UNL     1       7.160  25.020  51.950  1.00  0.00     0.018 A 
BRANCH  21  24
HETATM   24  C   UNL     1       7.850  22.386  54.594  1.00  0.00    -0.023 A 
HETATM   25  C   UNL     1       8.276  21.245  53.904  1.00  0.00     0.031 A 
HETATM   26  C   UNL     1       8.814  20.185  54.617  1.00  0.00     0.117 A 
HETATM   27  N   UNL     1       8.958  20.178  55.957  1.00  0.00    -0.273 NA
HETATM   28  C   UNL     1       8.547  21.282  56.613  1.00  0.00     0.117 A 
HETATM   29  C   UNL     1       7.998  22.391  55.987  1.00  0.00     0.031 A 
ENDBRANCH  21  24
ENDBRANCH   2  18
TORSDOF 8
ENDMDL
MODEL 7
REMARK VINA RESULT:      -8.1      2.591      8.637
REMARK  8 active torsions:
REMARK  status: ('A' for Active; 'I' for Inactive)
REMARK    1  A    between atoms: O_2  and  C_3 
REMARK    2  A    between atoms: C_7  and  C_9 
REMARK    3  A    between atoms: C_9  and  C_10 
REMARK    4  A    between atoms: C_9  and  N_13 
REMARK    5  A    between atoms: C_10  and  C_11 
REMARK    6  A    between atoms: C_11  and  O_12 
REMARK       I    between atoms: N_13  and  C_14 
REMARK    7  A    between atoms: C_14  and  C_16 
REMARK    8  A    between atoms: C_19  and  C_22 
ROOT
HETATM    1  N   UNL     1       5.862  28.417  56.363  1.00  0.00    -0.348 N 
HETATM    2  C   UNL     1       5.225  27.580  55.473  1.00  0.00     0.252 C 
HETATM    3  O   UNL     1       4.259  27.923  54.802  1.00  0.00    -0.268 OA
HETATM    4  H   UNL     1       6.690  28.110  56.850  1.00  0.00     0.163 HD
ENDROOT
BRANCH   1   5
HETATM    5  C   UNL     1       5.403  29.777  56.618  1.00  0.00     0.120 C 
BRANCH   5   6
HETATM    6  C   UNL     1       6.122  30.417  57.800  1.00  0.00    -0.033 A 
HETATM    7  C   UNL     1       5.605  31.605  58.346  1.00  0.00     0.009 A 
HETATM    8  C   UNL     1       6.255  32.250  59.397  1.00  0.00     0.003 A 
HETATM    9  C   UNL     1       7.425  31.709  59.925  1.00  0.00     0.037 A 
HETATM   10  C   UNL     1       7.945  30.519  59.416  1.00  0.00     0.068 A 
HETATM   11  C   UNL     1       7.307  29.888  58.344  1.00  0.00     0.046 A 
BRANCH  10  12
HETATM   12  O   UNL     1       9.090  30.084  60.025  1.00  0.00    -0.356 OA
HETATM   13  C   UNL     1       9.304  30.544  61.354  1.00  0.00     0.210 C 
ENDBRANCH  10  12
ENDBRANCH   5   6
BRANCH   5  14
HETATM   14  C   UNL     1       5.580  30.644  55.362  1.00  0.00     0.056 C 
BRANCH  14  15
HETATM   15  C   UNL     1       4.324  31.444  55.035  1.00  0.00     0.166 C 
BRANCH  15  16
HETATM   16  O   UNL     1       3.172  30.642  55.275  1.00  0.00    -0.401 OA
HETATM   17  H   UNL     1       2.850  30.321  54.415  1.00  0.00     0.209 HD
ENDBRANCH  15  16
ENDBRANCH  14  15
ENDBRANCH   5  14
ENDBRANCH   1   5
BRANCH   2  18
HETATM   18  C   UNL     1       5.811  26.219  55.300  1.00  0.00     0.032 A 
HETATM   19  C   UNL     1       6.518  25.562  56.312  1.00  0.00     0.018 A 
HETATM   20  C   UNL     1       7.088  24.305  56.072  1.00  0.00     0.013 A 
HETATM   21  C   UNL     1       6.957  23.668  54.825  1.00  0.00    -0.026 A 
HETATM   22  C   UNL     1       6.213  24.325  53.831  1.00  0.00     0.013 A 
HETATM   23  C   UNL     1       5.645  25.583  54.065  1.00  0.00     0.018 A 
BRANCH  21  24
HETATM   24  C   UNL     1       7.590  22.362  54.566  1.00  0.00    -0.023 A 
HETATM   25  C   UNL     1       7.890  21.941  53.265  1.00  0.00     0.031 A 
HETATM   26  C   UNL     1       8.474  20.698  53.075  1.00  0.00     0.117 A 
HETATM   27  N   UNL     1       8.777  19.849  54.077  1.00  0.00    -0.273 NA
HETATM   28  C   UNL     1       8.487  20.265  55.326  1.00  0.00     0.117 A 
HETATM   29  C   UNL     1       7.904  21.490  55.616  1.00  0.00     0.031 A 
ENDBRANCH  21  24
ENDBRANCH   2  18
TORSDOF 8
ENDMDL
MODEL 8
REMARK VINA RESULT:      -8.0      3.631      8.776
REMARK  8 active torsions:
REMARK  status: ('A' for Active; 'I' for Inactive)
REMARK    1  A    between atoms: O_2  and  C_3 
REMARK    2  A    between atoms: C_7  and  C_9 
REMARK    3  A    between atoms: C_9  and  C_10 
REMARK    4  A    between atoms: C_9  and  N_13 
REMARK    5  A    between atoms: C_10  and  C_11 
REMARK    6  A    between atoms: C_11  and  O_12 
REMARK       I    between atoms: N_13  and  C_14 
REMARK    7  A    between atoms: C_14  and  C_16 
REMARK    8  A    between atoms: C_19  and  C_22 
ROOT
HETATM    1  N   UNL     1       5.153  28.173  55.031  1.00  0.00    -0.348 N 
HETATM    2  C   UNL     1       6.489  27.851  54.926  1.00  0.00     0.252 C 
HETATM    3  O   UNL     1       7.387  28.683  54.977  1.00  0.00    -0.268 OA
HETATM    4  H   UNL     1       4.452  27.447  55.043  1.00  0.00     0.163 HD
ENDROOT
BRANCH   1   5
HETATM    5  C   UNL     1       4.692  29.549  55.163  1.00  0.00     0.120 C 
BRANCH   5   6
HETATM    6  C   UNL     1       4.041  30.065  53.885  1.00  0.00    -0.033 A 
HETATM    7  C   UNL     1       3.766  31.439  53.771  1.00  0.00     0.009 A 
HETATM    8  C   UNL     1       3.128  31.948  52.640  1.00  0.00     0.003 A 
HETATM    9  C   UNL     1       2.770  31.092  51.601  1.00  0.00     0.037 A 
HETATM   10  C   UNL     1       3.054  29.729  51.680  1.00  0.00     0.068 A 
HETATM   11  C   UNL     1       3.668  29.216  52.827  1.00  0.00     0.046 A 
BRANCH  10  12
HETATM   12  O   UNL     1       2.664  28.995  50.594  1.00  0.00    -0.356 OA
HETATM   13  C   UNL     1       1.446  29.394  49.977  1.00  0.00     0.210 C 
ENDBRANCH  10  12
ENDBRANCH   5   6
BRANCH   5  14
HETATM   14  C   UNL     1       3.712  29.673  56.340  1.00  0.00     0.056 C 
BRANCH  14  15
HETATM   15  C   UNL     1       4.391  30.203  57.598  1.00  0.00     0.166 C 
BRANCH  15  16
HETATM   16  O   UNL     1       5.554  29.430  57.876  1.00  0.00    -0.401 OA
HETATM   17  H   UNL     1       5.954  29.780  58.690  1.00  0.00     0.209 HD
ENDBRANCH  15  16
ENDBRANCH  14  15
ENDBRANCH   5  14
ENDBRANCH   1   5
BRANCH   2  18
HETATM   18  C   UNL     1       6.820  26.401  54.811  1.00  0.00     0.032 A 
HETATM   19  C   UNL     1       6.717  25.511  55.885  1.00  0.00     0.018 A 
HETATM   20  C   UNL     1       7.091  24.169  55.727  1.00  0.00     0.013 A 
HETATM   21  C   UNL     1       7.562  23.681  54.496  1.00  0.00    -0.026 A 
HETATM   22  C   UNL     1       7.624  24.580  53.418  1.00  0.00     0.013 A 
HETATM   23  C   UNL     1       7.256  25.921  53.571  1.00  0.00     0.018 A 
BRANCH  21  24
HETATM   24  C   UNL     1       7.988  22.278  54.345  1.00  0.00    -0.023 A 
HETATM   25  C   UNL     1       8.310  21.489  55.456  1.00  0.00     0.031 A 
HETATM   26  C   UNL     1       8.718  20.179  55.258  1.00  0.00     0.117 A 
HETATM   27  N   UNL     1       8.828  19.601  54.046  1.00  0.00    -0.273 NA
HETATM   28  C   UNL     1       8.513  20.368  52.983  1.00  0.00     0.117 A 
HETATM   29  C   UNL     1       8.096  21.687  53.080  1.00  0.00     0.031 A 
ENDBRANCH  21  24
ENDBRANCH   2  18
TORSDOF 8
ENDMDL
MODEL 9
REMARK VINA RESULT:      -7.8      5.278      9.164
REMARK  8 active torsions:
REMARK  status: ('A' for Active; 'I' for Inactive)
REMARK    1  A    between atoms: O_2  and  C_3 
REMARK    2  A    between atoms: C_7  and  C_9 
REMARK    3  A    between atoms: C_9  and  C_10 
REMARK    4  A    between atoms: C_9  and  N_13 
REMARK    5  A    between atoms: C_10  and  C_11 
REMARK    6  A    between atoms: C_11  and  O_12 
REMARK       I    between atoms: N_13  and  C_14 
REMARK    7  A    between atoms: C_14  and  C_16 
REMARK    8  A    between atoms: C_19  and  C_22 
ROOT
HETATM    1  N   UNL     1       5.504  27.858  51.863  1.00  0.00    -0.348 N 
HETATM    2  C   UNL     1       6.346  27.646  52.933  1.00  0.00     0.252 C 
HETATM    3  O   UNL     1       6.765  28.548  53.648  1.00  0.00    -0.268 OA
HETATM    4  H   UNL     1       5.137  27.078  51.339  1.00  0.00     0.163 HD
ENDROOT
BRANCH   1   5
HETATM    5  C   UNL     1       5.077  29.192  51.460  1.00  0.00     0.120 C 
BRANCH   5   6
HETATM    6  C   UNL     1       4.935  29.321  49.949  1.00  0.00    -0.033 A 
HETATM    7  C   UNL     1       5.163  28.189  49.147  1.00  0.00     0.009 A 
HETATM    8  C   UNL     1       5.091  28.272  47.757  1.00  0.00     0.003 A 
HETATM    9  C   UNL     1       4.776  29.486  47.150  1.00  0.00     0.037 A 
HETATM   10  C   UNL     1       4.521  30.617  47.924  1.00  0.00     0.068 A 
HETATM   11  C   UNL     1       4.622  30.539  49.317  1.00  0.00     0.046 A 
BRANCH  10  12
HETATM   12  O   UNL     1       4.211  31.745  47.214  1.00  0.00    -0.356 OA
HETATM   13  C   UNL     1       4.919  31.926  45.993  1.00  0.00     0.210 C 
ENDBRANCH  10  12
ENDBRANCH   5   6
BRANCH   5  14
HETATM   14  C   UNL     1       3.753  29.559  52.148  1.00  0.00     0.056 C 
BRANCH  14  15
HETATM   15  C   UNL     1       3.927  30.680  53.167  1.00  0.00     0.166 C 
BRANCH  15  16
HETATM   16  O   UNL     1       2.665  31.004  53.740  1.00  0.00    -0.401 OA
HETATM   17  H   UNL     1       2.826  31.337  54.640  1.00  0.00     0.209 HD
ENDBRANCH  15  16
ENDBRANCH  14  15
ENDBRANCH   5  14
ENDBRANCH   1   5
BRANCH   2  18
HETATM   18  C   UNL     1       6.690  26.227  53.241  1.00  0.00     0.032 A 
HETATM   19  C   UNL     1       6.359  25.612  54.453  1.00  0.00     0.018 A 
HETATM   20  C   UNL     1       6.754  24.291  54.704  1.00  0.00     0.013 A 
HETATM   21  C   UNL     1       7.474  23.550  53.751  1.00  0.00    -0.026 A 
HETATM   22  C   UNL     1       7.766  24.170  52.526  1.00  0.00     0.013 A 
HETATM   23  C   UNL     1       7.378  25.490  52.272  1.00  0.00     0.018 A 
BRANCH  21  24
HETATM   24  C   UNL     1       7.919  22.173  54.035  1.00  0.00    -0.023 A 
HETATM   25  C   UNL     1       7.967  21.675  55.343  1.00  0.00     0.031 A 
HETATM   26  C   UNL     1       8.405  20.377  55.556  1.00  0.00     0.117 A 
HETATM   27  N   UNL     1       8.796  19.545  54.571  1.00  0.00    -0.273 NA
HETATM   28  C   UNL     1       8.743  20.032  53.315  1.00  0.00     0.117 A 
HETATM   29  C   UNL     1       8.320  21.315  53.003  1.00  0.00     0.031 A 
ENDBRANCH  21  24
ENDBRANCH   2  18
TORSDOF 8
ENDMDL
MODEL 10
REMARK VINA RESULT:      -7.7      3.893      8.276
REMARK  8 active torsions:
REMARK  status: ('A' for Active; 'I' for Inactive)
REMARK    1  A    between atoms: O_2  and  C_3 
REMARK    2  A    between atoms: C_7  and  C_9 
REMARK    3  A    between atoms: C_9  and  C_10 
REMARK    4  A    between atoms: C_9  and  N_13 
REMARK    5  A    between atoms: C_10  and  C_11 
REMARK    6  A    between atoms: C_11  and  O_12 
REMARK       I    between atoms: N_13  and  C_14 
REMARK    7  A    between atoms: C_14  and  C_16 
REMARK    8  A    between atoms: C_19  and  C_22 
ROOT
HETATM    1  N   UNL     1       5.292  26.056  54.339  1.00  0.00    -0.348 N 
HETATM    2  C   UNL     1       5.972  26.791  53.392  1.00  0.00     0.252 C 
HETATM    3  O   UNL     1       7.171  27.034  53.463  1.00  0.00    -0.268 OA
HETATM    4  H   UNL     1       4.317  25.831  54.208  1.00  0.00     0.163 HD
ENDROOT
BRANCH   1   5
HETATM    5  C   UNL     1       5.941  25.542  55.539  1.00  0.00     0.120 C 
BRANCH   5   6
HETATM    6  C   UNL     1       6.956  24.450  55.224  1.00  0.00    -0.033 A 
HETATM    7  C   UNL     1       8.108  24.344  56.024  1.00  0.00     0.009 A 
HETATM    8  C   UNL     1       9.086  23.391  55.743  1.00  0.00     0.003 A 
HETATM    9  C   UNL     1       8.920  22.522  54.668  1.00  0.00     0.037 A 
HETATM   10  C   UNL     1       7.775  22.591  53.875  1.00  0.00     0.068 A 
HETATM   11  C   UNL     1       6.808  23.566  54.140  1.00  0.00     0.046 A 
BRANCH  10  12
HETATM   12  O   UNL     1       7.722  21.678  52.857  1.00  0.00    -0.356 OA
HETATM   13  C   UNL     1       8.483  20.490  53.045  1.00  0.00     0.210 C 
ENDBRANCH  10  12
ENDBRANCH   5   6
BRANCH   5  14
HETATM   14  C   UNL     1       6.618  26.685  56.310  1.00  0.00     0.056 C 
BRANCH  14  15
HETATM   15  C   UNL     1       5.604  27.597  56.993  1.00  0.00     0.166 C 
BRANCH  15  16
HETATM   16  O   UNL     1       4.302  27.035  56.876  1.00  0.00    -0.401 OA
HETATM   17  H   UNL     1       3.701  27.740  56.578  1.00  0.00     0.209 HD
ENDBRANCH  15  16
ENDBRANCH  14  15
ENDBRANCH   5  14
ENDBRANCH   1   5
BRANCH   2  18
HETATM   18  C   UNL     1       5.187  27.241  52.206  1.00  0.00     0.032 A 
HETATM   19  C   UNL     1       4.328  28.345  52.238  1.00  0.00     0.018 A 
HETATM   20  C   UNL     1       3.578  28.688  51.105  1.00  0.00     0.013 A 
HETATM   21  C   UNL     1       3.676  27.949  49.912  1.00  0.00    -0.026 A 
HETATM   22  C   UNL     1       4.570  26.867  49.886  1.00  0.00     0.013 A 
HETATM   23  C   UNL     1       5.318  26.517  51.016  1.00  0.00     0.018 A 
BRANCH  21  24
HETATM   24  C   UNL     1       2.859  28.292  48.735  1.00  0.00    -0.023 A 
HETATM   25  C   UNL     1       1.685  27.591  48.430  1.00  0.00     0.031 A 
HETATM   26  C   UNL     1       0.960  27.946  47.303  1.00  0.00     0.117 A 
HETATM   27  N   UNL     1       1.313  28.939  46.463  1.00  0.00    -0.273 NA
HETATM   28  C   UNL     1       2.442  29.610  46.767  1.00  0.00     0.117 A 
HETATM   29  C   UNL     1       3.233  29.329  47.871  1.00  0.00     0.031 A 
ENDBRANCH  21  24
ENDBRANCH   2  18
TORSDOF 8
ENDMDL
