MODEL 1
REMARK VINA RESULT:      -9.5      0.000      0.000
REMARK  8 active torsions:
REMARK  status: ('A' for Active; 'I' for Inactive)
REMARK    1  A    between atoms: C_7  and  C_8 
REMARK    2  A    between atoms: C_8  and  O_9 
REMARK    3  A    between atoms: O_9  and  C_10 
REMARK    4  A    between atoms: C_13  and  C_14 
REMARK       I    between atoms: C_14  and  N_15 
REMARK    5  A    between atoms: N_15  and  C_16 
REMARK    6  A    between atoms: C_16  and  C_17 
REMARK    7  A    between atoms: C_18  and  C_19 
REMARK    8  A    between atoms: C_19  and  N_20 
ROOT
HETATM    1  C   UNL     1       6.886  26.151  53.056  1.00  0.00     0.251 C 
HETATM    2  N   UNL     1       7.403  24.955  53.511  1.00  0.00    -0.353 N 
HETATM    3  O   UNL     1       6.442  26.301  51.923  1.00  0.00    -0.268 OA
HETATM    4  H   UNL     1       7.586  24.842  54.498  1.00  0.00     0.163 HD
ENDROOT
BRANCH   1   5
HETATM    5  C   UNL     1       6.890  27.289  54.011  1.00  0.00     0.032 A 
HETATM    6  C   UNL     1       5.707  27.789  54.565  1.00  0.00     0.020 A 
HETATM    7  C   UNL     1       5.764  28.801  55.526  1.00  0.00     0.038 A 
HETATM    8  C   UNL     1       6.994  29.305  55.956  1.00  0.00     0.069 A 
HETATM    9  C   UNL     1       8.173  28.828  55.384  1.00  0.00     0.038 A 
HETATM   10  C   UNL     1       8.121  27.813  54.423  1.00  0.00     0.020 A 
BRANCH   8  11
HETATM   11  O   UNL     1       6.913  30.258  56.930  1.00  0.00    -0.347 OA
BRANCH  11  12
HETATM   12  C   UNL     1       7.418  29.902  58.219  1.00  0.00     0.219 C 
BRANCH  12  13
HETATM   13  C   UNL     1       8.378  30.932  58.690  1.00  0.00     0.024 A 
HETATM   14  C   UNL     1       8.136  31.982  59.620  1.00  0.00     0.069 A 
HETATM   15  C   UNL     1       6.877  32.301  60.334  1.00  0.00     0.073 C 
HETATM   16  N   UNL     1       9.229  32.726  59.815  1.00  0.00    -0.133 NA
HETATM   17  O   UNL     1      10.205  32.181  59.004  1.00  0.00    -0.217 OA
HETATM   18  C   UNL     1       9.696  31.115  58.332  1.00  0.00     0.085 A 
HETATM   19  C   UNL     1      10.615  30.425  57.409  1.00  0.00     0.079 C 
ENDBRANCH  12  13
ENDBRANCH  11  12
ENDBRANCH   8  11
ENDBRANCH   1   5
BRANCH   2  20
HETATM   20  C   UNL     1       7.551  23.832  52.621  1.00  0.00     0.162 C 
BRANCH  20  21
HETATM   21  C   UNL     1       8.041  22.597  53.343  1.00  0.00    -0.033 A 
HETATM   22  C   UNL     1       8.720  22.606  54.583  1.00  0.00    -0.025 A 
HETATM   23  C   UNL     1       9.121  21.376  55.148  1.00  0.00     0.009 A 
HETATM   24  C   UNL     1       8.858  20.166  54.507  1.00  0.00     0.001 A 
HETATM   25  C   UNL     1       8.188  20.159  53.291  1.00  0.00     0.001 A 
HETATM   26  C   UNL     1       7.781  21.361  52.719  1.00  0.00     0.009 A 
BRANCH  22  27
HETATM   27  C   UNL     1       9.051  23.865  55.345  1.00  0.00     0.274 C 
BRANCH  27  28
HETATM   28  N   UNL     1       8.400  23.941  56.706  1.00  0.00    -0.067 N 
HETATM   29  H   UNL     1       8.764  23.146  57.248  1.00  0.00     0.280 HD
HETATM   30  C   UNL     1       6.892  23.817  56.646  1.00  0.00     0.235 C 
HETATM   31  C   UNL     1       6.403  25.229  56.876  1.00  0.00     0.029 C 
HETATM   32  C   UNL     1       7.357  25.736  57.937  1.00  0.00     0.029 C 
HETATM   33  C   UNL     1       8.709  25.205  57.493  1.00  0.00     0.235 C 
ENDBRANCH  27  28
ENDBRANCH  22  27
ENDBRANCH  20  21
ENDBRANCH   2  20
TORSDOF 8
ENDMDL
MODEL 2
REMARK VINA RESULT:      -9.5      2.868     10.063
REMARK  8 active torsions:
REMARK  status: ('A' for Active; 'I' for Inactive)
REMARK    1  A    between atoms: C_7  and  C_8 
REMARK    2  A    between atoms: C_8  and  O_9 
REMARK    3  A    between atoms: O_9  and  C_10 
REMARK    4  A    between atoms: C_13  and  C_14 
REMARK       I    between atoms: C_14  and  N_15 
REMARK    5  A    between atoms: N_15  and  C_16 
REMARK    6  A    between atoms: C_16  and  C_17 
REMARK    7  A    between atoms: C_18  and  C_19 
REMARK    8  A    between atoms: C_19  and  N_20 
ROOT
HETATM    1  C   UNL     1       6.496  29.694  57.356  1.00  0.00     0.251 C 
HETATM    2  N   UNL     1       7.005  30.186  58.541  1.00  0.00    -0.353 N 
HETATM    3  O   UNL     1       6.010  30.409  56.488  1.00  0.00    -0.268 OA
HETATM    4  H   UNL     1       7.550  29.577  59.133  1.00  0.00     0.163 HD
ENDROOT
BRANCH   1   5
HETATM    5  C   UNL     1       6.556  28.222  57.163  1.00  0.00     0.032 A 
HETATM    6  C   UNL     1       5.465  27.501  56.663  1.00  0.00     0.020 A 
HETATM    7  C   UNL     1       5.594  26.133  56.415  1.00  0.00     0.038 A 
HETATM    8  C   UNL     1       6.808  25.479  56.642  1.00  0.00     0.069 A 
HETATM    9  C   UNL     1       7.886  26.190  57.168  1.00  0.00     0.038 A 
HETATM   10  C   UNL     1       7.764  27.562  57.415  1.00  0.00     0.020 A 
BRANCH   8  11
HETATM   11  O   UNL     1       6.813  24.154  56.317  1.00  0.00    -0.347 OA
BRANCH  11  12
HETATM   12  C   UNL     1       8.085  23.571  56.021  1.00  0.00     0.219 C 
BRANCH  12  13
HETATM   13  C   UNL     1       7.952  22.607  54.900  1.00  0.00     0.024 A 
HETATM   14  C   UNL     1       7.919  21.186  54.978  1.00  0.00     0.069 A 
HETATM   15  C   UNL     1       8.012  20.332  56.186  1.00  0.00     0.073 C 
HETATM   16  N   UNL     1       7.788  20.631  53.768  1.00  0.00    -0.133 NA
HETATM   17  O   UNL     1       7.745  21.683  52.875  1.00  0.00    -0.217 OA
HETATM   18  C   UNL     1       7.846  22.858  53.549  1.00  0.00     0.085 A 
HETATM   19  C   UNL     1       7.829  24.085  52.731  1.00  0.00     0.079 C 
ENDBRANCH  12  13
ENDBRANCH  11  12
ENDBRANCH   8  11
ENDBRANCH   1   5
BRANCH   2  20
HETATM   20  C   UNL     1       6.883  31.584  58.869  1.00  0.00     0.162 C 
BRANCH  20  21
HETATM   21  C   UNL     1       7.327  31.875  60.284  1.00  0.00    -0.033 A 
HETATM   22  C   UNL     1       6.561  32.582  61.239  1.00  0.00    -0.025 A 
HETATM   23  C   UNL     1       7.098  32.781  62.530  1.00  0.00     0.009 A 
HETATM   24  C   UNL     1       8.360  32.294  62.871  1.00  0.00     0.001 A 
HETATM   25  C   UNL     1       9.109  31.598  61.933  1.00  0.00     0.001 A 
HETATM   26  C   UNL     1       8.597  31.387  60.656  1.00  0.00     0.009 A 
BRANCH  22  27
HETATM   27  C   UNL     1       5.191  33.147  60.958  1.00  0.00     0.274 C 
BRANCH  27  28
HETATM   28  N   UNL     1       4.710  34.125  62.004  1.00  0.00    -0.067 N 
HETATM   29  H   UNL     1       5.484  34.242  62.671  1.00  0.00     0.280 HD
HETATM   30  C   UNL     1       3.503  33.622  62.769  1.00  0.00     0.235 C 
HETATM   31  C   UNL     1       2.354  34.422  62.197  1.00  0.00     0.029 C 
HETATM   32  C   UNL     1       2.968  35.795  62.021  1.00  0.00     0.029 C 
HETATM   33  C   UNL     1       4.355  35.505  61.474  1.00  0.00     0.235 C 
ENDBRANCH  27  28
ENDBRANCH  22  27
ENDBRANCH  20  21
ENDBRANCH   2  20
TORSDOF 8
ENDMDL
MODEL 3
REMARK VINA RESULT:      -9.3      2.268      4.430
REMARK  8 active torsions:
REMARK  status: ('A' for Active; 'I' for Inactive)
REMARK    1  A    between atoms: C_7  and  C_8 
REMARK    2  A    between atoms: C_8  and  O_9 
REMARK    3  A    between atoms: O_9  and  C_10 
REMARK    4  A    between atoms: C_13  and  C_14 
REMARK       I    between atoms: C_14  and  N_15 
REMARK    5  A    between atoms: N_15  and  C_16 
REMARK    6  A    between atoms: C_16  and  C_17 
REMARK    7  A    between atoms: C_18  and  C_19 
REMARK    8  A    between atoms: C_19  and  N_20 
ROOT
HETATM    1  C   UNL     1       7.412  27.215  57.017  1.00  0.00     0.251 C 
HETATM    2  N   UNL     1       6.273  26.808  56.353  1.00  0.00    -0.353 N 
HETATM    3  O   UNL     1       8.390  26.494  57.174  1.00  0.00    -0.268 OA
HETATM    4  H   UNL     1       5.578  27.496  56.099  1.00  0.00     0.163 HD
ENDROOT
BRANCH   1   5
HETATM    5  C   UNL     1       7.412  28.599  57.559  1.00  0.00     0.032 A 
HETATM    6  C   UNL     1       6.241  29.363  57.624  1.00  0.00     0.020 A 
HETATM    7  C   UNL     1       6.270  30.626  58.220  1.00  0.00     0.038 A 
HETATM    8  C   UNL     1       7.452  31.126  58.772  1.00  0.00     0.069 A 
HETATM    9  C   UNL     1       8.626  30.378  58.681  1.00  0.00     0.038 A 
HETATM   10  C   UNL     1       8.602  29.112  58.088  1.00  0.00     0.020 A 
BRANCH   8  11
HETATM   11  O   UNL     1       7.334  32.350  59.363  1.00  0.00    -0.347 OA
BRANCH  11  12
HETATM   12  C   UNL     1       6.229  32.529  60.252  1.00  0.00     0.219 C 
BRANCH  12  13
HETATM   13  C   UNL     1       6.719  32.919  61.599  1.00  0.00     0.024 A 
HETATM   14  C   UNL     1       7.633  32.211  62.427  1.00  0.00     0.069 A 
HETATM   15  C   UNL     1       8.310  30.921  62.152  1.00  0.00     0.073 C 
HETATM   16  N   UNL     1       7.853  32.855  63.578  1.00  0.00    -0.133 NA
HETATM   17  O   UNL     1       7.074  33.994  63.526  1.00  0.00    -0.217 OA
HETATM   18  C   UNL     1       6.397  34.030  62.349  1.00  0.00     0.085 A 
HETATM   19  C   UNL     1       5.504  35.185  62.143  1.00  0.00     0.079 C 
ENDBRANCH  12  13
ENDBRANCH  11  12
ENDBRANCH   8  11
ENDBRANCH   1   5
BRANCH   2  20
HETATM   20  C   UNL     1       6.133  25.448  55.899  1.00  0.00     0.162 C 
BRANCH  20  21
HETATM   21  C   UNL     1       6.595  25.277  54.470  1.00  0.00    -0.033 A 
HETATM   22  C   UNL     1       7.644  24.423  54.060  1.00  0.00    -0.025 A 
HETATM   23  C   UNL     1       7.971  24.357  52.688  1.00  0.00     0.009 A 
HETATM   24  C   UNL     1       7.280  25.115  51.743  1.00  0.00     0.001 A 
HETATM   25  C   UNL     1       6.248  25.951  52.146  1.00  0.00     0.001 A 
HETATM   26  C   UNL     1       5.907  26.027  53.494  1.00  0.00     0.009 A 
BRANCH  22  27
HETATM   27  C   UNL     1       8.447  23.571  55.011  1.00  0.00     0.274 C 
BRANCH  27  28
HETATM   28  N   UNL     1       7.801  22.244  55.333  1.00  0.00    -0.067 N 
HETATM   29  H   UNL     1       6.794  22.427  55.434  1.00  0.00     0.280 HD
HETATM   30  C   UNL     1       8.302  21.645  56.631  1.00  0.00     0.235 C 
HETATM   31  C   UNL     1       9.223  20.532  56.184  1.00  0.00     0.029 C 
HETATM   32  C   UNL     1       8.483  19.954  54.996  1.00  0.00     0.029 C 
HETATM   33  C   UNL     1       7.962  21.177  54.262  1.00  0.00     0.235 C 
ENDBRANCH  27  28
ENDBRANCH  22  27
ENDBRANCH  20  21
ENDBRANCH   2  20
TORSDOF 8
ENDMDL
MODEL 4
REMARK VINA RESULT:      -9.0      2.951     10.048
REMARK  8 active torsions:
REMARK  status: ('A' for Active; 'I' for Inactive)
REMARK    1  A    between atoms: C_7  and  C_8 
REMARK    2  A    between atoms: C_8  and  O_9 
REMARK    3  A    between atoms: O_9  and  C_10 
REMARK    4  A    between atoms: C_13  and  C_14 
REMARK       I    between atoms: C_14  and  N_15 
REMARK    5  A    between atoms: N_15  and  C_16 
REMARK    6  A    between atoms: C_16  and  C_17 
REMARK    7  A    between atoms: C_18  and  C_19 
REMARK    8  A    between atoms: C_19  and  N_20 
ROOT
HETATM    1  C   UNL     1       6.248  30.562  57.865  1.00  0.00     0.251 C 
HETATM    2  N   UNL     1       6.670  30.932  59.126  1.00  0.00    -0.353 N 
HETATM    3  O   UNL     1       5.793  31.357  57.051  1.00  0.00    -0.268 OA
HETATM    4  H   UNL     1       7.197  30.274  59.682  1.00  0.00     0.163 HD
ENDROOT
BRANCH   1   5
HETATM    5  C   UNL     1       6.363  29.122  57.517  1.00  0.00     0.032 A 
HETATM    6  C   UNL     1       7.564  28.421  57.671  1.00  0.00     0.020 A 
HETATM    7  C   UNL     1       7.604  27.049  57.415  1.00  0.00     0.038 A 
HETATM    8  C   UNL     1       6.451  26.363  57.027  1.00  0.00     0.069 A 
HETATM    9  C   UNL     1       5.259  27.065  56.846  1.00  0.00     0.038 A 
HETATM   10  C   UNL     1       5.213  28.439  57.104  1.00  0.00     0.020 A 
BRANCH   8  11
HETATM   11  O   UNL     1       6.615  25.020  56.853  1.00  0.00    -0.347 OA
BRANCH  11  12
HETATM   12  C   UNL     1       7.901  24.583  56.408  1.00  0.00     0.219 C 
BRANCH  12  13
HETATM   13  C   UNL     1       7.784  23.935  55.076  1.00  0.00     0.024 A 
HETATM   14  C   UNL     1       7.669  24.574  53.810  1.00  0.00     0.069 A 
HETATM   15  C   UNL     1       7.632  26.025  53.514  1.00  0.00     0.073 C 
HETATM   16  N   UNL     1       7.584  23.681  52.817  1.00  0.00    -0.133 NA
HETATM   17  O   UNL     1       7.632  22.441  53.422  1.00  0.00    -0.217 OA
HETATM   18  C   UNL     1       7.747  22.593  54.767  1.00  0.00     0.085 A 
HETATM   19  C   UNL     1       7.799  21.353  55.563  1.00  0.00     0.079 C 
ENDBRANCH  12  13
ENDBRANCH  11  12
ENDBRANCH   8  11
ENDBRANCH   1   5
BRANCH   2  20
HETATM   20  C   UNL     1       6.487  32.281  59.596  1.00  0.00     0.162 C 
BRANCH  20  21
HETATM   21  C   UNL     1       6.932  32.447  61.031  1.00  0.00    -0.033 A 
HETATM   22  C   UNL     1       6.414  33.409  61.928  1.00  0.00    -0.025 A 
HETATM   23  C   UNL     1       6.919  33.452  63.246  1.00  0.00     0.009 A 
HETATM   24  C   UNL     1       7.911  32.568  63.669  1.00  0.00     0.001 A 
HETATM   25  C   UNL     1       8.416  31.622  62.788  1.00  0.00     0.001 A 
HETATM   26  C   UNL     1       7.929  31.560  61.485  1.00  0.00     0.009 A 
BRANCH  22  27
HETATM   27  C   UNL     1       5.345  34.407  61.557  1.00  0.00     0.274 C 
BRANCH  27  28
HETATM   28  N   UNL     1       3.974  34.055  62.086  1.00  0.00    -0.067 N 
HETATM   29  H   UNL     1       4.123  33.564  62.977  1.00  0.00     0.280 HD
HETATM   30  C   UNL     1       3.207  33.131  61.163  1.00  0.00     0.235 C 
HETATM   31  C   UNL     1       2.185  34.038  60.513  1.00  0.00     0.029 C 
HETATM   32  C   UNL     1       1.768  34.934  61.659  1.00  0.00     0.029 C 
HETATM   33  C   UNL     1       3.073  35.246  62.371  1.00  0.00     0.235 C 
ENDBRANCH  27  28
ENDBRANCH  22  27
ENDBRANCH  20  21
ENDBRANCH   2  20
TORSDOF 8
ENDMDL
MODEL 5
REMARK VINA RESULT:      -9.0      3.375      6.339
REMARK  8 active torsions:
REMARK  status: ('A' for Active; 'I' for Inactive)
REMARK    1  A    between atoms: C_7  and  C_8 
REMARK    2  A    between atoms: C_8  and  O_9 
REMARK    3  A    between atoms: O_9  and  C_10 
REMARK    4  A    between atoms: C_13  and  C_14 
REMARK       I    between atoms: C_14  and  N_15 
REMARK    5  A    between atoms: N_15  and  C_16 
REMARK    6  A    between atoms: C_16  and  C_17 
REMARK    7  A    between atoms: C_18  and  C_19 
REMARK    8  A    between atoms: C_19  and  N_20 
ROOT
HETATM    1  C   UNL     1       8.666  30.097  57.971  1.00  0.00     0.251 C 
HETATM    2  N   UNL     1       7.606  29.489  57.329  1.00  0.00    -0.353 N 
HETATM    3  O   UNL     1       9.807  30.096  57.526  1.00  0.00    -0.268 OA
HETATM    4  H   UNL     1       6.665  29.674  57.648  1.00  0.00     0.163 HD
ENDROOT
BRANCH   1   5
HETATM    5  C   UNL     1       8.369  30.768  59.263  1.00  0.00     0.032 A 
HETATM    6  C   UNL     1       7.228  31.559  59.436  1.00  0.00     0.020 A 
HETATM    7  C   UNL     1       6.943  32.100  60.692  1.00  0.00     0.038 A 
HETATM    8  C   UNL     1       7.775  31.841  61.784  1.00  0.00     0.069 A 
HETATM    9  C   UNL     1       8.928  31.077  61.607  1.00  0.00     0.038 A 
HETATM   10  C   UNL     1       9.217  30.531  60.352  1.00  0.00     0.020 A 
BRANCH   8  11
HETATM   11  O   UNL     1       7.359  32.390  62.962  1.00  0.00    -0.347 OA
BRANCH  11  12
HETATM   12  C   UNL     1       6.725  33.668  62.886  1.00  0.00     0.219 C 
BRANCH  12  13
HETATM   13  C   UNL     1       5.531  33.696  63.769  1.00  0.00     0.024 A 
HETATM   14  C   UNL     1       5.504  33.796  65.188  1.00  0.00     0.069 A 
HETATM   15  C   UNL     1       6.651  33.892  66.122  1.00  0.00     0.073 C 
HETATM   16  N   UNL     1       4.252  33.793  65.657  1.00  0.00    -0.133 NA
HETATM   17  O   UNL     1       3.436  33.679  64.549  1.00  0.00    -0.217 OA
HETATM   18  C   UNL     1       4.198  33.618  63.425  1.00  0.00     0.085 A 
HETATM   19  C   UNL     1       3.473  33.481  62.149  1.00  0.00     0.079 C 
ENDBRANCH  12  13
ENDBRANCH  11  12
ENDBRANCH   8  11
ENDBRANCH   1   5
BRANCH   2  20
HETATM   20  C   UNL     1       7.817  28.712  56.135  1.00  0.00     0.162 C 
BRANCH  20  21
HETATM   21  C   UNL     1       7.556  27.240  56.362  1.00  0.00    -0.033 A 
HETATM   22  C   UNL     1       6.513  26.505  55.753  1.00  0.00    -0.025 A 
HETATM   23  C   UNL     1       6.385  25.131  56.053  1.00  0.00     0.009 A 
HETATM   24  C   UNL     1       7.263  24.498  56.932  1.00  0.00     0.001 A 
HETATM   25  C   UNL     1       8.288  25.221  57.526  1.00  0.00     0.001 A 
HETATM   26  C   UNL     1       8.434  26.576  57.241  1.00  0.00     0.009 A 
BRANCH  22  27
HETATM   27  C   UNL     1       5.516  27.107  54.794  1.00  0.00     0.274 C 
BRANCH  27  28
HETATM   28  N   UNL     1       5.877  26.914  53.340  1.00  0.00    -0.067 N 
HETATM   29  H   UNL     1       5.741  27.825  52.883  1.00  0.00     0.280 HD
HETATM   30  C   UNL     1       4.991  25.902  52.643  1.00  0.00     0.235 C 
HETATM   31  C   UNL     1       5.871  24.678  52.517  1.00  0.00     0.029 C 
HETATM   32  C   UNL     1       7.219  25.279  52.178  1.00  0.00     0.029 C 
HETATM   33  C   UNL     1       7.316  26.491  53.088  1.00  0.00     0.235 C 
ENDBRANCH  27  28
ENDBRANCH  22  27
ENDBRANCH  20  21
ENDBRANCH   2  20
TORSDOF 8
ENDMDL
MODEL 6
REMARK VINA RESULT:      -8.8      3.307      6.387
REMARK  8 active torsions:
REMARK  status: ('A' for Active; 'I' for Inactive)
REMARK    1  A    between atoms: C_7  and  C_8 
REMARK    2  A    between atoms: C_8  and  O_9 
REMARK    3  A    between atoms: O_9  and  C_10 
REMARK    4  A    between atoms: C_13  and  C_14 
REMARK       I    between atoms: C_14  and  N_15 
REMARK    5  A    between atoms: N_15  and  C_16 
REMARK    6  A    between atoms: C_16  and  C_17 
REMARK    7  A    between atoms: C_18  and  C_19 
REMARK    8  A    between atoms: C_19  and  N_20 
ROOT
HETATM    1  C   UNL     1       8.677  29.585  58.134  1.00  0.00     0.251 C 
HETATM    2  N   UNL     1       7.615  28.834  57.672  1.00  0.00    -0.353 N 
HETATM    3  O   UNL     1       9.830  29.418  57.754  1.00  0.00    -0.268 OA
HETATM    4  H   UNL     1       6.673  29.132  57.882  1.00  0.00     0.163 HD
ENDROOT
BRANCH   1   5
HETATM    5  C   UNL     1       8.368  30.632  59.142  1.00  0.00     0.032 A 
HETATM    6  C   UNL     1       7.258  31.473  59.011  1.00  0.00     0.020 A 
HETATM    7  C   UNL     1       6.956  32.384  60.026  1.00  0.00     0.038 A 
HETATM    8  C   UNL     1       7.739  32.449  61.181  1.00  0.00     0.069 A 
HETATM    9  C   UNL     1       8.863  31.632  61.299  1.00  0.00     0.038 A 
HETATM   10  C   UNL     1       9.168  30.715  60.287  1.00  0.00     0.020 A 
BRANCH   8  11
HETATM   11  O   UNL     1       7.310  33.349  62.113  1.00  0.00    -0.347 OA
BRANCH  11  12
HETATM   12  C   UNL     1       7.359  32.930  63.479  1.00  0.00     0.219 C 
BRANCH  12  13
HETATM   13  C   UNL     1       6.066  33.225  64.147  1.00  0.00     0.024 A 
HETATM   14  C   UNL     1       5.865  33.722  65.465  1.00  0.00     0.069 A 
HETATM   15  C   UNL     1       6.887  34.060  66.483  1.00  0.00     0.073 C 
HETATM   16  N   UNL     1       4.565  33.873  65.740  1.00  0.00    -0.133 NA
HETATM   17  O   UNL     1       3.891  33.464  64.606  1.00  0.00    -0.217 OA
HETATM   18  C   UNL     1       4.785  33.075  63.660  1.00  0.00     0.085 A 
HETATM   19  C   UNL     1       4.221  32.595  62.385  1.00  0.00     0.079 C 
ENDBRANCH  12  13
ENDBRANCH  11  12
ENDBRANCH   8  11
ENDBRANCH   1   5
BRANCH   2  20
HETATM   20  C   UNL     1       7.833  27.719  56.786  1.00  0.00     0.162 C 
BRANCH  20  21
HETATM   21  C   UNL     1       6.729  27.584  55.762  1.00  0.00    -0.033 A 
HETATM   22  C   UNL     1       6.630  26.537  54.818  1.00  0.00    -0.025 A 
HETATM   23  C   UNL     1       5.542  26.533  53.918  1.00  0.00     0.009 A 
HETATM   24  C   UNL     1       4.574  27.536  53.950  1.00  0.00     0.001 A 
HETATM   25  C   UNL     1       4.670  28.562  54.880  1.00  0.00     0.001 A 
HETATM   26  C   UNL     1       5.734  28.583  55.778  1.00  0.00     0.009 A 
BRANCH  22  27
HETATM   27  C   UNL     1       7.631  25.415  54.708  1.00  0.00     0.274 C 
BRANCH  27  28
HETATM   28  N   UNL     1       7.028  24.102  54.267  1.00  0.00    -0.067 N 
HETATM   29  H   UNL     1       6.009  24.242  54.248  1.00  0.00     0.280 HD
HETATM   30  C   UNL     1       7.329  22.965  55.222  1.00  0.00     0.235 C 
HETATM   31  C   UNL     1       8.386  22.159  54.501  1.00  0.00     0.029 C 
HETATM   32  C   UNL     1       7.909  22.204  53.065  1.00  0.00     0.029 C 
HETATM   33  C   UNL     1       7.446  23.639  52.881  1.00  0.00     0.235 C 
ENDBRANCH  27  28
ENDBRANCH  22  27
ENDBRANCH  20  21
ENDBRANCH   2  20
TORSDOF 8
ENDMDL
MODEL 7
REMARK VINA RESULT:      -8.7      2.613      9.404
REMARK  8 active torsions:
REMARK  status: ('A' for Active; 'I' for Inactive)
REMARK    1  A    between atoms: C_7  and  C_8 
REMARK    2  A    between atoms: C_8  and  O_9 
REMARK    3  A    between atoms: O_9  and  C_10 
REMARK    4  A    between atoms: C_13  and  C_14 
REMARK       I    between atoms: C_14  and  N_15 
REMARK    5  A    between atoms: N_15  and  C_16 
REMARK    6  A    between atoms: C_16  and  C_17 
REMARK    7  A    between atoms: C_18  and  C_19 
REMARK    8  A    between atoms: C_19  and  N_20 
ROOT
HETATM    1  C   UNL     1       5.683  31.105  57.308  1.00  0.00     0.251 C 
HETATM    2  N   UNL     1       5.903  30.877  58.651  1.00  0.00    -0.353 N 
HETATM    3  O   UNL     1       5.423  32.211  56.850  1.00  0.00    -0.268 OA
HETATM    4  H   UNL     1       6.286  29.990  58.945  1.00  0.00     0.163 HD
ENDROOT
BRANCH   1   5
HETATM    5  C   UNL     1       5.769  29.926  56.408  1.00  0.00     0.032 A 
HETATM    6  C   UNL     1       6.991  29.484  55.889  1.00  0.00     0.020 A 
HETATM    7  C   UNL     1       7.036  28.320  55.118  1.00  0.00     0.038 A 
HETATM    8  C   UNL     1       5.876  27.580  54.877  1.00  0.00     0.069 A 
HETATM    9  C   UNL     1       4.653  28.035  55.368  1.00  0.00     0.038 A 
HETATM   10  C   UNL     1       4.602  29.199  56.143  1.00  0.00     0.020 A 
BRANCH   8  11
HETATM   11  O   UNL     1       6.065  26.441  54.149  1.00  0.00    -0.347 OA
BRANCH  11  12
HETATM   12  C   UNL     1       5.797  25.204  54.812  1.00  0.00     0.219 C 
BRANCH  12  13
HETATM   13  C   UNL     1       7.073  24.552  55.205  1.00  0.00     0.024 A 
HETATM   14  C   UNL     1       7.792  24.718  56.421  1.00  0.00     0.069 A 
HETATM   15  C   UNL     1       7.450  25.577  57.579  1.00  0.00     0.073 C 
HETATM   16  N   UNL     1       8.904  23.974  56.438  1.00  0.00    -0.133 NA
HETATM   17  O   UNL     1       8.934  23.315  55.225  1.00  0.00    -0.217 OA
HETATM   18  C   UNL     1       7.846  23.663  54.490  1.00  0.00     0.085 A 
HETATM   19  C   UNL     1       7.737  23.050  53.154  1.00  0.00     0.079 C 
ENDBRANCH  12  13
ENDBRANCH  11  12
ENDBRANCH   8  11
ENDBRANCH   1   5
BRANCH   2  20
HETATM   20  C   UNL     1       5.723  31.934  59.615  1.00  0.00     0.162 C 
BRANCH  20  21
HETATM   21  C   UNL     1       6.858  31.990  60.612  1.00  0.00    -0.033 A 
HETATM   22  C   UNL     1       6.706  31.862  62.012  1.00  0.00    -0.025 A 
HETATM   23  C   UNL     1       7.855  31.931  62.829  1.00  0.00     0.009 A 
HETATM   24  C   UNL     1       9.123  32.123  62.281  1.00  0.00     0.001 A 
HETATM   25  C   UNL     1       9.270  32.245  60.907  1.00  0.00     0.001 A 
HETATM   26  C   UNL     1       8.151  32.176  60.082  1.00  0.00     0.009 A 
BRANCH  22  27
HETATM   27  C   UNL     1       5.376  31.657  62.692  1.00  0.00     0.274 C 
BRANCH  27  28
HETATM   28  N   UNL     1       4.824  32.906  63.339  1.00  0.00    -0.067 N 
HETATM   29  H   UNL     1       3.866  32.680  63.638  1.00  0.00     0.280 HD
HETATM   30  C   UNL     1       4.753  34.080  62.385  1.00  0.00     0.235 C 
HETATM   31  C   UNL     1       5.907  34.961  62.810  1.00  0.00     0.029 C 
HETATM   32  C   UNL     1       5.863  34.851  64.319  1.00  0.00     0.029 C 
HETATM   33  C   UNL     1       5.583  33.379  64.568  1.00  0.00     0.235 C 
ENDBRANCH  27  28
ENDBRANCH  22  27
ENDBRANCH  20  21
ENDBRANCH   2  20
TORSDOF 8
ENDMDL
MODEL 8
REMARK VINA RESULT:      -8.7      3.191     10.416
REMARK  8 active torsions:
REMARK  status: ('A' for Active; 'I' for Inactive)
REMARK    1  A    between atoms: C_7  and  C_8 
REMARK    2  A    between atoms: C_8  and  O_9 
REMARK    3  A    between atoms: O_9  and  C_10 
REMARK    4  A    between atoms: C_13  and  C_14 
REMARK       I    between atoms: C_14  and  N_15 
REMARK    5  A    between atoms: N_15  and  C_16 
REMARK    6  A    between atoms: C_16  and  C_17 
REMARK    7  A    between atoms: C_18  and  C_19 
REMARK    8  A    between atoms: C_19  and  N_20 
ROOT
HETATM    1  C   UNL     1       6.020  31.761  58.244  1.00  0.00     0.251 C 
HETATM    2  N   UNL     1       5.950  31.537  59.604  1.00  0.00    -0.353 N 
HETATM    3  O   UNL     1       5.739  32.835  57.726  1.00  0.00    -0.268 OA
HETATM    4  H   UNL     1       6.362  30.699  59.988  1.00  0.00     0.163 HD
ENDROOT
BRANCH   1   5
HETATM    5  C   UNL     1       6.457  30.618  57.401  1.00  0.00     0.032 A 
HETATM    6  C   UNL     1       5.709  30.188  56.299  1.00  0.00     0.020 A 
HETATM    7  C   UNL     1       6.201  29.167  55.483  1.00  0.00     0.038 A 
HETATM    8  C   UNL     1       7.444  28.584  55.742  1.00  0.00     0.069 A 
HETATM    9  C   UNL     1       8.178  28.992  56.856  1.00  0.00     0.038 A 
HETATM   10  C   UNL     1       7.691  30.016  57.676  1.00  0.00     0.020 A 
BRANCH   8  11
HETATM   11  O   UNL     1       7.828  27.632  54.844  1.00  0.00    -0.347 OA
BRANCH  11  12
HETATM   12  C   UNL     1       6.789  26.836  54.269  1.00  0.00     0.219 C 
BRANCH  12  13
HETATM   13  C   UNL     1       7.065  25.395  54.502  1.00  0.00     0.024 A 
HETATM   14  C   UNL     1       6.897  24.666  55.712  1.00  0.00     0.069 A 
HETATM   15  C   UNL     1       6.415  25.162  57.023  1.00  0.00     0.073 C 
HETATM   16  N   UNL     1       7.243  23.382  55.563  1.00  0.00    -0.133 NA
HETATM   17  O   UNL     1       7.654  23.254  54.251  1.00  0.00    -0.217 OA
HETATM   18  C   UNL     1       7.551  24.453  53.621  1.00  0.00     0.085 A 
HETATM   19  C   UNL     1       7.967  24.488  52.207  1.00  0.00     0.079 C 
ENDBRANCH  12  13
ENDBRANCH  11  12
ENDBRANCH   8  11
ENDBRANCH   1   5
BRANCH   2  20
HETATM   20  C   UNL     1       5.423  32.546  60.488  1.00  0.00     0.162 C 
BRANCH  20  21
HETATM   21  C   UNL     1       6.258  32.695  61.740  1.00  0.00    -0.033 A 
HETATM   22  C   UNL     1       5.852  33.392  62.900  1.00  0.00    -0.025 A 
HETATM   23  C   UNL     1       6.733  33.451  64.002  1.00  0.00     0.009 A 
HETATM   24  C   UNL     1       7.984  32.837  63.961  1.00  0.00     0.001 A 
HETATM   25  C   UNL     1       8.381  32.151  62.822  1.00  0.00     0.001 A 
HETATM   26  C   UNL     1       7.525  32.077  61.726  1.00  0.00     0.009 A 
BRANCH  22  27
HETATM   27  C   UNL     1       4.520  34.088  63.033  1.00  0.00     0.274 C 
BRANCH  27  28
HETATM   28  N   UNL     1       4.401  35.338  62.192  1.00  0.00    -0.067 N 
HETATM   29  H   UNL     1       4.428  35.032  61.210  1.00  0.00     0.280 HD
HETATM   30  C   UNL     1       5.543  36.308  62.413  1.00  0.00     0.235 C 
HETATM   31  C   UNL     1       4.928  37.405  63.253  1.00  0.00     0.029 C 
HETATM   32  C   UNL     1       3.550  37.551  62.641  1.00  0.00     0.029 C 
HETATM   33  C   UNL     1       3.112  36.120  62.387  1.00  0.00     0.235 C 
ENDBRANCH  27  28
ENDBRANCH  22  27
ENDBRANCH  20  21
ENDBRANCH   2  20
TORSDOF 8
ENDMDL
MODEL 9
REMARK VINA RESULT:      -8.7      3.845      7.353
REMARK  8 active torsions:
REMARK  status: ('A' for Active; 'I' for Inactive)
REMARK    1  A    between atoms: C_7  and  C_8 
REMARK    2  A    between atoms: C_8  and  O_9 
REMARK    3  A    between atoms: O_9  and  C_10 
REMARK    4  A    between atoms: C_13  and  C_14 
REMARK       I    between atoms: C_14  and  N_15 
REMARK    5  A    between atoms: N_15  and  C_16 
REMARK    6  A    between atoms: C_16  and  C_17 
REMARK    7  A    between atoms: C_18  and  C_19 
REMARK    8  A    between atoms: C_19  and  N_20 
ROOT
HETATM    1  C   UNL     1       8.419  30.296  59.259  1.00  0.00     0.251 C 
HETATM    2  N   UNL     1       7.420  29.439  58.843  1.00  0.00    -0.353 N 
HETATM    3  O   UNL     1       9.510  30.371  58.706  1.00  0.00    -0.268 OA
HETATM    4  H   UNL     1       6.490  29.548  59.219  1.00  0.00     0.163 HD
ENDROOT
BRANCH   1   5
HETATM    5  C   UNL     1       8.121  31.147  60.440  1.00  0.00     0.032 A 
HETATM    6  C   UNL     1       7.071  32.072  60.433  1.00  0.00     0.020 A 
HETATM    7  C   UNL     1       6.771  32.788  61.595  1.00  0.00     0.038 A 
HETATM    8  C   UNL     1       7.496  32.575  62.770  1.00  0.00     0.069 A 
HETATM    9  C   UNL     1       8.561  31.674  62.770  1.00  0.00     0.038 A 
HETATM   10  C   UNL     1       8.864  30.952  61.610  1.00  0.00     0.020 A 
BRANCH   8  11
HETATM   11  O   UNL     1       7.073  33.304  63.843  1.00  0.00    -0.347 OA
BRANCH  11  12
HETATM   12  C   UNL     1       5.664  33.331  64.085  1.00  0.00     0.219 C 
BRANCH  12  13
HETATM   13  C   UNL     1       5.271  34.649  64.647  1.00  0.00     0.024 A 
HETATM   14  C   UNL     1       5.261  35.906  63.980  1.00  0.00     0.069 A 
HETATM   15  C   UNL     1       5.641  36.204  62.579  1.00  0.00     0.073 C 
HETATM   16  N   UNL     1       4.848  36.887  64.790  1.00  0.00    -0.133 NA
HETATM   17  O   UNL     1       4.591  36.286  66.007  1.00  0.00    -0.217 OA
HETATM   18  C   UNL     1       4.847  34.955  65.921  1.00  0.00     0.085 A 
HETATM   19  C   UNL     1       4.632  34.167  67.149  1.00  0.00     0.079 C 
ENDBRANCH  12  13
ENDBRANCH  11  12
ENDBRANCH   8  11
ENDBRANCH   1   5
BRANCH   2  20
HETATM   20  C   UNL     1       7.658  28.492  57.783  1.00  0.00     0.162 C 
BRANCH  20  21
HETATM   21  C   UNL     1       6.484  28.393  56.837  1.00  0.00    -0.033 A 
HETATM   22  C   UNL     1       6.362  27.436  55.803  1.00  0.00    -0.025 A 
HETATM   23  C   UNL     1       5.207  27.456  54.991  1.00  0.00     0.009 A 
HETATM   24  C   UNL     1       4.196  28.395  55.194  1.00  0.00     0.001 A 
HETATM   25  C   UNL     1       4.316  29.331  56.211  1.00  0.00     0.001 A 
HETATM   26  C   UNL     1       5.446  29.327  57.025  1.00  0.00     0.009 A 
BRANCH  22  27
HETATM   27  C   UNL     1       7.405  26.388  55.508  1.00  0.00     0.274 C 
BRANCH  27  28
HETATM   28  N   UNL     1       6.934  24.974  55.757  1.00  0.00    -0.067 N 
HETATM   29  H   UNL     1       6.004  25.049  56.191  1.00  0.00     0.280 HD
HETATM   30  C   UNL     1       7.835  24.212  56.707  1.00  0.00     0.235 C 
HETATM   31  C   UNL     1       8.603  23.274  55.802  1.00  0.00     0.029 C 
HETATM   32  C   UNL     1       7.546  22.841  54.808  1.00  0.00     0.029 C 
HETATM   33  C   UNL     1       6.783  24.120  54.508  1.00  0.00     0.235 C 
ENDBRANCH  27  28
ENDBRANCH  22  27
ENDBRANCH  20  21
ENDBRANCH   2  20
TORSDOF 8
ENDMDL
MODEL 10
REMARK VINA RESULT:      -8.7      5.451      9.543
REMARK  8 active torsions:
REMARK  status: ('A' for Active; 'I' for Inactive)
REMARK    1  A    between atoms: C_7  and  C_8 
REMARK    2  A    between atoms: C_8  and  O_9 
REMARK    3  A    between atoms: O_9  and  C_10 
REMARK    4  A    between atoms: C_13  and  C_14 
REMARK       I    between atoms: C_14  and  N_15 
REMARK    5  A    between atoms: N_15  and  C_16 
REMARK    6  A    between atoms: C_16  and  C_17 
REMARK    7  A    between atoms: C_18  and  C_19 
REMARK    8  A    between atoms: C_19  and  N_20 
ROOT
HETATM    1  C   UNL     1       5.226  26.391  50.447  1.00  0.00     0.251 C 
HETATM    2  N   UNL     1       5.803  27.626  50.229  1.00  0.00    -0.353 N 
HETATM    3  O   UNL     1       4.357  25.921  49.722  1.00  0.00    -0.268 OA
HETATM    4  H   UNL     1       6.631  27.881  50.748  1.00  0.00     0.163 HD
ENDROOT
BRANCH   1   5
HETATM    5  C   UNL     1       5.703  25.629  51.629  1.00  0.00     0.032 A 
HETATM    6  C   UNL     1       7.023  25.175  51.728  1.00  0.00     0.020 A 
HETATM    7  C   UNL     1       7.453  24.539  52.895  1.00  0.00     0.038 A 
HETATM    8  C   UNL     1       6.582  24.370  53.974  1.00  0.00     0.069 A 
HETATM    9  C   UNL     1       5.259  24.795  53.867  1.00  0.00     0.038 A 
HETATM   10  C   UNL     1       4.824  25.435  52.701  1.00  0.00     0.020 A 
BRANCH   8  11
HETATM   11  O   UNL     1       7.139  23.776  55.070  1.00  0.00    -0.347 OA
BRANCH  11  12
HETATM   12  C   UNL     1       8.465  23.265  54.919  1.00  0.00     0.219 C 
BRANCH  12  13
HETATM   13  C   UNL     1       8.463  21.789  55.086  1.00  0.00     0.024 A 
HETATM   14  C   UNL     1       8.451  21.055  56.304  1.00  0.00     0.069 A 
HETATM   15  C   UNL     1       8.443  21.579  57.691  1.00  0.00     0.073 C 
HETATM   16  N   UNL     1       8.452  19.736  56.082  1.00  0.00    -0.133 NA
HETATM   17  O   UNL     1       8.475  19.586  54.710  1.00  0.00    -0.217 OA
HETATM   18  C   UNL     1       8.485  20.809  54.118  1.00  0.00     0.085 A 
HETATM   19  C   UNL     1       8.523  20.821  52.644  1.00  0.00     0.079 C 
ENDBRANCH  12  13
ENDBRANCH  11  12
ENDBRANCH   8  11
ENDBRANCH   1   5
BRANCH   2  20
HETATM   20  C   UNL     1       5.321  28.488  49.180  1.00  0.00     0.162 C 
BRANCH  20  21
HETATM   21  C   UNL     1       4.929  29.851  49.702  1.00  0.00    -0.033 A 
HETATM   22  C   UNL     1       3.667  30.170  50.252  1.00  0.00    -0.025 A 
HETATM   23  C   UNL     1       3.435  31.487  50.706  1.00  0.00     0.009 A 
HETATM   24  C   UNL     1       4.424  32.466  50.618  1.00  0.00     0.001 A 
HETATM   25  C   UNL     1       5.664  32.151  50.081  1.00  0.00     0.001 A 
HETATM   26  C   UNL     1       5.914  30.857  49.631  1.00  0.00     0.009 A 
BRANCH  22  27
HETATM   27  C   UNL     1       2.538  29.178  50.382  1.00  0.00     0.274 C 
BRANCH  27  28
HETATM   28  N   UNL     1       1.617  29.143  49.185  1.00  0.00    -0.067 N 
HETATM   29  H   UNL     1       0.683  29.402  49.528  1.00  0.00     0.280 HD
HETATM   30  C   UNL     1       1.522  27.768  48.556  1.00  0.00     0.235 C 
HETATM   31  C   UNL     1       2.352  27.889  47.297  1.00  0.00     0.029 C 
HETATM   32  C   UNL     1       2.002  29.277  46.806  1.00  0.00     0.029 C 
HETATM   33  C   UNL     1       1.977  30.115  48.073  1.00  0.00     0.235 C 
ENDBRANCH  27  28
ENDBRANCH  22  27
ENDBRANCH  20  21
ENDBRANCH   2  20
TORSDOF 8
ENDMDL
