MODEL 1
REMARK VINA RESULT:      -8.3      0.000      0.000
REMARK  3 active torsions:
REMARK  status: ('A' for Active; 'I' for Inactive)
REMARK    1  A    between atoms: C_2  and  N_3 
REMARK    2  A    between atoms: N_10  and  C_11 
REMARK    3  A    between atoms: C_11  and  C_12 
ROOT
HETATM    1  N   UNL     1       5.840  29.286  57.634  1.00  0.00    -0.063 N 
HETATM    2  H   UNL     1       5.259  29.410  58.473  1.00  0.00     0.280 HD
HETATM    3  C   UNL     1       5.625  27.818  57.238  1.00  0.00     0.277 C 
HETATM    4  C   UNL     1       6.567  27.234  56.139  1.00  0.00     0.132 C 
HETATM    5  O   UNL     1       6.579  28.083  54.973  1.00  0.00    -0.373 OA
HETATM    6  C   UNL     1       5.526  27.798  54.044  1.00  0.00     0.199 C 
HETATM    7  C   UNL     1       5.610  26.376  53.468  1.00  0.00     0.299 C 
HETATM    8  N   UNL     1       6.221  25.378  54.367  1.00  0.00     0.097 N 
HETATM    9  C   UNL     1       6.045  25.792  55.770  1.00  0.00     0.314 C 
HETATM   10  C   UNL     1       8.002  27.093  56.715  1.00  0.00     0.209 C 
HETATM   11  O   UNL     1       8.848  28.232  56.767  1.00  0.00    -0.386 OA
HETATM   12  C   UNL     1       8.293  29.509  57.021  1.00  0.00     0.195 C 
HETATM   13  C   UNL     1       7.256  29.537  58.140  1.00  0.00     0.261 C 
ENDROOT
BRANCH   1  14
HETATM   14  C   UNL     1       5.281  30.334  56.645  1.00  0.00     0.180 C 
HETATM   15  C   UNL     1       5.358  31.744  57.239  1.00  0.00     0.039 C 
HETATM   16  C   UNL     1       3.813  30.023  56.337  1.00  0.00     0.039 C 
ENDBRANCH   1  14
BRANCH   8  17
HETATM   17  C   UNL     1       7.629  25.121  54.010  1.00  0.00     0.311 C 
BRANCH  17  18
HETATM   18  C   UNL     1       8.012  23.655  54.069  1.00  0.00    -0.030 A 
HETATM   19  C   UNL     1       8.718  23.156  55.178  1.00  0.00     0.012 A 
HETATM   20  C   UNL     1       9.082  21.811  55.237  1.00  0.00     0.043 A 
HETATM   21  C   UNL     1       8.736  20.961  54.195  1.00  0.00     0.116 A 
HETATM   22  F   UNL     1       9.092  19.671  54.250  1.00  0.00    -0.206 F 
HETATM   23  C   UNL     1       8.030  21.430  53.094  1.00  0.00     0.043 A 
HETATM   24  C   UNL     1       7.664  22.776  53.032  1.00  0.00     0.012 A 
ENDBRANCH  17  18
ENDBRANCH   8  17
TORSDOF 3
ENDMDL
MODEL 2
REMARK VINA RESULT:      -8.1      1.540      2.734
REMARK  3 active torsions:
REMARK  status: ('A' for Active; 'I' for Inactive)
REMARK    1  A    between atoms: C_2  and  N_3 
REMARK    2  A    between atoms: N_10  and  C_11 
REMARK    3  A    between atoms: C_11  and  C_12 
ROOT
HETATM    1  N   UNL     1       6.375  30.147  56.063  1.00  0.00    -0.063 N 
HETATM    2  H   UNL     1       6.817  31.001  55.698  1.00  0.00     0.280 HD
HETATM    3  C   UNL     1       7.272  29.009  55.557  1.00  0.00     0.277 C 
HETATM    4  C   UNL     1       6.737  27.552  55.728  1.00  0.00     0.132 C 
HETATM    5  O   UNL     1       6.328  27.316  57.090  1.00  0.00    -0.373 OA
HETATM    6  C   UNL     1       7.397  26.889  57.944  1.00  0.00     0.199 C 
HETATM    7  C   UNL     1       8.012  25.551  57.504  1.00  0.00     0.299 C 
HETATM    8  N   UNL     1       7.948  25.287  56.054  1.00  0.00     0.097 N 
HETATM    9  C   UNL     1       7.891  26.561  55.314  1.00  0.00     0.314 C 
HETATM   10  C   UNL     1       5.541  27.328  54.762  1.00  0.00     0.209 C 
HETATM   11  O   UNL     1       4.251  27.795  55.129  1.00  0.00    -0.386 OA
HETATM   12  C   UNL     1       4.122  28.993  55.872  1.00  0.00     0.195 C 
HETATM   13  C   UNL     1       5.007  30.137  55.387  1.00  0.00     0.261 C 
ENDROOT
BRANCH   1  14
HETATM   14  C   UNL     1       6.369  30.364  57.593  1.00  0.00     0.180 C 
HETATM   15  C   UNL     1       5.634  31.658  57.960  1.00  0.00     0.039 C 
HETATM   16  C   UNL     1       7.808  30.468  58.106  1.00  0.00     0.039 C 
ENDBRANCH   1  14
BRANCH   8  17
HETATM   17  C   UNL     1       6.840  24.373  55.720  1.00  0.00     0.311 C 
BRANCH  17  18
HETATM   18  C   UNL     1       7.273  23.166  54.911  1.00  0.00    -0.030 A 
HETATM   19  C   UNL     1       7.547  21.947  55.556  1.00  0.00     0.012 A 
HETATM   20  C   UNL     1       7.954  20.833  54.821  1.00  0.00     0.043 A 
HETATM   21  C   UNL     1       8.081  20.933  53.441  1.00  0.00     0.116 A 
HETATM   22  F   UNL     1       8.479  19.865  52.737  1.00  0.00    -0.206 F 
HETATM   23  C   UNL     1       7.807  22.124  52.782  1.00  0.00     0.043 A 
HETATM   24  C   UNL     1       7.400  23.240  53.514  1.00  0.00     0.012 A 
ENDBRANCH  17  18
ENDBRANCH   8  17
TORSDOF 3
ENDMDL
MODEL 3
REMARK VINA RESULT:      -7.7      2.957      6.902
REMARK  3 active torsions:
REMARK  status: ('A' for Active; 'I' for Inactive)
REMARK    1  A    between atoms: C_2  and  N_3 
REMARK    2  A    between atoms: N_10  and  C_11 
REMARK    3  A    between atoms: C_11  and  C_12 
ROOT
HETATM    1  N   UNL     1       6.515  23.836  53.902  1.00  0.00    -0.063 N 
HETATM    2  H   UNL     1       5.892  23.031  53.755  1.00  0.00     0.280 HD
HETATM    3  C   UNL     1       5.768  24.713  54.917  1.00  0.00     0.277 C 
HETATM    4  C   UNL     1       6.331  26.146  55.169  1.00  0.00     0.132 C 
HETATM    5  O   UNL     1       7.740  26.095  55.475  1.00  0.00    -0.373 OA
HETATM    6  C   UNL     1       8.018  25.878  56.864  1.00  0.00     0.199 C 
HETATM    7  C   UNL     1       7.485  27.007  57.760  1.00  0.00     0.299 C 
HETATM    8  N   UNL     1       6.281  27.689  57.248  1.00  0.00     0.097 N 
HETATM    9  C   UNL     1       5.526  26.780  56.367  1.00  0.00     0.314 C 
HETATM   10  C   UNL     1       6.087  27.022  53.910  1.00  0.00     0.209 C 
HETATM   11  O   UNL     1       6.974  26.918  52.806  1.00  0.00    -0.386 OA
HETATM   12  C   UNL     1       7.552  25.668  52.484  1.00  0.00     0.195 C 
HETATM   13  C   UNL     1       6.582  24.491  52.526  1.00  0.00     0.261 C 
ENDROOT
BRANCH   1  14
HETATM   14  C   UNL     1       7.827  23.196  54.409  1.00  0.00     0.180 C 
HETATM   15  C   UNL     1       8.388  22.209  53.380  1.00  0.00     0.039 C 
HETATM   16  C   UNL     1       7.561  22.433  55.710  1.00  0.00     0.039 C 
ENDBRANCH   1  14
BRANCH   8  17
HETATM   17  C   UNL     1       6.620  28.972  56.603  1.00  0.00     0.311 C 
BRANCH  17  18
HETATM   18  C   UNL     1       8.036  29.435  56.883  1.00  0.00    -0.030 A 
HETATM   19  C   UNL     1       9.022  29.324  55.886  1.00  0.00     0.012 A 
HETATM   20  C   UNL     1      10.330  29.739  56.137  1.00  0.00     0.043 A 
HETATM   21  C   UNL     1      10.653  30.272  57.378  1.00  0.00     0.116 A 
HETATM   22  F   UNL     1      11.911  30.665  57.620  1.00  0.00    -0.206 F 
HETATM   23  C   UNL     1       9.693  30.400  58.374  1.00  0.00     0.043 A 
HETATM   24  C   UNL     1       8.384  29.985  58.127  1.00  0.00     0.012 A 
ENDBRANCH  17  18
ENDBRANCH   8  17
TORSDOF 3
ENDMDL
MODEL 4
REMARK VINA RESULT:      -7.7      1.780      3.091
REMARK  3 active torsions:
REMARK  status: ('A' for Active; 'I' for Inactive)
REMARK    1  A    between atoms: C_2  and  N_3 
REMARK    2  A    between atoms: N_10  and  C_11 
REMARK    3  A    between atoms: C_11  and  C_12 
ROOT
HETATM    1  N   UNL     1       5.262  29.761  54.547  1.00  0.00    -0.063 N 
HETATM    2  H   UNL     1       5.732  30.672  54.461  1.00  0.00     0.280 HD
HETATM    3  C   UNL     1       6.412  28.747  54.631  1.00  0.00     0.277 C 
HETATM    4  C   UNL     1       6.037  27.237  54.516  1.00  0.00     0.132 C 
HETATM    5  O   UNL     1       4.987  26.899  55.446  1.00  0.00    -0.373 OA
HETATM    6  C   UNL     1       5.466  26.552  56.751  1.00  0.00     0.199 C 
HETATM    7  C   UNL     1       6.367  25.307  56.742  1.00  0.00     0.299 C 
HETATM    8  N   UNL     1       7.127  25.101  55.494  1.00  0.00     0.097 N 
HETATM    9  C   UNL     1       7.335  26.392  54.814  1.00  0.00     0.314 C 
HETATM   10  C   UNL     1       5.586  26.929  53.062  1.00  0.00     0.209 C 
HETATM   11  O   UNL     1       4.260  27.240  52.663  1.00  0.00    -0.386 OA
HETATM   12  C   UNL     1       3.616  28.384  53.192  1.00  0.00     0.195 C 
HETATM   13  C   UNL     1       4.487  29.635  53.239  1.00  0.00     0.261 C 
ENDROOT
BRANCH   1  14
HETATM   14  C   UNL     1       4.407  29.910  55.826  1.00  0.00     0.180 C 
HETATM   15  C   UNL     1       3.414  31.069  55.689  1.00  0.00     0.039 C 
HETATM   16  C   UNL     1       5.316  30.197  57.025  1.00  0.00     0.039 C 
ENDBRANCH   1  14
BRANCH   8  17
HETATM   17  C   UNL     1       6.485  24.089  54.633  1.00  0.00     0.311 C 
BRANCH  17  18
HETATM   18  C   UNL     1       7.277  22.801  54.519  1.00  0.00    -0.030 A 
HETATM   19  C   UNL     1       7.694  22.341  53.257  1.00  0.00     0.012 A 
HETATM   20  C   UNL     1       8.415  21.152  53.141  1.00  0.00     0.043 A 
HETATM   21  C   UNL     1       8.727  20.427  54.283  1.00  0.00     0.116 A 
HETATM   22  F   UNL     1       9.414  19.282  54.170  1.00  0.00    -0.206 F 
HETATM   23  C   UNL     1       8.334  20.867  55.540  1.00  0.00     0.043 A 
HETATM   24  C   UNL     1       7.612  22.055  55.660  1.00  0.00     0.012 A 
ENDBRANCH  17  18
ENDBRANCH   8  17
TORSDOF 3
ENDMDL
MODEL 5
REMARK VINA RESULT:      -7.5      4.199      8.023
REMARK  3 active torsions:
REMARK  status: ('A' for Active; 'I' for Inactive)
REMARK    1  A    between atoms: C_2  and  N_3 
REMARK    2  A    between atoms: N_10  and  C_11 
REMARK    3  A    between atoms: C_11  and  C_12 
ROOT
HETATM    1  N   UNL     1       5.457  27.237  54.563  1.00  0.00    -0.063 N 
HETATM    2  H   UNL     1       5.066  26.287  54.509  1.00  0.00     0.280 HD
HETATM    3  C   UNL     1       6.010  27.338  55.991  1.00  0.00     0.277 C 
HETATM    4  C   UNL     1       6.454  28.751  56.483  1.00  0.00     0.132 C 
HETATM    5  O   UNL     1       7.358  29.360  55.539  1.00  0.00    -0.373 OA
HETATM    6  C   UNL     1       8.729  28.997  55.742  1.00  0.00     0.199 C 
HETATM    7  C   UNL     1       9.266  29.445  57.110  1.00  0.00     0.299 C 
HETATM    8  N   UNL     1       8.254  29.510  58.182  1.00  0.00     0.097 N 
HETATM    9  C   UNL     1       7.150  28.579  57.887  1.00  0.00     0.314 C 
HETATM   10  C   UNL     1       5.198  29.645  56.676  1.00  0.00     0.209 C 
HETATM   11  O   UNL     1       4.609  30.273  55.547  1.00  0.00    -0.386 OA
HETATM   12  C   UNL     1       4.609  29.614  54.295  1.00  0.00     0.195 C 
HETATM   13  C   UNL     1       4.242  28.135  54.359  1.00  0.00     0.261 C 
ENDROOT
BRANCH   1  14
HETATM   14  C   UNL     1       6.512  27.262  53.433  1.00  0.00     0.180 C 
HETATM   15  C   UNL     1       5.864  26.988  52.072  1.00  0.00     0.039 C 
HETATM   16  C   UNL     1       7.568  26.183  53.688  1.00  0.00     0.039 C 
ENDBRANCH   1  14
BRANCH   8  17
HETATM   17  C   UNL     1       7.799  30.894  58.412  1.00  0.00     0.311 C 
BRANCH  17  18
HETATM   18  C   UNL     1       7.955  31.354  59.848  1.00  0.00    -0.030 A 
HETATM   19  C   UNL     1       9.060  30.929  60.607  1.00  0.00     0.012 A 
HETATM   20  C   UNL     1       9.208  31.340  61.932  1.00  0.00     0.043 A 
HETATM   21  C   UNL     1       8.258  32.180  62.498  1.00  0.00     0.116 A 
HETATM   22  F   UNL     1       8.398  32.568  63.773  1.00  0.00    -0.206 F 
HETATM   23  C   UNL     1       7.164  32.620  61.764  1.00  0.00     0.043 A 
HETATM   24  C   UNL     1       7.013  32.210  60.439  1.00  0.00     0.012 A 
ENDBRANCH  17  18
ENDBRANCH   8  17
TORSDOF 3
ENDMDL
MODEL 6
REMARK VINA RESULT:      -7.4      4.347      6.727
REMARK  3 active torsions:
REMARK  status: ('A' for Active; 'I' for Inactive)
REMARK    1  A    between atoms: C_2  and  N_3 
REMARK    2  A    between atoms: N_10  and  C_11 
REMARK    3  A    between atoms: C_11  and  C_12 
ROOT
HETATM    1  N   UNL     1       6.726  24.557  55.857  1.00  0.00    -0.063 N 
HETATM    2  H   UNL     1       6.247  24.234  56.709  1.00  0.00     0.280 HD
HETATM    3  C   UNL     1       5.616  25.218  55.027  1.00  0.00     0.277 C 
HETATM    4  C   UNL     1       5.961  25.595  53.552  1.00  0.00     0.132 C 
HETATM    5  O   UNL     1       7.176  26.370  53.494  1.00  0.00    -0.373 OA
HETATM    6  C   UNL     1       6.968  27.777  53.673  1.00  0.00     0.199 C 
HETATM    7  C   UNL     1       6.084  28.391  52.576  1.00  0.00     0.299 C 
HETATM    8  N   UNL     1       5.090  27.470  51.993  1.00  0.00     0.097 N 
HETATM    9  C   UNL     1       4.750  26.417  52.966  1.00  0.00     0.314 C 
HETATM   10  C   UNL     1       6.113  24.297  52.713  1.00  0.00     0.209 C 
HETATM   11  O   UNL     1       7.332  23.572  52.763  1.00  0.00    -0.386 OA
HETATM   12  C   UNL     1       8.068  23.517  53.971  1.00  0.00     0.195 C 
HETATM   13  C   UNL     1       7.223  23.266  55.216  1.00  0.00     0.261 C 
ENDROOT
BRANCH   1  14
HETATM   14  C   UNL     1       7.819  25.510  56.392  1.00  0.00     0.180 C 
HETATM   15  C   UNL     1       8.795  24.764  57.308  1.00  0.00     0.039 C 
HETATM   16  C   UNL     1       7.171  26.639  57.198  1.00  0.00     0.039 C 
ENDBRANCH   1  14
BRANCH   8  17
HETATM   17  C   UNL     1       5.547  26.935  50.696  1.00  0.00     0.311 C 
BRANCH  17  18
HETATM   18  C   UNL     1       4.509  27.043  49.596  1.00  0.00    -0.030 A 
HETATM   19  C   UNL     1       3.931  25.880  49.057  1.00  0.00     0.012 A 
HETATM   20  C   UNL     1       2.982  25.970  48.038  1.00  0.00     0.043 A 
HETATM   21  C   UNL     1       2.603  27.218  47.563  1.00  0.00     0.116 A 
HETATM   22  F   UNL     1       1.697  27.302  46.580  1.00  0.00    -0.206 F 
HETATM   23  C   UNL     1       3.154  28.380  48.088  1.00  0.00     0.043 A 
HETATM   24  C   UNL     1       4.104  28.295  49.106  1.00  0.00     0.012 A 
ENDBRANCH  17  18
ENDBRANCH   8  17
TORSDOF 3
ENDMDL
MODEL 7
REMARK VINA RESULT:      -7.4      3.521      5.301
REMARK  3 active torsions:
REMARK  status: ('A' for Active; 'I' for Inactive)
REMARK    1  A    between atoms: C_2  and  N_3 
REMARK    2  A    between atoms: N_10  and  C_11 
REMARK    3  A    between atoms: C_11  and  C_12 
ROOT
HETATM    1  N   UNL     1       4.774  29.577  49.773  1.00  0.00    -0.063 N 
HETATM    2  H   UNL     1       5.326  30.307  49.303  1.00  0.00     0.280 HD
HETATM    3  C   UNL     1       5.695  29.066  50.890  1.00  0.00     0.277 C 
HETATM    4  C   UNL     1       5.250  27.771  51.641  1.00  0.00     0.132 C 
HETATM    5  O   UNL     1       3.893  27.895  52.112  1.00  0.00    -0.373 OA
HETATM    6  C   UNL     1       3.786  28.525  53.394  1.00  0.00     0.199 C 
HETATM    7  C   UNL     1       4.493  27.733  54.506  1.00  0.00     0.299 C 
HETATM    8  N   UNL     1       5.657  26.944  54.060  1.00  0.00     0.097 N 
HETATM    9  C   UNL     1       6.239  27.548  52.848  1.00  0.00     0.314 C 
HETATM   10  C   UNL     1       5.377  26.554  50.684  1.00  0.00     0.209 C 
HETATM   11  O   UNL     1       4.350  26.301  49.737  1.00  0.00    -0.386 OA
HETATM   12  C   UNL     1       3.665  27.384  49.136  1.00  0.00     0.195 C 
HETATM   13  C   UNL     1       4.565  28.530  48.684  1.00  0.00     0.261 C 
ENDROOT
BRANCH   1  14
HETATM   14  C   UNL     1       3.505  30.325  50.242  1.00  0.00     0.180 C 
HETATM   15  C   UNL     1       2.754  30.929  49.051  1.00  0.00     0.039 C 
HETATM   16  C   UNL     1       3.896  31.462  51.190  1.00  0.00     0.039 C 
ENDBRANCH   1  14
BRANCH   8  17
HETATM   17  C   UNL     1       5.309  25.520  53.888  1.00  0.00     0.311 C 
BRANCH  17  18
HETATM   18  C   UNL     1       6.486  24.582  54.071  1.00  0.00    -0.030 A 
HETATM   19  C   UNL     1       7.057  24.409  55.344  1.00  0.00     0.012 A 
HETATM   20  C   UNL     1       8.146  23.554  55.519  1.00  0.00     0.043 A 
HETATM   21  C   UNL     1       8.660  22.867  54.427  1.00  0.00     0.116 A 
HETATM   22  F   UNL     1       9.710  22.052  54.596  1.00  0.00    -0.206 F 
HETATM   23  C   UNL     1       8.106  23.016  53.163  1.00  0.00     0.043 A 
HETATM   24  C   UNL     1       7.017  23.871  52.983  1.00  0.00     0.012 A 
ENDBRANCH  17  18
ENDBRANCH   8  17
TORSDOF 3
ENDMDL
MODEL 8
REMARK VINA RESULT:      -7.3      4.049      6.043
REMARK  3 active torsions:
REMARK  status: ('A' for Active; 'I' for Inactive)
REMARK    1  A    between atoms: C_2  and  N_3 
REMARK    2  A    between atoms: N_10  and  C_11 
REMARK    3  A    between atoms: C_11  and  C_12 
ROOT
HETATM    1  N   UNL     1       4.419  29.301  48.844  1.00  0.00    -0.063 N 
HETATM    2  H   UNL     1       4.965  29.972  48.287  1.00  0.00     0.280 HD
HETATM    3  C   UNL     1       5.348  28.928  50.007  1.00  0.00     0.277 C 
HETATM    4  C   UNL     1       4.914  27.730  50.908  1.00  0.00     0.132 C 
HETATM    5  O   UNL     1       3.559  27.902  51.369  1.00  0.00    -0.373 OA
HETATM    6  C   UNL     1       3.456  28.678  52.569  1.00  0.00     0.199 C 
HETATM    7  C   UNL     1       4.173  28.026  53.762  1.00  0.00     0.299 C 
HETATM    8  N   UNL     1       5.338  27.194  53.405  1.00  0.00     0.097 N 
HETATM    9  C   UNL     1       5.910  27.654  52.127  1.00  0.00     0.314 C 
HETATM   10  C   UNL     1       5.042  26.409  50.100  1.00  0.00     0.209 C 
HETATM   11  O   UNL     1       4.011  26.042  49.195  1.00  0.00    -0.386 OA
HETATM   12  C   UNL     1       3.318  27.044  48.476  1.00  0.00     0.195 C 
HETATM   13  C   UNL     1       4.210  28.132  47.886  1.00  0.00     0.261 C 
ENDROOT
BRANCH   1  14
HETATM   14  C   UNL     1       3.149  30.093  49.228  1.00  0.00     0.180 C 
HETATM   15  C   UNL     1       2.382  30.539  47.980  1.00  0.00     0.039 C 
HETATM   16  C   UNL     1       3.541  31.343  50.023  1.00  0.00     0.039 C 
ENDBRANCH   1  14
BRANCH   8  17
HETATM   17  C   UNL     1       4.996  25.759  53.404  1.00  0.00     0.311 C 
BRANCH  17  18
HETATM   18  C   UNL     1       6.166  24.857  53.746  1.00  0.00    -0.030 A 
HETATM   19  C   UNL     1       6.886  24.220  52.720  1.00  0.00     0.012 A 
HETATM   20  C   UNL     1       7.958  23.381  53.026  1.00  0.00     0.043 A 
HETATM   21  C   UNL     1       8.317  23.184  54.353  1.00  0.00     0.116 A 
HETATM   22  F   UNL     1       9.343  22.373  54.645  1.00  0.00    -0.206 F 
HETATM   23  C   UNL     1       7.625  23.810  55.381  1.00  0.00     0.043 A 
HETATM   24  C   UNL     1       6.552  24.650  55.080  1.00  0.00     0.012 A 
ENDBRANCH  17  18
ENDBRANCH   8  17
TORSDOF 3
ENDMDL
MODEL 9
REMARK VINA RESULT:      -7.1      4.088      5.806
REMARK  3 active torsions:
REMARK  status: ('A' for Active; 'I' for Inactive)
REMARK    1  A    between atoms: C_2  and  N_3 
REMARK    2  A    between atoms: N_10  and  C_11 
REMARK    3  A    between atoms: C_11  and  C_12 
ROOT
HETATM    1  N   UNL     1       3.071  29.631  49.511  1.00  0.00    -0.063 N 
HETATM    2  H   UNL     1       2.166  30.118  49.557  1.00  0.00     0.280 HD
HETATM    3  C   UNL     1       3.151  28.854  50.833  1.00  0.00     0.277 C 
HETATM    4  C   UNL     1       4.523  28.202  51.192  1.00  0.00     0.132 C 
HETATM    5  O   UNL     1       5.010  27.401  50.096  1.00  0.00    -0.373 OA
HETATM    6  C   UNL     1       4.511  26.057  50.103  1.00  0.00     0.199 C 
HETATM    7  C   UNL     1       4.936  25.271  51.353  1.00  0.00     0.299 C 
HETATM    8  N   UNL     1       5.133  26.092  52.564  1.00  0.00     0.097 N 
HETATM    9  C   UNL     1       4.315  27.315  52.479  1.00  0.00     0.314 C 
HETATM   10  C   UNL     1       5.547  29.318  51.537  1.00  0.00     0.209 C 
HETATM   11  O   UNL     1       6.204  30.010  50.487  1.00  0.00    -0.386 OA
HETATM   12  C   UNL     1       5.516  30.271  49.278  1.00  0.00     0.195 C 
HETATM   13  C   UNL     1       4.086  30.769  49.458  1.00  0.00     0.261 C 
ENDROOT
BRANCH   1  14
HETATM   14  C   UNL     1       2.958  28.768  48.234  1.00  0.00     0.180 C 
HETATM   15  C   UNL     1       2.715  29.644  47.001  1.00  0.00     0.039 C 
HETATM   16  C   UNL     1       1.784  27.795  48.371  1.00  0.00     0.039 C 
ENDBRANCH   1  14
BRANCH   8  17
HETATM   17  C   UNL     1       6.563  26.366  52.802  1.00  0.00     0.311 C 
BRANCH  17  18
HETATM   18  C   UNL     1       7.279  25.252  53.540  1.00  0.00    -0.030 A 
HETATM   19  C   UNL     1       7.474  25.339  54.929  1.00  0.00     0.012 A 
HETATM   20  C   UNL     1       8.140  24.323  55.615  1.00  0.00     0.043 A 
HETATM   21  C   UNL     1       8.604  23.217  54.917  1.00  0.00     0.116 A 
HETATM   22  F   UNL     1       9.250  22.245  55.576  1.00  0.00    -0.206 F 
HETATM   23  C   UNL     1       8.415  23.105  53.545  1.00  0.00     0.043 A 
HETATM   24  C   UNL     1       7.750  24.120  52.856  1.00  0.00     0.012 A 
ENDBRANCH  17  18
ENDBRANCH   8  17
TORSDOF 3
ENDMDL
MODEL 10
REMARK VINA RESULT:      -7.0      6.069      8.963
REMARK  3 active torsions:
REMARK  status: ('A' for Active; 'I' for Inactive)
REMARK    1  A    between atoms: C_2  and  N_3 
REMARK    2  A    between atoms: N_10  and  C_11 
REMARK    3  A    between atoms: C_11  and  C_12 
ROOT
HETATM    1  N   UNL     1       5.082  34.564  63.829  1.00  0.00    -0.063 N 
HETATM    2  H   UNL     1       5.114  35.532  64.177  1.00  0.00     0.280 HD
HETATM    3  C   UNL     1       6.273  34.467  62.866  1.00  0.00     0.277 C 
HETATM    4  C   UNL     1       6.361  33.192  61.971  1.00  0.00     0.132 C 
HETATM    5  O   UNL     1       6.251  31.997  62.772  1.00  0.00    -0.373 OA
HETATM    6  C   UNL     1       7.501  31.552  63.312  1.00  0.00     0.199 C 
HETATM    7  C   UNL     1       8.519  31.176  62.224  1.00  0.00     0.299 C 
HETATM    8  N   UNL     1       8.377  31.920  60.958  1.00  0.00     0.097 N 
HETATM    9  C   UNL     1       7.743  33.227  61.213  1.00  0.00     0.314 C 
HETATM   10  C   UNL     1       5.229  33.231  60.908  1.00  0.00     0.209 C 
HETATM   11  O   UNL     1       3.917  32.828  61.271  1.00  0.00    -0.386 OA
HETATM   12  C   UNL     1       3.436  33.093  62.575  1.00  0.00     0.195 C 
HETATM   13  C   UNL     1       3.748  34.494  63.093  1.00  0.00     0.261 C 
ENDROOT
BRANCH   1  14
HETATM   14  C   UNL     1       5.188  33.711  65.113  1.00  0.00     0.180 C 
HETATM   15  C   UNL     1       4.132  34.131  66.140  1.00  0.00     0.039 C 
HETATM   16  C   UNL     1       6.571  33.898  65.744  1.00  0.00     0.039 C 
ENDBRANCH   1  14
BRANCH   8  17
HETATM   17  C   UNL     1       7.670  31.122  59.939  1.00  0.00     0.311 C 
BRANCH  17  18
HETATM   18  C   UNL     1       8.582  30.565  58.865  1.00  0.00    -0.030 A 
HETATM   19  C   UNL     1       9.785  31.223  58.552  1.00  0.00     0.012 A 
HETATM   20  C   UNL     1      10.627  30.722  57.558  1.00  0.00     0.043 A 
HETATM   21  C   UNL     1      10.274  29.561  56.883  1.00  0.00     0.116 A 
HETATM   22  F   UNL     1      11.080  29.085  55.924  1.00  0.00    -0.206 F 
HETATM   23  C   UNL     1       9.095  28.890  57.182  1.00  0.00     0.043 A 
HETATM   24  C   UNL     1       8.250  29.388  58.174  1.00  0.00     0.012 A 
ENDBRANCH  17  18
ENDBRANCH   8  17
TORSDOF 3
ENDMDL
