MODEL 1
REMARK VINA RESULT:      -9.4      0.000      0.000
REMARK  3 active torsions:
REMARK  status: ('A' for Active; 'I' for Inactive)
REMARK    1  A    between atoms: N_1  and  C_5 
REMARK    2  A    between atoms: C_8  and  C_10 
REMARK       I    between atoms: C_10  and  N_12 
REMARK    3  A    between atoms: N_12  and  C_13 
ROOT
HETATM    1  C   UNL     1       7.786  24.605  54.429  1.00  0.00     0.057 A 
HETATM    2  C   UNL     1       7.995  23.803  55.558  1.00  0.00     0.043 A 
HETATM    3  C   UNL     1       8.261  22.432  55.415  1.00  0.00    -0.017 A 
HETATM    4  C   UNL     1       8.462  21.574  56.587  1.00  0.00     0.029 A 
HETATM    5  C   UNL     1       8.705  20.270  56.413  1.00  0.00     0.092 A 
HETATM    6  N   UNL     1       8.777  19.717  55.162  1.00  0.00    -0.333 N 
HETATM    7  C   UNL     1       8.607  20.418  53.989  1.00  0.00     0.256 A 
HETATM    8  O   UNL     1       8.682  19.885  52.890  1.00  0.00    -0.267 OA
HETATM    9  C   UNL     1       8.326  21.870  54.131  1.00  0.00     0.044 A 
HETATM   10  C   UNL     1       8.123  22.654  52.995  1.00  0.00     0.044 A 
HETATM   11  C   UNL     1       7.849  24.011  53.150  1.00  0.00     0.061 A 
HETATM   12 CL   UNL     1       7.597  24.963  51.725  1.00  0.00    -0.082 Cl
HETATM   13  H   UNL     1       8.963  18.725  55.055  1.00  0.00     0.168 HD
ENDROOT
BRANCH   1  14
HETATM   14  N   UNL     1       7.489  25.989  54.500  1.00  0.00    -0.325 N 
HETATM   15  C   UNL     1       6.279  26.614  54.323  1.00  0.00     0.226 C 
HETATM   16  O   UNL     1       5.181  26.078  54.172  1.00  0.00    -0.273 OA
HETATM   17  H   UNL     1       8.292  26.565  54.743  1.00  0.00     0.169 HD
BRANCH  15  18
HETATM   18  C   UNL     1       6.373  28.137  54.446  1.00  0.00     0.080 C 
HETATM   19  C   UNL     1       7.333  28.525  55.568  1.00  0.00     0.016 C 
HETATM   20  C   UNL     1       6.496  28.425  56.849  1.00  0.00     0.033 C 
HETATM   21  C   UNL     1       5.037  28.602  56.421  1.00  0.00     0.184 C 
HETATM   22  C   UNL     1       5.058  28.777  54.900  1.00  0.00     0.046 C 
BRANCH  21  23
HETATM   23  N   UNL     1       4.260  27.387  56.771  1.00  0.00    -0.075 N 
HETATM   24  H   UNL     1       4.551  26.556  56.241  1.00  0.00     0.274 HD
HETATM   25  H   UNL     1       4.324  27.162  57.771  1.00  0.00     0.274 HD
HETATM   26  H   UNL     1       3.244  27.531  56.582  1.00  0.00     0.274 HD
ENDBRANCH  21  23
ENDBRANCH  15  18
ENDBRANCH   1  14
TORSDOF 3
ENDMDL
MODEL 2
REMARK VINA RESULT:      -8.8      1.655      2.238
REMARK  3 active torsions:
REMARK  status: ('A' for Active; 'I' for Inactive)
REMARK    1  A    between atoms: N_1  and  C_5 
REMARK    2  A    between atoms: C_8  and  C_10 
REMARK       I    between atoms: C_10  and  N_12 
REMARK    3  A    between atoms: N_12  and  C_13 
ROOT
HETATM    1  C   UNL     1       7.766  24.859  54.889  1.00  0.00     0.057 A 
HETATM    2  C   UNL     1       7.707  23.956  53.820  1.00  0.00     0.043 A 
HETATM    3  C   UNL     1       8.072  22.612  54.005  1.00  0.00    -0.017 A 
HETATM    4  C   UNL     1       8.035  21.659  52.892  1.00  0.00     0.029 A 
HETATM    5  C   UNL     1       8.397  20.388  53.103  1.00  0.00     0.092 A 
HETATM    6  N   UNL     1       8.797  19.955  54.339  1.00  0.00    -0.333 N 
HETATM    7  C   UNL     1       8.873  20.754  55.459  1.00  0.00     0.256 A 
HETATM    8  O   UNL     1       9.234  20.326  56.547  1.00  0.00    -0.267 OA
HETATM    9  C   UNL     1       8.488  22.176  55.273  1.00  0.00     0.044 A 
HETATM   10  C   UNL     1       8.551  23.062  56.349  1.00  0.00     0.044 A 
HETATM   11  C   UNL     1       8.197  24.394  56.151  1.00  0.00     0.061 A 
HETATM   12 CL   UNL     1       8.287  25.475  57.502  1.00  0.00    -0.082 Cl
HETATM   13  H   UNL     1       9.068  18.987  54.476  1.00  0.00     0.168 HD
ENDROOT
BRANCH   1  14
HETATM   14  N   UNL     1       7.438  26.232  54.769  1.00  0.00    -0.325 N 
HETATM   15  C   UNL     1       6.237  26.796  54.413  1.00  0.00     0.226 C 
HETATM   16  O   UNL     1       5.168  26.214  54.232  1.00  0.00    -0.273 OA
HETATM   17  H   UNL     1       8.204  26.857  55.010  1.00  0.00     0.169 HD
BRANCH  15  18
HETATM   18  C   UNL     1       6.291  28.325  54.361  1.00  0.00     0.080 C 
HETATM   19  C   UNL     1       7.142  28.869  55.506  1.00  0.00     0.016 C 
HETATM   20  C   UNL     1       6.200  28.896  56.715  1.00  0.00     0.033 C 
HETATM   21  C   UNL     1       4.780  28.979  56.148  1.00  0.00     0.184 C 
HETATM   22  C   UNL     1       4.929  28.975  54.625  1.00  0.00     0.046 C 
BRANCH  21  23
HETATM   23  N   UNL     1       3.999  27.791  56.574  1.00  0.00    -0.075 N 
HETATM   24  H   UNL     1       3.000  27.862  56.346  1.00  0.00     0.274 HD
HETATM   25  H   UNL     1       4.358  26.923  56.158  1.00  0.00     0.274 HD
HETATM   26  H   UNL     1       4.069  27.654  57.606  1.00  0.00     0.274 HD
ENDBRANCH  21  23
ENDBRANCH  15  18
ENDBRANCH   1  14
TORSDOF 3
ENDMDL
MODEL 3
REMARK VINA RESULT:      -8.5      1.756      2.359
REMARK  3 active torsions:
REMARK  status: ('A' for Active; 'I' for Inactive)
REMARK    1  A    between atoms: N_1  and  C_5 
REMARK    2  A    between atoms: C_8  and  C_10 
REMARK       I    between atoms: C_10  and  N_12 
REMARK    3  A    between atoms: N_12  and  C_13 
ROOT
HETATM    1  C   UNL     1       7.440  24.569  55.471  1.00  0.00     0.057 A 
HETATM    2  C   UNL     1       7.707  23.491  56.324  1.00  0.00     0.043 A 
HETATM    3  C   UNL     1       8.084  22.245  55.798  1.00  0.00    -0.017 A 
HETATM    4  C   UNL     1       8.347  21.101  56.677  1.00  0.00     0.029 A 
HETATM    5  C   UNL     1       8.697  19.927  56.139  1.00  0.00     0.092 A 
HETATM    6  N   UNL     1       8.822  19.770  54.784  1.00  0.00    -0.333 N 
HETATM    7  C   UNL     1       8.602  20.767  53.860  1.00  0.00     0.256 A 
HETATM    8  O   UNL     1       8.727  20.584  52.656  1.00  0.00    -0.267 OA
HETATM    9  C   UNL     1       8.203  22.088  54.408  1.00  0.00     0.044 A 
HETATM   10  C   UNL     1       7.944  23.151  53.543  1.00  0.00     0.044 A 
HETATM   11  C   UNL     1       7.559  24.379  54.076  1.00  0.00     0.061 A 
HETATM   12 CL   UNL     1       7.239  25.683  52.982  1.00  0.00    -0.082 Cl
HETATM   13  H   UNL     1       9.088  18.869  54.399  1.00  0.00     0.168 HD
ENDROOT
BRANCH   1  14
HETATM   14  N   UNL     1       7.031  25.844  55.931  1.00  0.00    -0.325 N 
HETATM   15  C   UNL     1       7.415  26.507  57.071  1.00  0.00     0.226 C 
HETATM   16  O   UNL     1       8.284  26.163  57.872  1.00  0.00    -0.273 OA
HETATM   17  H   UNL     1       6.389  26.319  55.299  1.00  0.00     0.169 HD
BRANCH  15  18
HETATM   18  C   UNL     1       6.718  27.860  57.236  1.00  0.00     0.080 C 
HETATM   19  C   UNL     1       6.539  28.538  55.880  1.00  0.00     0.016 C 
HETATM   20  C   UNL     1       7.886  29.212  55.598  1.00  0.00     0.033 C 
HETATM   21  C   UNL     1       8.542  29.442  56.963  1.00  0.00     0.184 C 
HETATM   22  C   UNL     1       7.572  28.875  58.002  1.00  0.00     0.046 C 
BRANCH  21  23
HETATM   23  N   UNL     1       9.829  28.706  57.031  1.00  0.00    -0.075 N 
HETATM   24  H   UNL     1      10.218  28.488  56.105  1.00  0.00     0.274 HD
HETATM   25  H   UNL     1      10.542  29.223  57.560  1.00  0.00     0.274 HD
HETATM   26  H   UNL     1       9.711  27.800  57.535  1.00  0.00     0.274 HD
ENDBRANCH  21  23
ENDBRANCH  15  18
ENDBRANCH   1  14
TORSDOF 3
ENDMDL
MODEL 4
REMARK VINA RESULT:      -8.4      2.270      2.925
REMARK  3 active torsions:
REMARK  status: ('A' for Active; 'I' for Inactive)
REMARK    1  A    between atoms: N_1  and  C_5 
REMARK    2  A    between atoms: C_8  and  C_10 
REMARK       I    between atoms: C_10  and  N_12 
REMARK    3  A    between atoms: N_12  and  C_13 
ROOT
HETATM    1  C   UNL     1       7.321  24.408  53.591  1.00  0.00     0.057 A 
HETATM    2  C   UNL     1       7.726  23.224  52.964  1.00  0.00     0.043 A 
HETATM    3  C   UNL     1       8.069  22.097  53.729  1.00  0.00    -0.017 A 
HETATM    4  C   UNL     1       8.515  20.856  53.089  1.00  0.00     0.029 A 
HETATM    5  C   UNL     1       8.841  19.805  53.851  1.00  0.00     0.092 A 
HETATM    6  N   UNL     1       8.762  19.860  55.217  1.00  0.00    -0.333 N 
HETATM    7  C   UNL     1       8.358  20.967  55.931  1.00  0.00     0.256 A 
HETATM    8  O   UNL     1       8.300  20.973  57.153  1.00  0.00    -0.267 OA
HETATM    9  C   UNL     1       7.993  22.162  55.129  1.00  0.00     0.044 A 
HETATM   10  C   UNL     1       7.589  23.334  55.770  1.00  0.00     0.044 A 
HETATM   11  C   UNL     1       7.262  24.448  55.001  1.00  0.00     0.061 A 
HETATM   12 CL   UNL     1       6.767  25.892  55.820  1.00  0.00    -0.082 Cl
HETATM   13  H   UNL     1       9.015  19.050  55.774  1.00  0.00     0.168 HD
ENDROOT
BRANCH   1  14
HETATM   14  N   UNL     1       6.985  25.589  52.883  1.00  0.00    -0.325 N 
HETATM   15  C   UNL     1       5.873  25.841  52.118  1.00  0.00     0.226 C 
HETATM   16  O   UNL     1       4.885  25.119  51.984  1.00  0.00    -0.273 OA
HETATM   17  H   UNL     1       7.664  26.339  52.998  1.00  0.00     0.169 HD
BRANCH  15  18
HETATM   18  C   UNL     1       5.892  27.234  51.482  1.00  0.00     0.080 C 
HETATM   19  C   UNL     1       6.449  28.262  52.463  1.00  0.00     0.016 C 
HETATM   20  C   UNL     1       5.260  28.634  53.357  1.00  0.00     0.033 C 
HETATM   21  C   UNL     1       4.001  28.334  52.538  1.00  0.00     0.184 C 
HETATM   22  C   UNL     1       4.486  27.774  51.200  1.00  0.00     0.046 C 
BRANCH  21  23
HETATM   23  N   UNL     1       3.180  27.313  53.236  1.00  0.00    -0.075 N 
HETATM   24  H   UNL     1       2.279  27.136  52.775  1.00  0.00     0.274 HD
HETATM   25  H   UNL     1       3.672  26.416  53.325  1.00  0.00     0.274 HD
HETATM   26  H   UNL     1       2.969  27.613  54.213  1.00  0.00     0.274 HD
ENDBRANCH  21  23
ENDBRANCH  15  18
ENDBRANCH   1  14
TORSDOF 3
ENDMDL
MODEL 5
REMARK VINA RESULT:      -8.4      1.602      2.120
REMARK  3 active torsions:
REMARK  status: ('A' for Active; 'I' for Inactive)
REMARK    1  A    between atoms: N_1  and  C_5 
REMARK    2  A    between atoms: C_8  and  C_10 
REMARK       I    between atoms: C_10  and  N_12 
REMARK    3  A    between atoms: N_12  and  C_13 
ROOT
HETATM    1  C   UNL     1       6.810  24.428  55.567  1.00  0.00     0.057 A 
HETATM    2  C   UNL     1       7.449  23.485  56.382  1.00  0.00     0.043 A 
HETATM    3  C   UNL     1       7.950  22.294  55.830  1.00  0.00    -0.017 A 
HETATM    4  C   UNL     1       8.603  21.287  56.672  1.00  0.00     0.029 A 
HETATM    5  C   UNL     1       9.060  20.161  56.113  1.00  0.00     0.092 A 
HETATM    6  N   UNL     1       8.938  19.929  54.768  1.00  0.00    -0.333 N 
HETATM    7  C   UNL     1       8.346  20.798  53.878  1.00  0.00     0.256 A 
HETATM    8  O   UNL     1       8.260  20.552  52.682  1.00  0.00    -0.267 OA
HETATM    9  C   UNL     1       7.815  22.060  54.452  1.00  0.00     0.044 A 
HETATM   10  C   UNL     1       7.183  22.989  53.627  1.00  0.00     0.044 A 
HETATM   11  C   UNL     1       6.681  24.162  54.187  1.00  0.00     0.061 A 
HETATM   12 CL   UNL     1       5.898  25.299  53.141  1.00  0.00    -0.082 Cl
HETATM   13  H   UNL     1       9.293  19.067  54.366  1.00  0.00     0.168 HD
ENDROOT
BRANCH   1  14
HETATM   14  N   UNL     1       6.260  25.637  56.060  1.00  0.00    -0.325 N 
HETATM   15  C   UNL     1       6.849  26.580  56.867  1.00  0.00     0.226 C 
HETATM   16  O   UNL     1       8.023  26.610  57.237  1.00  0.00    -0.273 OA
HETATM   17  H   UNL     1       5.312  25.816  55.734  1.00  0.00     0.169 HD
BRANCH  15  18
HETATM   18  C   UNL     1       5.910  27.737  57.213  1.00  0.00     0.080 C 
HETATM   19  C   UNL     1       4.942  28.003  56.063  1.00  0.00     0.016 C 
HETATM   20  C   UNL     1       5.732  28.875  55.081  1.00  0.00     0.033 C 
HETATM   21  C   UNL     1       6.815  29.575  55.907  1.00  0.00     0.184 C 
HETATM   22  C   UNL     1       6.643  29.076  57.343  1.00  0.00     0.046 C 
BRANCH  21  23
HETATM   23  N   UNL     1       8.158  29.190  55.404  1.00  0.00    -0.075 N 
HETATM   24  H   UNL     1       8.839  29.032  56.156  1.00  0.00     0.274 HD
HETATM   25  H   UNL     1       8.125  28.343  54.823  1.00  0.00     0.274 HD
HETATM   26  H   UNL     1       8.549  29.936  54.788  1.00  0.00     0.274 HD
ENDBRANCH  21  23
ENDBRANCH  15  18
ENDBRANCH   1  14
TORSDOF 3
ENDMDL
MODEL 6
REMARK VINA RESULT:      -8.1      4.499      5.611
REMARK  3 active torsions:
REMARK  status: ('A' for Active; 'I' for Inactive)
REMARK    1  A    between atoms: N_1  and  C_5 
REMARK    2  A    between atoms: C_8  and  C_10 
REMARK       I    between atoms: C_10  and  N_12 
REMARK    3  A    between atoms: N_12  and  C_13 
ROOT
HETATM    1  C   UNL     1       5.891  26.195  51.568  1.00  0.00     0.057 A 
HETATM    2  C   UNL     1       6.819  25.150  51.661  1.00  0.00     0.043 A 
HETATM    3  C   UNL     1       7.065  24.529  52.897  1.00  0.00    -0.017 A 
HETATM    4  C   UNL     1       8.048  23.447  53.016  1.00  0.00     0.029 A 
HETATM    5  C   UNL     1       8.263  22.884  54.210  1.00  0.00     0.092 A 
HETATM    6  N   UNL     1       7.580  23.290  55.325  1.00  0.00    -0.333 N 
HETATM    7  C   UNL     1       6.635  24.292  55.339  1.00  0.00     0.256 A 
HETATM    8  O   UNL     1       6.046  24.624  56.359  1.00  0.00    -0.267 OA
HETATM    9  C   UNL     1       6.368  24.955  54.037  1.00  0.00     0.044 A 
HETATM   10  C   UNL     1       5.439  25.993  53.962  1.00  0.00     0.044 A 
HETATM   11  C   UNL     1       5.210  26.609  52.734  1.00  0.00     0.061 A 
HETATM   12 CL   UNL     1       4.055  27.897  52.666  1.00  0.00    -0.082 Cl
HETATM   13  H   UNL     1       7.760  22.848  56.221  1.00  0.00     0.168 HD
ENDROOT
BRANCH   1  14
HETATM   14  N   UNL     1       5.611  26.883  50.362  1.00  0.00    -0.325 N 
HETATM   15  C   UNL     1       4.745  26.530  49.356  1.00  0.00     0.226 C 
HETATM   16  O   UNL     1       3.951  25.590  49.357  1.00  0.00    -0.273 OA
HETATM   17  H   UNL     1       6.114  27.764  50.269  1.00  0.00     0.169 HD
BRANCH  15  18
HETATM   18  C   UNL     1       4.749  27.523  48.191  1.00  0.00     0.080 C 
HETATM   19  C   UNL     1       4.777  28.958  48.711  1.00  0.00     0.016 C 
HETATM   20  C   UNL     1       3.316  29.282  49.044  1.00  0.00     0.033 C 
HETATM   21  C   UNL     1       2.465  28.350  48.177  1.00  0.00     0.184 C 
HETATM   22  C   UNL     1       3.450  27.491  47.381  1.00  0.00     0.046 C 
BRANCH  21  23
HETATM   23  N   UNL     1       1.634  27.477  49.045  1.00  0.00    -0.075 N 
HETATM   24  H   UNL     1       1.855  27.576  50.044  1.00  0.00     0.274 HD
HETATM   25  H   UNL     1       0.630  27.655  48.924  1.00  0.00     0.274 HD
HETATM   26  H   UNL     1       1.771  26.473  48.799  1.00  0.00     0.274 HD
ENDBRANCH  21  23
ENDBRANCH  15  18
ENDBRANCH   1  14
TORSDOF 3
ENDMDL
MODEL 7
REMARK VINA RESULT:      -7.9      2.123      6.994
REMARK  3 active torsions:
REMARK  status: ('A' for Active; 'I' for Inactive)
REMARK    1  A    between atoms: N_1  and  C_5 
REMARK    2  A    between atoms: C_8  and  C_10 
REMARK       I    between atoms: C_10  and  N_12 
REMARK    3  A    between atoms: N_12  and  C_13 
ROOT
HETATM    1  C   UNL     1       7.563  25.489  55.572  1.00  0.00     0.057 A 
HETATM    2  C   UNL     1       8.065  26.415  56.495  1.00  0.00     0.043 A 
HETATM    3  C   UNL     1       7.286  27.514  56.893  1.00  0.00    -0.017 A 
HETATM    4  C   UNL     1       7.804  28.504  57.842  1.00  0.00     0.029 A 
HETATM    5  C   UNL     1       7.037  29.543  58.192  1.00  0.00     0.092 A 
HETATM    6  N   UNL     1       5.774  29.700  57.687  1.00  0.00    -0.333 N 
HETATM    7  C   UNL     1       5.179  28.840  56.791  1.00  0.00     0.256 A 
HETATM    8  O   UNL     1       4.045  29.017  56.365  1.00  0.00    -0.267 OA
HETATM    9  C   UNL     1       5.995  27.674  56.366  1.00  0.00     0.044 A 
HETATM   10  C   UNL     1       5.479  26.760  55.447  1.00  0.00     0.044 A 
HETATM   11  C   UNL     1       6.264  25.680  55.052  1.00  0.00     0.061 A 
HETATM   12 CL   UNL     1       5.603  24.561  53.907  1.00  0.00    -0.082 Cl
HETATM   13  H   UNL     1       5.210  30.497  57.966  1.00  0.00     0.168 HD
ENDROOT
BRANCH   1  14
HETATM   14  N   UNL     1       8.302  24.373  55.108  1.00  0.00    -0.325 N 
HETATM   15  C   UNL     1       8.676  23.247  55.800  1.00  0.00     0.226 C 
HETATM   16  O   UNL     1       8.344  22.934  56.944  1.00  0.00    -0.273 OA
HETATM   17  H   UNL     1       8.550  24.430  54.123  1.00  0.00     0.169 HD
BRANCH  15  18
HETATM   18  C   UNL     1       9.503  22.276  54.954  1.00  0.00     0.080 C 
HETATM   19  C   UNL     1       8.850  22.064  53.590  1.00  0.00     0.016 C 
HETATM   20  C   UNL     1       7.769  21.005  53.835  1.00  0.00     0.033 C 
HETATM   21  C   UNL     1       8.213  20.221  55.073  1.00  0.00     0.184 C 
HETATM   22  C   UNL     1       9.526  20.858  55.532  1.00  0.00     0.046 C 
BRANCH  21  23
HETATM   23  N   UNL     1       7.194  20.356  56.144  1.00  0.00    -0.075 N 
HETATM   24  H   UNL     1       6.803  19.455  56.445  1.00  0.00     0.274 HD
HETATM   25  H   UNL     1       7.566  20.832  56.975  1.00  0.00     0.274 HD
HETATM   26  H   UNL     1       6.394  20.944  55.821  1.00  0.00     0.274 HD
ENDBRANCH  21  23
ENDBRANCH  15  18
ENDBRANCH   1  14
TORSDOF 3
ENDMDL
MODEL 8
REMARK VINA RESULT:      -7.8      3.796      7.460
REMARK  3 active torsions:
REMARK  status: ('A' for Active; 'I' for Inactive)
REMARK    1  A    between atoms: N_1  and  C_5 
REMARK    2  A    between atoms: C_8  and  C_10 
REMARK       I    between atoms: C_10  and  N_12 
REMARK    3  A    between atoms: N_12  and  C_13 
ROOT
HETATM    1  C   UNL     1       7.566  27.827  56.395  1.00  0.00     0.057 A 
HETATM    2  C   UNL     1       8.754  28.473  56.758  1.00  0.00     0.043 A 
HETATM    3  C   UNL     1       8.719  29.613  57.578  1.00  0.00    -0.017 A 
HETATM    4  C   UNL     1       9.952  30.314  57.950  1.00  0.00     0.029 A 
HETATM    5  C   UNL     1       9.880  31.402  58.727  1.00  0.00     0.092 A 
HETATM    6  N   UNL     1       8.680  31.873  59.188  1.00  0.00    -0.333 N 
HETATM    7  C   UNL     1       7.458  31.302  58.907  1.00  0.00     0.256 A 
HETATM    8  O   UNL     1       6.407  31.754  59.341  1.00  0.00    -0.267 OA
HETATM    9  C   UNL     1       7.485  30.096  58.041  1.00  0.00     0.044 A 
HETATM   10  C   UNL     1       6.293  29.463  57.690  1.00  0.00     0.044 A 
HETATM   11  C   UNL     1       6.338  28.340  56.868  1.00  0.00     0.061 A 
HETATM   12 CL   UNL     1       4.844  27.573  56.444  1.00  0.00    -0.082 Cl
HETATM   13  H   UNL     1       8.650  32.700  59.775  1.00  0.00     0.168 HD
ENDROOT
BRANCH   1  14
HETATM   14  N   UNL     1       7.525  26.689  55.551  1.00  0.00    -0.325 N 
HETATM   15  C   UNL     1       7.368  26.640  54.188  1.00  0.00     0.226 C 
HETATM   16  O   UNL     1       7.340  27.593  53.409  1.00  0.00    -0.273 OA
HETATM   17  H   UNL     1       7.659  25.810  56.047  1.00  0.00     0.169 HD
BRANCH  15  18
HETATM   18  C   UNL     1       7.339  25.210  53.644  1.00  0.00     0.080 C 
HETATM   19  C   UNL     1       7.475  25.213  52.123  1.00  0.00     0.016 C 
HETATM   20  C   UNL     1       6.059  25.489  51.605  1.00  0.00     0.033 C 
HETATM   21  C   UNL     1       5.103  25.032  52.710  1.00  0.00     0.184 C 
HETATM   22  C   UNL     1       5.985  24.524  53.852  1.00  0.00     0.046 C 
BRANCH  21  23
HETATM   23  N   UNL     1       4.293  26.184  53.182  1.00  0.00    -0.075 N 
HETATM   24  H   UNL     1       4.315  26.982  52.536  1.00  0.00     0.274 HD
HETATM   25  H   UNL     1       3.311  25.928  53.337  1.00  0.00     0.274 HD
HETATM   26  H   UNL     1       4.641  26.526  54.104  1.00  0.00     0.274 HD
ENDBRANCH  21  23
ENDBRANCH  15  18
ENDBRANCH   1  14
TORSDOF 3
ENDMDL
MODEL 9
REMARK VINA RESULT:      -7.8      5.130      7.481
REMARK  3 active torsions:
REMARK  status: ('A' for Active; 'I' for Inactive)
REMARK    1  A    between atoms: N_1  and  C_5 
REMARK    2  A    between atoms: C_8  and  C_10 
REMARK       I    between atoms: C_10  and  N_12 
REMARK    3  A    between atoms: N_12  and  C_13 
ROOT
HETATM    1  C   UNL     1       8.417  29.778  58.068  1.00  0.00     0.057 A 
HETATM    2  C   UNL     1       7.082  29.373  57.939  1.00  0.00     0.043 A 
HETATM    3  C   UNL     1       6.634  28.776  56.749  1.00  0.00    -0.017 A 
HETATM    4  C   UNL     1       5.236  28.365  56.590  1.00  0.00     0.029 A 
HETATM    5  C   UNL     1       4.843  27.806  55.439  1.00  0.00     0.092 A 
HETATM    6  N   UNL     1       5.720  27.602  54.407  1.00  0.00    -0.333 N 
HETATM    7  C   UNL     1       7.054  27.945  54.438  1.00  0.00     0.256 A 
HETATM    8  O   UNL     1       7.805  27.744  53.493  1.00  0.00    -0.267 OA
HETATM    9  C   UNL     1       7.536  28.577  55.692  1.00  0.00     0.044 A 
HETATM   10  C   UNL     1       8.869  28.973  55.805  1.00  0.00     0.044 A 
HETATM   11  C   UNL     1       9.299  29.574  56.985  1.00  0.00     0.061 A 
HETATM   12 CL   UNL     1      10.958  30.059  57.100  1.00  0.00    -0.082 Cl
HETATM   13  H   UNL     1       5.399  27.177  53.543  1.00  0.00     0.168 HD
ENDROOT
BRANCH   1  14
HETATM   14  N   UNL     1       8.930  30.409  59.228  1.00  0.00    -0.325 N 
HETATM   15  C   UNL     1       8.583  31.625  59.765  1.00  0.00     0.226 C 
HETATM   16  O   UNL     1       7.670  32.364  59.400  1.00  0.00    -0.273 OA
HETATM   17  H   UNL     1       9.625  29.852  59.721  1.00  0.00     0.169 HD
BRANCH  15  18
HETATM   18  C   UNL     1       9.396  31.977  61.014  1.00  0.00     0.080 C 
HETATM   19  C   UNL     1       9.930  30.710  61.679  1.00  0.00     0.016 C 
HETATM   20  C   UNL     1       8.763  30.191  62.526  1.00  0.00     0.033 C 
HETATM   21  C   UNL     1       7.878  31.405  62.824  1.00  0.00     0.184 C 
HETATM   22  C   UNL     1       8.539  32.595  62.123  1.00  0.00     0.046 C 
BRANCH  21  23
HETATM   23  N   UNL     1       6.522  31.188  62.261  1.00  0.00    -0.075 N 
HETATM   24  H   UNL     1       5.871  30.763  62.933  1.00  0.00     0.274 HD
HETATM   25  H   UNL     1       6.100  32.060  61.920  1.00  0.00     0.274 HD
HETATM   26  H   UNL     1       6.563  30.556  61.432  1.00  0.00     0.274 HD
ENDBRANCH  21  23
ENDBRANCH  15  18
ENDBRANCH   1  14
TORSDOF 3
ENDMDL
MODEL 10
REMARK VINA RESULT:      -7.7      7.007     11.158
REMARK  3 active torsions:
REMARK  status: ('A' for Active; 'I' for Inactive)
REMARK    1  A    between atoms: N_1  and  C_5 
REMARK    2  A    between atoms: C_8  and  C_10 
REMARK       I    between atoms: C_10  and  N_12 
REMARK    3  A    between atoms: N_12  and  C_13 
ROOT
HETATM    1  C   UNL     1       7.677  31.229  60.853  1.00  0.00     0.057 A 
HETATM    2  C   UNL     1       6.673  32.194  60.706  1.00  0.00     0.043 A 
HETATM    3  C   UNL     1       6.403  33.102  61.743  1.00  0.00    -0.017 A 
HETATM    4  C   UNL     1       5.341  34.104  61.613  1.00  0.00     0.029 A 
HETATM    5  C   UNL     1       5.108  34.948  62.625  1.00  0.00     0.092 A 
HETATM    6  N   UNL     1       5.843  34.902  63.779  1.00  0.00    -0.333 N 
HETATM    7  C   UNL     1       6.864  34.008  64.018  1.00  0.00     0.256 A 
HETATM    8  O   UNL     1       7.499  34.002  65.064  1.00  0.00    -0.267 OA
HETATM    9  C   UNL     1       7.156  33.044  62.927  1.00  0.00     0.044 A 
HETATM   10  C   UNL     1       8.162  32.091  63.089  1.00  0.00     0.044 A 
HETATM   11  C   UNL     1       8.412  31.189  62.058  1.00  0.00     0.061 A 
HETATM   12 CL   UNL     1       9.664  30.013  62.285  1.00  0.00    -0.082 Cl
HETATM   13  H   UNL     1       5.648  35.552  64.533  1.00  0.00     0.168 HD
ENDROOT
BRANCH   1  14
HETATM   14  N   UNL     1       7.985  30.267  59.860  1.00  0.00    -0.325 N 
HETATM   15  C   UNL     1       8.575  30.460  58.635  1.00  0.00     0.226 C 
HETATM   16  O   UNL     1       9.057  31.506  58.200  1.00  0.00    -0.273 OA
HETATM   17  H   UNL     1       7.751  29.314  60.131  1.00  0.00     0.169 HD
BRANCH  15  18
HETATM   18  C   UNL     1       8.707  29.167  57.828  1.00  0.00     0.080 C 
HETATM   19  C   UNL     1       8.644  29.461  56.331  1.00  0.00     0.016 C 
HETATM   20  C   UNL     1       7.148  29.563  56.015  1.00  0.00     0.033 C 
HETATM   21  C   UNL     1       6.427  28.753  57.096  1.00  0.00     0.184 C 
HETATM   22  C   UNL     1       7.518  28.220  58.028  1.00  0.00     0.046 C 
BRANCH  21  23
HETATM   23  N   UNL     1       5.511  29.638  57.859  1.00  0.00    -0.075 N 
HETATM   24  H   UNL     1       5.274  29.268  58.788  1.00  0.00     0.274 HD
HETATM   25  H   UNL     1       5.899  30.581  57.983  1.00  0.00     0.274 HD
HETATM   26  H   UNL     1       4.613  29.771  57.344  1.00  0.00     0.274 HD
ENDBRANCH  21  23
ENDBRANCH  15  18
ENDBRANCH   1  14
TORSDOF 3
ENDMDL
