MODEL 1
REMARK VINA RESULT:      -8.7      0.000      0.000
REMARK  7 active torsions:
REMARK  status: ('A' for Active; 'I' for Inactive)
REMARK       I    between atoms: N_2  and  C_3 
REMARK    1  A    between atoms: N_2  and  C_17 
REMARK       I    between atoms: C_3  and  N_4 
REMARK    2  A    between atoms: N_4  and  C_5 
REMARK    3  A    between atoms: N_6  and  C_7 
REMARK    4  A    between atoms: C_17  and  C_18 
REMARK    5  A    between atoms: C_18  and  C_19 
REMARK    6  A    between atoms: C_19  and  O_20 
REMARK    7  A    between atoms: C_19  and  C_21 
ROOT
HETATM    1  C   UNL     1       4.781  28.321  55.291  1.00  0.00     0.154 C 
HETATM    2  N   UNL     1       5.906  27.893  56.110  1.00  0.00    -0.343 N 
HETATM    3  C   UNL     1       6.889  28.848  56.387  1.00  0.00     0.301 C 
HETATM    4  N   UNL     1       7.974  28.352  57.097  1.00  0.00    -0.194 NA
HETATM    5  O   UNL     1       6.787  30.009  55.994  1.00  0.00    -0.254 OA
HETATM    6  H   UNL     1       8.258  27.465  56.695  1.00  0.00     0.140 HD
ENDROOT
BRANCH   2   7
HETATM    7  C   UNL     1       5.726  26.668  56.889  1.00  0.00     0.129 C 
BRANCH   7   8
HETATM    8  C   UNL     1       5.757  25.376  56.059  1.00  0.00     0.056 C 
BRANCH   8   9
HETATM    9  C   UNL     1       6.985  24.474  56.269  1.00  0.00     0.152 C 
BRANCH   9  10
HETATM   10  O   UNL     1       8.131  25.314  56.441  1.00  0.00    -0.391 OA
HETATM   11  H   UNL     1       8.918  24.746  56.363  1.00  0.00     0.210 HD
ENDBRANCH   9  10
BRANCH   9  12
HETATM   12  C   UNL     1       7.312  23.415  55.233  1.00  0.00    -0.030 A 
HETATM   13  C   UNL     1       7.364  23.778  53.873  1.00  0.00     0.010 A 
HETATM   14  C   UNL     1       7.698  22.851  52.884  1.00  0.00     0.001 A 
HETATM   15  C   UNL     1       7.992  21.540  53.235  1.00  0.00     0.000 A 
HETATM   16  C   UNL     1       7.964  21.161  54.575  1.00  0.00     0.001 A 
HETATM   17  C   UNL     1       7.641  22.094  55.566  1.00  0.00     0.010 A 
ENDBRANCH   9  12
ENDBRANCH   8   9
ENDBRANCH   7   8
ENDBRANCH   2   7
BRANCH   4  18
HETATM   18  C   UNL     1       9.031  29.227  57.313  1.00  0.00     0.109 A 
HETATM   19  N   UNL     1       9.116  30.148  58.343  1.00  0.00    -0.254 N 
HETATM   20  N   UNL     1      10.237  30.907  58.245  1.00  0.00    -0.183 NA
HETATM   21  C   UNL     1      10.884  30.406  57.194  1.00  0.00     0.142 A 
HETATM   22  C   UNL     1      10.204  29.330  56.606  1.00  0.00     0.065 A 
BRANCH  19  23
HETATM   23  C   UNL     1       8.349  30.135  59.594  1.00  0.00     0.111 C 
HETATM   24  C   UNL     1       9.186  30.458  60.855  1.00  0.00     0.027 C 
HETATM   25  C   UNL     1       9.427  31.954  61.082  1.00  0.00     0.002 C 
HETATM   26  C   UNL     1       8.141  32.768  60.999  1.00  0.00     0.000 C 
HETATM   27  C   UNL     1       7.380  32.490  59.710  1.00  0.00     0.002 C 
HETATM   28  C   UNL     1       7.084  31.002  59.558  1.00  0.00     0.027 C 
ENDBRANCH  19  23
ENDBRANCH   4  18
TORSDOF 7
ENDMDL
MODEL 2
REMARK VINA RESULT:      -8.3      2.505      8.681
REMARK  7 active torsions:
REMARK  status: ('A' for Active; 'I' for Inactive)
REMARK       I    between atoms: N_2  and  C_3 
REMARK    1  A    between atoms: N_2  and  C_17 
REMARK       I    between atoms: C_3  and  N_4 
REMARK    2  A    between atoms: N_4  and  C_5 
REMARK    3  A    between atoms: N_6  and  C_7 
REMARK    4  A    between atoms: C_17  and  C_18 
REMARK    5  A    between atoms: C_18  and  C_19 
REMARK    6  A    between atoms: C_19  and  O_20 
REMARK    7  A    between atoms: C_19  and  C_21 
ROOT
HETATM    1  C   UNL     1      10.235  31.206  58.111  1.00  0.00     0.154 C 
HETATM    2  N   UNL     1       9.166  30.264  58.405  1.00  0.00    -0.343 N 
HETATM    3  C   UNL     1       9.118  29.098  57.635  1.00  0.00     0.301 C 
HETATM    4  N   UNL     1       8.026  28.285  57.906  1.00  0.00    -0.194 NA
HETATM    5  O   UNL     1       9.966  28.858  56.777  1.00  0.00    -0.254 OA
HETATM    6  H   UNL     1       7.192  28.859  57.971  1.00  0.00     0.140 HD
ENDROOT
BRANCH   2   7
HETATM    7  C   UNL     1       8.498  30.407  59.699  1.00  0.00     0.129 C 
BRANCH   7   8
HETATM    8  C   UNL     1       9.141  31.438  60.636  1.00  0.00     0.056 C 
BRANCH   8   9
HETATM    9  C   UNL     1       8.947  31.189  62.142  1.00  0.00     0.152 C 
BRANCH   9  10
HETATM   10  O   UNL     1       8.802  29.779  62.345  1.00  0.00    -0.391 OA
HETATM   11  H   UNL     1       8.795  29.361  61.467  1.00  0.00     0.210 HD
ENDBRANCH   9  10
BRANCH   9  12
HETATM   12  C   UNL     1       7.823  31.901  62.872  1.00  0.00    -0.030 A 
HETATM   13  C   UNL     1       6.489  31.568  62.568  1.00  0.00     0.010 A 
HETATM   14  C   UNL     1       5.419  32.165  63.238  1.00  0.00     0.001 A 
HETATM   15  C   UNL     1       5.662  33.107  64.230  1.00  0.00     0.000 A 
HETATM   16  C   UNL     1       6.974  33.439  64.559  1.00  0.00     0.001 A 
HETATM   17  C   UNL     1       8.044  32.831  63.896  1.00  0.00     0.010 A 
ENDBRANCH   9  12
ENDBRANCH   8   9
ENDBRANCH   7   8
ENDBRANCH   2   7
BRANCH   4  18
HETATM   18  C   UNL     1       7.867  27.164  57.103  1.00  0.00     0.109 A 
HETATM   19  N   UNL     1       7.187  27.126  55.898  1.00  0.00    -0.254 N 
HETATM   20  N   UNL     1       7.145  25.869  55.385  1.00  0.00    -0.183 NA
HETATM   21  C   UNL     1       7.864  25.141  56.238  1.00  0.00     0.142 A 
HETATM   22  C   UNL     1       8.377  25.903  57.297  1.00  0.00     0.065 A 
BRANCH  19  23
HETATM   23  C   UNL     1       6.845  28.273  55.050  1.00  0.00     0.111 C 
HETATM   24  C   UNL     1       6.684  27.927  53.550  1.00  0.00     0.027 C 
HETATM   25  C   UNL     1       5.322  27.325  53.188  1.00  0.00     0.002 C 
HETATM   26  C   UNL     1       4.160  28.145  53.737  1.00  0.00     0.000 C 
HETATM   27  C   UNL     1       4.306  28.399  55.231  1.00  0.00     0.002 C 
HETATM   28  C   UNL     1       5.635  29.076  55.545  1.00  0.00     0.027 C 
ENDBRANCH  19  23
ENDBRANCH   4  18
TORSDOF 7
ENDMDL
MODEL 3
REMARK VINA RESULT:      -8.3      1.467      2.208
REMARK  7 active torsions:
REMARK  status: ('A' for Active; 'I' for Inactive)
REMARK       I    between atoms: N_2  and  C_3 
REMARK    1  A    between atoms: N_2  and  C_17 
REMARK       I    between atoms: C_3  and  N_4 
REMARK    2  A    between atoms: N_4  and  C_5 
REMARK    3  A    between atoms: N_6  and  C_7 
REMARK    4  A    between atoms: C_17  and  C_18 
REMARK    5  A    between atoms: C_18  and  C_19 
REMARK    6  A    between atoms: C_19  and  O_20 
REMARK    7  A    between atoms: C_19  and  C_21 
ROOT
HETATM    1  C   UNL     1       6.427  25.362  56.973  1.00  0.00     0.154 C 
HETATM    2  N   UNL     1       6.929  26.507  56.227  1.00  0.00    -0.343 N 
HETATM    3  C   UNL     1       7.900  27.296  56.852  1.00  0.00     0.301 C 
HETATM    4  N   UNL     1       8.271  28.418  56.124  1.00  0.00    -0.194 NA
HETATM    5  O   UNL     1       8.342  27.011  57.964  1.00  0.00    -0.254 OA
HETATM    6  H   UNL     1       7.438  28.870  55.761  1.00  0.00     0.140 HD
ENDROOT
BRANCH   2   7
HETATM    7  C   UNL     1       6.691  26.509  54.784  1.00  0.00     0.129 C 
BRANCH   7   8
HETATM    8  C   UNL     1       7.628  25.594  53.983  1.00  0.00     0.056 C 
BRANCH   8   9
HETATM    9  C   UNL     1       6.974  24.357  53.345  1.00  0.00     0.152 C 
BRANCH   9  10
HETATM   10  O   UNL     1       5.561  24.436  53.565  1.00  0.00    -0.391 OA
HETATM   11  H   UNL     1       5.256  23.542  53.799  1.00  0.00     0.210 HD
ENDBRANCH   9  10
BRANCH   9  12
HETATM   12  C   UNL     1       7.450  22.974  53.750  1.00  0.00    -0.030 A 
HETATM   13  C   UNL     1       7.425  22.611  55.111  1.00  0.00     0.010 A 
HETATM   14  C   UNL     1       7.816  21.339  55.532  1.00  0.00     0.001 A 
HETATM   15  C   UNL     1       8.237  20.399  54.599  1.00  0.00     0.000 A 
HETATM   16  C   UNL     1       8.253  20.729  53.247  1.00  0.00     0.001 A 
HETATM   17  C   UNL     1       7.850  22.001  52.825  1.00  0.00     0.010 A 
ENDBRANCH   9  12
ENDBRANCH   8   9
ENDBRANCH   7   8
ENDBRANCH   2   7
BRANCH   4  18
HETATM   18  C   UNL     1       9.155  29.296  56.738  1.00  0.00     0.109 A 
HETATM   19  N   UNL     1       8.853  30.136  57.795  1.00  0.00    -0.254 N 
HETATM   20  N   UNL     1       9.908  30.924  58.127  1.00  0.00    -0.183 NA
HETATM   21  C   UNL     1      10.888  30.518  57.321  1.00  0.00     0.142 A 
HETATM   22  C   UNL     1      10.491  29.476  56.471  1.00  0.00     0.065 A 
BRANCH  19  23
HETATM   23  C   UNL     1       7.716  30.013  58.713  1.00  0.00     0.111 C 
HETATM   24  C   UNL     1       7.886  30.789  60.041  1.00  0.00     0.027 C 
HETATM   25  C   UNL     1       7.569  32.285  59.938  1.00  0.00     0.002 C 
HETATM   26  C   UNL     1       6.228  32.549  59.264  1.00  0.00     0.000 C 
HETATM   27  C   UNL     1       6.122  31.838  57.922  1.00  0.00     0.002 C 
HETATM   28  C   UNL     1       6.360  30.340  58.074  1.00  0.00     0.027 C 
ENDBRANCH  19  23
ENDBRANCH   4  18
TORSDOF 7
ENDMDL
MODEL 4
REMARK VINA RESULT:      -8.3      2.401      8.917
REMARK  7 active torsions:
REMARK  status: ('A' for Active; 'I' for Inactive)
REMARK       I    between atoms: N_2  and  C_3 
REMARK    1  A    between atoms: N_2  and  C_17 
REMARK       I    between atoms: C_3  and  N_4 
REMARK    2  A    between atoms: N_4  and  C_5 
REMARK    3  A    between atoms: N_6  and  C_7 
REMARK    4  A    between atoms: C_17  and  C_18 
REMARK    5  A    between atoms: C_18  and  C_19 
REMARK    6  A    between atoms: C_19  and  O_20 
REMARK    7  A    between atoms: C_19  and  C_21 
ROOT
HETATM    1  C   UNL     1      10.239  31.200  58.151  1.00  0.00     0.154 C 
HETATM    2  N   UNL     1       9.073  30.340  58.009  1.00  0.00    -0.343 N 
HETATM    3  C   UNL     1       9.023  29.522  56.875  1.00  0.00     0.301 C 
HETATM    4  N   UNL     1       7.847  28.793  56.756  1.00  0.00    -0.194 NA
HETATM    5  O   UNL     1       9.941  29.498  56.058  1.00  0.00    -0.254 OA
HETATM    6  H   UNL     1       7.058  29.400  56.953  1.00  0.00     0.140 HD
ENDROOT
BRANCH   2   7
HETATM    7  C   UNL     1       8.276  30.104  59.212  1.00  0.00     0.129 C 
BRANCH   7   8
HETATM    8  C   UNL     1       7.846  31.379  59.951  1.00  0.00     0.056 C 
BRANCH   8   9
HETATM    9  C   UNL     1       8.437  31.571  61.358  1.00  0.00     0.152 C 
BRANCH   9  10
HETATM   10  O   UNL     1       8.510  30.289  61.990  1.00  0.00    -0.391 OA
HETATM   11  H   UNL     1       9.077  30.386  62.775  1.00  0.00     0.210 HD
ENDBRANCH   9  10
BRANCH   9  12
HETATM   12  C   UNL     1       7.773  32.545  62.314  1.00  0.00    -0.030 A 
HETATM   13  C   UNL     1       6.784  33.420  61.824  1.00  0.00     0.010 A 
HETATM   14  C   UNL     1       6.115  34.308  62.669  1.00  0.00     0.001 A 
HETATM   15  C   UNL     1       6.419  34.336  64.025  1.00  0.00     0.000 A 
HETATM   16  C   UNL     1       7.380  33.468  64.534  1.00  0.00     0.001 A 
HETATM   17  C   UNL     1       8.041  32.571  63.689  1.00  0.00     0.010 A 
ENDBRANCH   9  12
ENDBRANCH   8   9
ENDBRANCH   7   8
ENDBRANCH   2   7
BRANCH   4  18
HETATM   18  C   UNL     1       7.694  28.041  55.598  1.00  0.00     0.109 A 
HETATM   19  N   UNL     1       7.504  26.671  55.547  1.00  0.00    -0.254 N 
HETATM   20  N   UNL     1       7.459  26.219  54.268  1.00  0.00    -0.183 NA
HETATM   21  C   UNL     1       7.549  27.321  53.525  1.00  0.00     0.142 A 
HETATM   22  C   UNL     1       7.647  28.486  54.299  1.00  0.00     0.065 A 
BRANCH  19  23
HETATM   23  C   UNL     1       7.048  25.810  56.644  1.00  0.00     0.111 C 
HETATM   24  C   UNL     1       6.319  24.526  56.180  1.00  0.00     0.027 C 
HETATM   25  C   UNL     1       7.257  23.392  55.753  1.00  0.00     0.002 C 
HETATM   26  C   UNL     1       8.344  23.117  56.787  1.00  0.00     0.000 C 
HETATM   27  C   UNL     1       9.097  24.386  57.162  1.00  0.00     0.002 C 
HETATM   28  C   UNL     1       8.142  25.464  57.662  1.00  0.00     0.027 C 
ENDBRANCH  19  23
ENDBRANCH   4  18
TORSDOF 7
ENDMDL
MODEL 5
REMARK VINA RESULT:      -8.0      5.400      8.773
REMARK  7 active torsions:
REMARK  status: ('A' for Active; 'I' for Inactive)
REMARK       I    between atoms: N_2  and  C_3 
REMARK    1  A    between atoms: N_2  and  C_17 
REMARK       I    between atoms: C_3  and  N_4 
REMARK    2  A    between atoms: N_4  and  C_5 
REMARK    3  A    between atoms: N_6  and  C_7 
REMARK    4  A    between atoms: C_17  and  C_18 
REMARK    5  A    between atoms: C_18  and  C_19 
REMARK    6  A    between atoms: C_19  and  O_20 
REMARK    7  A    between atoms: C_19  and  C_21 
ROOT
HETATM    1  C   UNL     1       5.061  27.028  54.197  1.00  0.00     0.154 C 
HETATM    2  N   UNL     1       5.569  26.893  52.839  1.00  0.00    -0.343 N 
HETATM    3  C   UNL     1       5.202  27.883  51.923  1.00  0.00     0.301 C 
HETATM    4  N   UNL     1       5.646  27.648  50.629  1.00  0.00    -0.194 NA
HETATM    5  O   UNL     1       4.519  28.849  52.259  1.00  0.00    -0.254 OA
HETATM    6  H   UNL     1       5.474  26.678  50.389  1.00  0.00     0.140 HD
ENDROOT
BRANCH   2   7
HETATM    7  C   UNL     1       6.707  25.994  52.648  1.00  0.00     0.129 C 
BRANCH   7   8
HETATM    8  C   UNL     1       6.394  24.510  52.886  1.00  0.00     0.056 C 
BRANCH   8   9
HETATM    9  C   UNL     1       6.915  23.918  54.206  1.00  0.00     0.152 C 
BRANCH   9  10
HETATM   10  O   UNL     1       7.830  24.855  54.785  1.00  0.00    -0.391 OA
HETATM   11  H   UNL     1       7.373  25.714  54.829  1.00  0.00     0.210 HD
ENDBRANCH   9  10
BRANCH   9  12
HETATM   12  C   UNL     1       7.566  22.548  54.198  1.00  0.00    -0.030 A 
HETATM   13  C   UNL     1       7.762  21.874  55.420  1.00  0.00     0.010 A 
HETATM   14  C   UNL     1       8.321  20.595  55.464  1.00  0.00     0.001 A 
HETATM   15  C   UNL     1       8.693  19.961  54.285  1.00  0.00     0.000 A 
HETATM   16  C   UNL     1       8.493  20.600  53.065  1.00  0.00     0.001 A 
HETATM   17  C   UNL     1       7.922  21.876  53.021  1.00  0.00     0.010 A 
ENDBRANCH   9  12
ENDBRANCH   8   9
ENDBRANCH   7   8
ENDBRANCH   2   7
BRANCH   4  18
HETATM   18  C   UNL     1       5.227  28.543  49.653  1.00  0.00     0.109 A 
HETATM   19  N   UNL     1       4.105  28.399  48.856  1.00  0.00    -0.254 N 
HETATM   20  N   UNL     1       4.001  29.404  47.949  1.00  0.00    -0.183 NA
HETATM   21  C   UNL     1       5.022  30.211  48.234  1.00  0.00     0.142 A 
HETATM   22  C   UNL     1       5.788  29.751  49.315  1.00  0.00     0.065 A 
BRANCH  19  23
HETATM   23  C   UNL     1       2.954  27.527  49.116  1.00  0.00     0.111 C 
HETATM   24  C   UNL     1       1.581  28.204  48.883  1.00  0.00     0.027 C 
HETATM   25  C   UNL     1       1.145  28.249  47.414  1.00  0.00     0.002 C 
HETATM   26  C   UNL     1       1.261  26.891  46.732  1.00  0.00     0.000 C 
HETATM   27  C   UNL     1       2.648  26.288  46.909  1.00  0.00     0.002 C 
HETATM   28  C   UNL     1       3.015  26.180  48.385  1.00  0.00     0.027 C 
ENDBRANCH  19  23
ENDBRANCH   4  18
TORSDOF 7
ENDMDL
MODEL 6
REMARK VINA RESULT:      -8.0      2.069      3.139
REMARK  7 active torsions:
REMARK  status: ('A' for Active; 'I' for Inactive)
REMARK       I    between atoms: N_2  and  C_3 
REMARK    1  A    between atoms: N_2  and  C_17 
REMARK       I    between atoms: C_3  and  N_4 
REMARK    2  A    between atoms: N_4  and  C_5 
REMARK    3  A    between atoms: N_6  and  C_7 
REMARK    4  A    between atoms: C_17  and  C_18 
REMARK    5  A    between atoms: C_18  and  C_19 
REMARK    6  A    between atoms: C_19  and  O_20 
REMARK    7  A    between atoms: C_19  and  C_21 
ROOT
HETATM    1  C   UNL     1       4.289  27.125  53.227  1.00  0.00     0.154 C 
HETATM    2  N   UNL     1       5.444  27.696  53.903  1.00  0.00    -0.343 N 
HETATM    3  C   UNL     1       5.191  28.629  54.913  1.00  0.00     0.301 C 
HETATM    4  N   UNL     1       6.335  29.199  55.456  1.00  0.00    -0.194 NA
HETATM    5  O   UNL     1       4.044  28.922  55.247  1.00  0.00    -0.254 OA
HETATM    6  H   UNL     1       6.967  29.455  54.706  1.00  0.00     0.140 HD
ENDROOT
BRANCH   2   7
HETATM    7  C   UNL     1       6.711  26.979  53.762  1.00  0.00     0.129 C 
BRANCH   7   8
HETATM    8  C   UNL     1       6.624  25.472  54.041  1.00  0.00     0.056 C 
BRANCH   8   9
HETATM    9  C   UNL     1       7.891  24.658  53.728  1.00  0.00     0.152 C 
BRANCH   9  10
HETATM   10  O   UNL     1       8.217  24.852  52.348  1.00  0.00    -0.391 OA
HETATM   11  H   UNL     1       8.768  24.099  52.073  1.00  0.00     0.210 HD
ENDBRANCH   9  10
BRANCH   9  12
HETATM   12  C   UNL     1       7.907  23.169  54.024  1.00  0.00    -0.030 A 
HETATM   13  C   UNL     1       7.887  22.257  52.951  1.00  0.00     0.010 A 
HETATM   14  C   UNL     1       7.940  20.878  53.167  1.00  0.00     0.001 A 
HETATM   15  C   UNL     1       8.018  20.383  54.463  1.00  0.00     0.000 A 
HETATM   16  C   UNL     1       8.056  21.266  55.538  1.00  0.00     0.001 A 
HETATM   17  C   UNL     1       8.015  22.647  55.320  1.00  0.00     0.010 A 
ENDBRANCH   9  12
ENDBRANCH   8   9
ENDBRANCH   7   8
ENDBRANCH   2   7
BRANCH   4  18
HETATM   18  C   UNL     1       6.146  30.207  56.392  1.00  0.00     0.109 A 
HETATM   19  N   UNL     1       6.661  30.221  57.676  1.00  0.00    -0.254 N 
HETATM   20  N   UNL     1       6.243  31.308  58.373  1.00  0.00    -0.183 NA
HETATM   21  C   UNL     1       5.526  32.007  57.494  1.00  0.00     0.142 A 
HETATM   22  C   UNL     1       5.474  31.395  56.234  1.00  0.00     0.065 A 
BRANCH  19  23
HETATM   23  C   UNL     1       7.783  29.419  58.178  1.00  0.00     0.111 C 
HETATM   24  C   UNL     1       8.669  28.804  57.066  1.00  0.00     0.027 C 
HETATM   25  C   UNL     1       9.698  29.774  56.476  1.00  0.00     0.002 C 
HETATM   26  C   UNL     1      10.506  30.489  57.552  1.00  0.00     0.000 C 
HETATM   27  C   UNL     1       9.606  31.153  58.586  1.00  0.00     0.002 C 
HETATM   28  C   UNL     1       8.653  30.142  59.213  1.00  0.00     0.027 C 
ENDBRANCH  19  23
ENDBRANCH   4  18
TORSDOF 7
ENDMDL
MODEL 7
REMARK VINA RESULT:      -7.9      2.149      3.591
REMARK  7 active torsions:
REMARK  status: ('A' for Active; 'I' for Inactive)
REMARK       I    between atoms: N_2  and  C_3 
REMARK    1  A    between atoms: N_2  and  C_17 
REMARK       I    between atoms: C_3  and  N_4 
REMARK    2  A    between atoms: N_4  and  C_5 
REMARK    3  A    between atoms: N_6  and  C_7 
REMARK    4  A    between atoms: C_17  and  C_18 
REMARK    5  A    between atoms: C_18  and  C_19 
REMARK    6  A    between atoms: C_19  and  O_20 
REMARK    7  A    between atoms: C_19  and  C_21 
ROOT
HETATM    1  C   UNL     1       3.814  27.998  52.918  1.00  0.00     0.154 C 
HETATM    2  N   UNL     1       5.096  27.387  53.234  1.00  0.00    -0.343 N 
HETATM    3  C   UNL     1       5.428  27.273  54.588  1.00  0.00     0.301 C 
HETATM    4  N   UNL     1       6.699  26.763  54.817  1.00  0.00    -0.194 NA
HETATM    5  O   UNL     1       4.654  27.633  55.473  1.00  0.00    -0.254 OA
HETATM    6  H   UNL     1       7.357  27.215  54.192  1.00  0.00     0.140 HD
ENDROOT
BRANCH   2   7
HETATM    7  C   UNL     1       5.730  26.600  52.177  1.00  0.00     0.129 C 
BRANCH   7   8
HETATM    8  C   UNL     1       5.847  25.100  52.482  1.00  0.00     0.056 C 
BRANCH   8   9
HETATM    9  C   UNL     1       7.273  24.573  52.718  1.00  0.00     0.152 C 
BRANCH   9  10
HETATM   10  O   UNL     1       7.944  24.521  51.454  1.00  0.00    -0.391 OA
HETATM   11  H   UNL     1       7.470  25.121  50.852  1.00  0.00     0.210 HD
ENDBRANCH   9  10
BRANCH   9  12
HETATM   12  C   UNL     1       7.464  23.242  53.422  1.00  0.00    -0.030 A 
HETATM   13  C   UNL     1       7.797  22.105  52.660  1.00  0.00     0.010 A 
HETATM   14  C   UNL     1       8.022  20.865  53.263  1.00  0.00     0.001 A 
HETATM   15  C   UNL     1       7.921  20.738  54.643  1.00  0.00     0.000 A 
HETATM   16  C   UNL     1       7.610  21.852  55.417  1.00  0.00     0.001 A 
HETATM   17  C   UNL     1       7.397  23.095  54.813  1.00  0.00     0.010 A 
ENDBRANCH   9  12
ENDBRANCH   8   9
ENDBRANCH   7   8
ENDBRANCH   2   7
BRANCH   4  18
HETATM   18  C   UNL     1       7.126  26.722  56.138  1.00  0.00     0.109 A 
HETATM   19  N   UNL     1       7.873  27.699  56.773  1.00  0.00    -0.254 N 
HETATM   20  N   UNL     1       8.195  27.338  58.042  1.00  0.00    -0.183 NA
HETATM   21  C   UNL     1       7.583  26.167  58.217  1.00  0.00     0.142 A 
HETATM   22  C   UNL     1       6.865  25.761  57.083  1.00  0.00     0.065 A 
BRANCH  19  23
HETATM   23  C   UNL     1       8.033  29.094  56.347  1.00  0.00     0.111 C 
HETATM   24  C   UNL     1       7.814  30.130  57.476  1.00  0.00     0.027 C 
HETATM   25  C   UNL     1       9.029  30.328  58.389  1.00  0.00     0.002 C 
HETATM   26  C   UNL     1      10.313  30.568  57.604  1.00  0.00     0.000 C 
HETATM   27  C   UNL     1      10.542  29.487  56.556  1.00  0.00     0.002 C 
HETATM   28  C   UNL     1       9.350  29.375  55.613  1.00  0.00     0.027 C 
ENDBRANCH  19  23
ENDBRANCH   4  18
TORSDOF 7
ENDMDL
MODEL 8
REMARK VINA RESULT:      -7.7      3.176      7.692
REMARK  7 active torsions:
REMARK  status: ('A' for Active; 'I' for Inactive)
REMARK       I    between atoms: N_2  and  C_3 
REMARK    1  A    between atoms: N_2  and  C_17 
REMARK       I    between atoms: C_3  and  N_4 
REMARK    2  A    between atoms: N_4  and  C_5 
REMARK    3  A    between atoms: N_6  and  C_7 
REMARK    4  A    between atoms: C_17  and  C_18 
REMARK    5  A    between atoms: C_18  and  C_19 
REMARK    6  A    between atoms: C_19  and  O_20 
REMARK    7  A    between atoms: C_19  and  C_21 
ROOT
HETATM    1  C   UNL     1       6.171  26.305  51.637  1.00  0.00     0.154 C 
HETATM    2  N   UNL     1       5.808  25.949  53.001  1.00  0.00    -0.343 N 
HETATM    3  C   UNL     1       6.839  25.511  53.838  1.00  0.00     0.301 C 
HETATM    4  N   UNL     1       6.412  25.105  55.095  1.00  0.00    -0.194 NA
HETATM    5  O   UNL     1       8.006  25.469  53.453  1.00  0.00    -0.254 OA
HETATM    6  H   UNL     1       5.587  24.523  54.995  1.00  0.00     0.140 HD
ENDROOT
BRANCH   2   7
HETATM    7  C   UNL     1       4.523  26.445  53.492  1.00  0.00     0.129 C 
BRANCH   7   8
HETATM    8  C   UNL     1       4.575  27.852  54.104  1.00  0.00     0.056 C 
BRANCH   8   9
HETATM    9  C   UNL     1       4.839  27.916  55.618  1.00  0.00     0.152 C 
BRANCH   9  10
HETATM   10  O   UNL     1       3.831  28.742  56.211  1.00  0.00    -0.391 OA
HETATM   11  H   UNL     1       4.102  29.667  56.079  1.00  0.00     0.210 HD
ENDBRANCH   9  10
BRANCH   9  12
HETATM   12  C   UNL     1       6.196  28.377  56.115  1.00  0.00    -0.030 A 
HETATM   13  C   UNL     1       6.440  28.423  57.501  1.00  0.00     0.010 A 
HETATM   14  C   UNL     1       7.684  28.802  58.010  1.00  0.00     0.001 A 
HETATM   15  C   UNL     1       8.714  29.140  57.140  1.00  0.00     0.000 A 
HETATM   16  C   UNL     1       8.502  29.085  55.765  1.00  0.00     0.001 A 
HETATM   17  C   UNL     1       7.258  28.694  55.257  1.00  0.00     0.010 A 
ENDBRANCH   9  12
ENDBRANCH   8   9
ENDBRANCH   7   8
ENDBRANCH   2   7
BRANCH   4  18
HETATM   18  C   UNL     1       7.375  24.562  55.936  1.00  0.00     0.109 A 
HETATM   19  N   UNL     1       7.596  23.212  56.143  1.00  0.00    -0.254 N 
HETATM   20  N   UNL     1       8.559  22.998  57.075  1.00  0.00    -0.183 NA
HETATM   21  C   UNL     1       8.986  24.219  57.394  1.00  0.00     0.142 A 
HETATM   22  C   UNL     1       8.320  25.226  56.681  1.00  0.00     0.065 A 
BRANCH  19  23
HETATM   23  C   UNL     1       7.162  22.112  55.274  1.00  0.00     0.111 C 
HETATM   24  C   UNL     1       7.789  22.137  53.858  1.00  0.00     0.027 C 
HETATM   25  C   UNL     1       9.207  21.560  53.790  1.00  0.00     0.002 C 
HETATM   26  C   UNL     1       9.311  20.195  54.461  1.00  0.00     0.000 C 
HETATM   27  C   UNL     1       8.761  20.221  55.881  1.00  0.00     0.002 C 
HETATM   28  C   UNL     1       7.321  20.722  55.902  1.00  0.00     0.027 C 
ENDBRANCH  19  23
ENDBRANCH   4  18
TORSDOF 7
ENDMDL
MODEL 9
REMARK VINA RESULT:      -7.6      2.022      8.869
REMARK  7 active torsions:
REMARK  status: ('A' for Active; 'I' for Inactive)
REMARK       I    between atoms: N_2  and  C_3 
REMARK    1  A    between atoms: N_2  and  C_17 
REMARK       I    between atoms: C_3  and  N_4 
REMARK    2  A    between atoms: N_4  and  C_5 
REMARK    3  A    between atoms: N_6  and  C_7 
REMARK    4  A    between atoms: C_17  and  C_18 
REMARK    5  A    between atoms: C_18  and  C_19 
REMARK    6  A    between atoms: C_19  and  O_20 
REMARK    7  A    between atoms: C_19  and  C_21 
ROOT
HETATM    1  C   UNL     1      10.020  29.768  56.896  1.00  0.00     0.154 C 
HETATM    2  N   UNL     1       8.587  29.538  57.001  1.00  0.00    -0.343 N 
HETATM    3  C   UNL     1       7.919  29.152  55.835  1.00  0.00     0.301 C 
HETATM    4  N   UNL     1       6.543  29.034  55.983  1.00  0.00    -0.194 NA
HETATM    5  O   UNL     1       8.521  28.973  54.778  1.00  0.00    -0.254 OA
HETATM    6  H   UNL     1       6.195  29.834  56.501  1.00  0.00     0.140 HD
ENDROOT
BRANCH   2   7
HETATM    7  C   UNL     1       8.048  29.336  58.346  1.00  0.00     0.129 C 
BRANCH   7   8
HETATM    8  C   UNL     1       8.738  30.165  59.439  1.00  0.00     0.056 C 
BRANCH   8   9
HETATM    9  C   UNL     1       8.289  31.632  59.553  1.00  0.00     0.152 C 
BRANCH   9  10
HETATM   10  O   UNL     1       9.373  32.464  59.125  1.00  0.00    -0.391 OA
HETATM   11  H   UNL     1       8.998  33.148  58.543  1.00  0.00     0.210 HD
ENDBRANCH   9  10
BRANCH   9  12
HETATM   12  C   UNL     1       7.778  32.149  60.884  1.00  0.00    -0.030 A 
HETATM   13  C   UNL     1       8.584  32.007  62.031  1.00  0.00     0.010 A 
HETATM   14  C   UNL     1       8.178  32.500  63.272  1.00  0.00     0.001 A 
HETATM   15  C   UNL     1       6.956  33.151  63.393  1.00  0.00     0.000 A 
HETATM   16  C   UNL     1       6.150  33.318  62.270  1.00  0.00     0.001 A 
HETATM   17  C   UNL     1       6.564  32.834  61.025  1.00  0.00     0.010 A 
ENDBRANCH   9  12
ENDBRANCH   8   9
ENDBRANCH   7   8
ENDBRANCH   2   7
BRANCH   4  18
HETATM   18  C   UNL     1       5.813  28.754  54.836  1.00  0.00     0.109 A 
HETATM   19  N   UNL     1       5.782  27.537  54.178  1.00  0.00    -0.254 N 
HETATM   20  N   UNL     1       5.032  27.597  53.047  1.00  0.00    -0.183 NA
HETATM   21  C   UNL     1       4.539  28.835  53.044  1.00  0.00     0.142 A 
HETATM   22  C   UNL     1       4.952  29.582  54.157  1.00  0.00     0.065 A 
BRANCH  19  23
HETATM   23  C   UNL     1       6.168  26.234  54.731  1.00  0.00     0.111 C 
HETATM   24  C   UNL     1       5.251  25.065  54.296  1.00  0.00     0.027 C 
HETATM   25  C   UNL     1       5.565  24.505  52.904  1.00  0.00     0.002 C 
HETATM   26  C   UNL     1       7.047  24.197  52.723  1.00  0.00     0.000 C 
HETATM   27  C   UNL     1       7.919  25.393  53.080  1.00  0.00     0.002 C 
HETATM   28  C   UNL     1       7.640  25.871  54.501  1.00  0.00     0.027 C 
ENDBRANCH  19  23
ENDBRANCH   4  18
TORSDOF 7
ENDMDL
MODEL 10
REMARK VINA RESULT:      -7.6      3.074      4.826
REMARK  7 active torsions:
REMARK  status: ('A' for Active; 'I' for Inactive)
REMARK       I    between atoms: N_2  and  C_3 
REMARK    1  A    between atoms: N_2  and  C_17 
REMARK       I    between atoms: C_3  and  N_4 
REMARK    2  A    between atoms: N_4  and  C_5 
REMARK    3  A    between atoms: N_6  and  C_7 
REMARK    4  A    between atoms: C_17  and  C_18 
REMARK    5  A    between atoms: C_18  and  C_19 
REMARK    6  A    between atoms: C_19  and  O_20 
REMARK    7  A    between atoms: C_19  and  C_21 
ROOT
HETATM    1  C   UNL     1      10.017  30.750  57.846  1.00  0.00     0.154 C 
HETATM    2  N   UNL     1       8.957  30.409  58.783  1.00  0.00    -0.343 N 
HETATM    3  C   UNL     1       8.667  31.343  59.781  1.00  0.00     0.301 C 
HETATM    4  N   UNL     1       7.709  30.919  60.692  1.00  0.00    -0.194 NA
HETATM    5  O   UNL     1       9.250  32.424  59.840  1.00  0.00    -0.254 OA
HETATM    6  H   UNL     1       7.909  29.963  60.965  1.00  0.00     0.140 HD
ENDROOT
BRANCH   2   7
HETATM    7  C   UNL     1       8.038  29.344  58.379  1.00  0.00     0.129 C 
BRANCH   7   8
HETATM    8  C   UNL     1       8.613  28.364  57.347  1.00  0.00     0.056 C 
BRANCH   8   9
HETATM    9  C   UNL     1       7.581  27.550  56.548  1.00  0.00     0.152 C 
BRANCH   9  10
HETATM   10  O   UNL     1       6.279  27.864  57.051  1.00  0.00    -0.391 OA
HETATM   11  H   UNL     1       6.392  28.190  57.961  1.00  0.00     0.210 HD
ENDBRANCH   9  10
BRANCH   9  12
HETATM   12  C   UNL     1       7.722  26.041  56.478  1.00  0.00    -0.030 A 
HETATM   13  C   UNL     1       7.065  25.337  55.449  1.00  0.00     0.010 A 
HETATM   14  C   UNL     1       7.194  23.953  55.316  1.00  0.00     0.001 A 
HETATM   15  C   UNL     1       7.987  23.243  56.209  1.00  0.00     0.000 A 
HETATM   16  C   UNL     1       8.660  23.918  57.223  1.00  0.00     0.001 A 
HETATM   17  C   UNL     1       8.540  25.307  57.347  1.00  0.00     0.010 A 
ENDBRANCH   9  12
ENDBRANCH   8   9
ENDBRANCH   7   8
ENDBRANCH   2   7
BRANCH   4  18
HETATM   18  C   UNL     1       7.452  31.761  61.766  1.00  0.00     0.109 A 
HETATM   19  N   UNL     1       6.355  32.595  61.892  1.00  0.00    -0.254 N 
HETATM   20  N   UNL     1       6.422  33.346  63.021  1.00  0.00    -0.183 NA
HETATM   21  C   UNL     1       7.528  32.923  63.632  1.00  0.00     0.142 A 
HETATM   22  C   UNL     1       8.181  31.906  62.922  1.00  0.00     0.065 A 
BRANCH  19  23
HETATM   23  C   UNL     1       5.089  32.490  61.158  1.00  0.00     0.111 C 
HETATM   24  C   UNL     1       3.846  32.300  62.061  1.00  0.00     0.027 C 
HETATM   25  C   UNL     1       3.316  33.599  62.681  1.00  0.00     0.002 C 
HETATM   26  C   UNL     1       3.135  34.704  61.646  1.00  0.00     0.000 C 
HETATM   27  C   UNL     1       4.401  34.923  60.829  1.00  0.00     0.002 C 
HETATM   28  C   UNL     1       4.852  33.630  60.159  1.00  0.00     0.027 C 
ENDBRANCH  19  23
ENDBRANCH   4  18
TORSDOF 7
ENDMDL
