MODEL 1
REMARK VINA RESULT:     -10.7      0.000      0.000
REMARK  5 active torsions:
REMARK  status: ('A' for Active; 'I' for Inactive)
REMARK    1  A    between atoms: C_5  and  C_6 
REMARK    2  A    between atoms: C_11  and  C_12 
REMARK       I    between atoms: C_12  and  N_13 
REMARK    3  A    between atoms: N_13  and  C_14 
REMARK    4  A    between atoms: C_16  and  O_17 
REMARK    5  A    between atoms: C_23  and  C_24 
ROOT
HETATM    1  C   UNL     1       6.360  25.224  54.625  1.00  0.00     0.118 C 
HETATM    2  N   UNL     1       6.650  25.630  56.000  1.00  0.00    -0.366 N 
HETATM    3  C   UNL     1       7.030  26.882  56.324  1.00  0.00     0.123 A 
HETATM    4  N   UNL     1       7.004  27.890  55.405  1.00  0.00    -0.240 N 
HETATM    5  N   UNL     1       7.561  29.038  55.830  1.00  0.00    -0.165 NA
HETATM    6  C   UNL     1       7.834  28.782  57.133  1.00  0.00     0.148 A 
HETATM    7  C   UNL     1       7.497  27.444  57.481  1.00  0.00     0.089 A 
HETATM    8  C   UNL     1       6.537  27.709  54.045  1.00  0.00     0.221 C 
HETATM    9  C   UNL     1       6.847  26.272  53.601  1.00  0.00     0.066 C 
HETATM   10  H   UNL     1       6.658  24.876  56.687  1.00  0.00     0.161 HD
ENDROOT
BRANCH   6  11
HETATM   11  C   UNL     1       8.442  29.794  58.017  1.00  0.00     0.276 C 
HETATM   12  N   UNL     1       7.703  29.976  59.169  1.00  0.00    -0.322 N 
HETATM   13  H   UNL     1       6.864  29.401  59.204  1.00  0.00     0.169 HD
HETATM   14  O   UNL     1       9.466  30.390  57.701  1.00  0.00    -0.266 OA
BRANCH  12  15
HETATM   15  C   UNL     1       7.952  30.852  60.239  1.00  0.00     0.037 A 
HETATM   16  C   UNL     1       7.138  31.942  60.553  1.00  0.00     0.066 A 
HETATM   17  C   UNL     1       7.468  32.764  61.630  1.00  0.00     0.067 A 
HETATM   18  C   UNL     1       8.593  32.514  62.406  1.00  0.00     0.036 A 
HETATM   19  C   UNL     1       9.408  31.427  62.100  1.00  0.00     0.005 A 
HETATM   20  C   UNL     1       9.091  30.602  61.017  1.00  0.00     0.029 A 
BRANCH  17  21
HETATM   21  O   UNL     1       6.702  33.846  61.955  1.00  0.00    -0.361 OA
HETATM   22  H   UNL     1       6.302  33.686  62.826  1.00  0.00     0.217 HD
ENDBRANCH  17  21
ENDBRANCH  12  15
ENDBRANCH   6  11
BRANCH   8  23
HETATM   23  C   UNL     1       5.066  28.047  53.955  1.00  0.00     0.409 C 
HETATM   24  F   UNL     1       4.442  27.947  55.148  1.00  0.00    -0.169 F 
HETATM   25  F   UNL     1       4.919  29.336  53.550  1.00  0.00    -0.169 F 
HETATM   26  F   UNL     1       4.390  27.287  53.069  1.00  0.00    -0.169 F 
ENDBRANCH   8  23
BRANCH   1  27
HETATM   27  C   UNL     1       7.009  23.876  54.365  1.00  0.00    -0.035 A 
HETATM   28  C   UNL     1       7.292  23.002  55.424  1.00  0.00     0.010 A 
HETATM   29  C   UNL     1       7.885  21.759  55.180  1.00  0.00     0.007 A 
HETATM   30  C   UNL     1       8.215  21.368  53.878  1.00  0.00    -0.062 A 
HETATM   31  C   UNL     1       8.821  20.023  53.608  1.00  0.00     0.048 C 
HETATM   32  C   UNL     1       7.924  22.231  52.817  1.00  0.00     0.007 A 
HETATM   33  C   UNL     1       7.336  23.472  53.059  1.00  0.00     0.010 A 
ENDBRANCH   1  27
TORSDOF 5
ENDMDL
MODEL 2
REMARK VINA RESULT:     -10.2      7.414     13.413
REMARK  5 active torsions:
REMARK  status: ('A' for Active; 'I' for Inactive)
REMARK    1  A    between atoms: C_5  and  C_6 
REMARK    2  A    between atoms: C_11  and  C_12 
REMARK       I    between atoms: C_12  and  N_13 
REMARK    3  A    between atoms: N_13  and  C_14 
REMARK    4  A    between atoms: C_16  and  O_17 
REMARK    5  A    between atoms: C_23  and  C_24 
ROOT
HETATM    1  C   UNL     1       6.127  34.589  68.155  1.00  0.00     0.118 C 
HETATM    2  N   UNL     1       7.038  34.332  67.040  1.00  0.00    -0.366 N 
HETATM    3  C   UNL     1       6.615  33.876  65.844  1.00  0.00     0.123 A 
HETATM    4  N   UNL     1       5.284  33.787  65.552  1.00  0.00    -0.240 N 
HETATM    5  N   UNL     1       5.017  33.167  64.388  1.00  0.00    -0.165 NA
HETATM    6  C   UNL     1       6.248  32.973  63.853  1.00  0.00     0.148 A 
HETATM    7  C   UNL     1       7.272  33.423  64.733  1.00  0.00     0.089 A 
HETATM    8  C   UNL     1       4.242  34.204  66.469  1.00  0.00     0.221 C 
HETATM    9  C   UNL     1       4.729  33.981  67.908  1.00  0.00     0.066 C 
HETATM   10  H   UNL     1       8.031  34.411  67.259  1.00  0.00     0.161 HD
ENDROOT
BRANCH   6  11
HETATM   11  C   UNL     1       6.435  32.334  62.538  1.00  0.00     0.276 C 
HETATM   12  N   UNL     1       7.770  32.274  62.185  1.00  0.00    -0.322 N 
HETATM   13  H   UNL     1       8.388  32.693  62.877  1.00  0.00     0.169 HD
HETATM   14  O   UNL     1       5.483  31.946  61.871  1.00  0.00    -0.266 OA
BRANCH  12  15
HETATM   15  C   UNL     1       8.342  31.750  61.016  1.00  0.00     0.037 A 
HETATM   16  C   UNL     1       7.907  30.574  60.399  1.00  0.00     0.066 A 
HETATM   17  C   UNL     1       8.543  30.124  59.242  1.00  0.00     0.067 A 
HETATM   18  C   UNL     1       9.601  30.829  58.683  1.00  0.00     0.036 A 
HETATM   19  C   UNL     1      10.038  32.003  59.290  1.00  0.00     0.005 A 
HETATM   20  C   UNL     1       9.414  32.459  60.455  1.00  0.00     0.029 A 
BRANCH  17  21
HETATM   21  O   UNL     1       8.151  28.972  58.624  1.00  0.00    -0.361 OA
HETATM   22  H   UNL     1       8.795  28.766  57.925  1.00  0.00     0.217 HD
ENDBRANCH  17  21
ENDBRANCH  12  15
ENDBRANCH   6  11
BRANCH   8  23
HETATM   23  C   UNL     1       3.858  35.640  66.195  1.00  0.00     0.409 C 
HETATM   24  F   UNL     1       3.511  35.843  64.905  1.00  0.00    -0.169 F 
HETATM   25  F   UNL     1       2.773  35.972  66.942  1.00  0.00    -0.169 F 
HETATM   26  F   UNL     1       4.825  36.527  66.507  1.00  0.00    -0.169 F 
ENDBRANCH   8  23
BRANCH   1  27
HETATM   27  C   UNL     1       6.739  34.028  69.427  1.00  0.00    -0.035 A 
HETATM   28  C   UNL     1       7.916  34.577  69.955  1.00  0.00     0.010 A 
HETATM   29  C   UNL     1       8.475  34.062  71.130  1.00  0.00     0.007 A 
HETATM   30  C   UNL     1       7.875  32.987  71.795  1.00  0.00    -0.062 A 
HETATM   31  C   UNL     1       8.451  32.452  73.072  1.00  0.00     0.048 C 
HETATM   32  C   UNL     1       6.694  32.444  71.278  1.00  0.00     0.007 A 
HETATM   33  C   UNL     1       6.138  32.953  70.105  1.00  0.00     0.010 A 
ENDBRANCH   1  27
TORSDOF 5
ENDMDL
MODEL 3
REMARK VINA RESULT:     -10.1      3.314      4.504
REMARK  5 active torsions:
REMARK  status: ('A' for Active; 'I' for Inactive)
REMARK    1  A    between atoms: C_5  and  C_6 
REMARK    2  A    between atoms: C_11  and  C_12 
REMARK       I    between atoms: C_12  and  N_13 
REMARK    3  A    between atoms: N_13  and  C_14 
REMARK    4  A    between atoms: C_16  and  O_17 
REMARK    5  A    between atoms: C_23  and  C_24 
ROOT
HETATM    1  C   UNL     1       7.875  28.643  55.346  1.00  0.00     0.118 C 
HETATM    2  N   UNL     1       6.987  29.729  55.758  1.00  0.00    -0.366 N 
HETATM    3  C   UNL     1       7.070  30.318  56.968  1.00  0.00     0.123 A 
HETATM    4  N   UNL     1       8.102  30.046  57.818  1.00  0.00    -0.240 N 
HETATM    5  N   UNL     1       7.964  30.584  59.043  1.00  0.00    -0.165 NA
HETATM    6  C   UNL     1       6.850  31.347  58.919  1.00  0.00     0.148 A 
HETATM    7  C   UNL     1       6.274  31.217  57.624  1.00  0.00     0.089 A 
HETATM    8  C   UNL     1       9.191  29.150  57.480  1.00  0.00     0.221 C 
HETATM    9  C   UNL     1       8.662  28.058  56.540  1.00  0.00     0.066 C 
HETATM   10  H   UNL     1       6.223  29.938  55.116  1.00  0.00     0.161 HD
ENDROOT
BRANCH   6  11
HETATM   11  C   UNL     1       6.329  32.155  60.037  1.00  0.00     0.276 C 
HETATM   12  N   UNL     1       6.944  31.832  61.230  1.00  0.00    -0.322 N 
HETATM   13  H   UNL     1       7.632  31.087  61.140  1.00  0.00     0.169 HD
HETATM   14  O   UNL     1       5.437  32.980  59.871  1.00  0.00    -0.266 OA
BRANCH  12  15
HETATM   15  C   UNL     1       6.715  32.371  62.506  1.00  0.00     0.037 A 
HETATM   16  C   UNL     1       5.443  32.557  63.053  1.00  0.00     0.066 A 
HETATM   17  C   UNL     1       5.311  33.109  64.326  1.00  0.00     0.067 A 
HETATM   18  C   UNL     1       6.426  33.473  65.071  1.00  0.00     0.036 A 
HETATM   19  C   UNL     1       7.698  33.289  64.533  1.00  0.00     0.005 A 
HETATM   20  C   UNL     1       7.841  32.745  63.254  1.00  0.00     0.029 A 
BRANCH  17  21
HETATM   21  O   UNL     1       4.082  33.316  64.883  1.00  0.00    -0.361 OA
HETATM   22  H   UNL     1       4.069  34.206  65.271  1.00  0.00     0.217 HD
ENDBRANCH  17  21
ENDBRANCH  12  15
ENDBRANCH   6  11
BRANCH   8  23
HETATM   23  C   UNL     1      10.338  29.934  56.883  1.00  0.00     0.409 C 
HETATM   24  F   UNL     1      10.427  31.182  57.392  1.00  0.00    -0.169 F 
HETATM   25  F   UNL     1      11.512  29.315  57.171  1.00  0.00    -0.169 F 
HETATM   26  F   UNL     1      10.279  30.039  55.539  1.00  0.00    -0.169 F 
ENDBRANCH   8  23
BRANCH   1  27
HETATM   27  C   UNL     1       7.048  27.564  54.667  1.00  0.00    -0.035 A 
HETATM   28  C   UNL     1       6.536  26.487  55.404  1.00  0.00     0.010 A 
HETATM   29  C   UNL     1       5.770  25.498  54.777  1.00  0.00     0.007 A 
HETATM   30  C   UNL     1       5.508  25.561  53.404  1.00  0.00    -0.062 A 
HETATM   31  C   UNL     1       4.660  24.521  52.734  1.00  0.00     0.048 C 
HETATM   32  C   UNL     1       6.007  26.640  52.667  1.00  0.00     0.007 A 
HETATM   33  C   UNL     1       6.774  27.624  53.290  1.00  0.00     0.010 A 
ENDBRANCH   1  27
TORSDOF 5
ENDMDL
MODEL 4
REMARK VINA RESULT:     -10.0      3.100      8.855
REMARK  5 active torsions:
REMARK  status: ('A' for Active; 'I' for Inactive)
REMARK    1  A    between atoms: C_5  and  C_6 
REMARK    2  A    between atoms: C_11  and  C_12 
REMARK       I    between atoms: C_12  and  N_13 
REMARK    3  A    between atoms: N_13  and  C_14 
REMARK    4  A    between atoms: C_16  and  O_17 
REMARK    5  A    between atoms: C_23  and  C_24 
ROOT
HETATM    1  C   UNL     1       6.420  30.190  56.983  1.00  0.00     0.118 C 
HETATM    2  N   UNL     1       7.280  29.229  56.294  1.00  0.00    -0.366 N 
HETATM    3  C   UNL     1       6.815  28.074  55.778  1.00  0.00     0.123 A 
HETATM    4  N   UNL     1       5.476  27.812  55.723  1.00  0.00    -0.240 N 
HETATM    5  N   UNL     1       5.175  26.561  55.333  1.00  0.00    -0.165 NA
HETATM    6  C   UNL     1       6.383  26.046  54.995  1.00  0.00     0.148 A 
HETATM    7  C   UNL     1       7.431  26.975  55.246  1.00  0.00     0.089 A 
HETATM    8  C   UNL     1       4.467  28.753  56.169  1.00  0.00     0.221 C 
HETATM    9  C   UNL     1       5.040  29.586  57.324  1.00  0.00     0.066 C 
HETATM   10  H   UNL     1       8.279  29.433  56.327  1.00  0.00     0.161 HD
ENDROOT
BRANCH   6  11
HETATM   11  C   UNL     1       6.528  24.673  54.478  1.00  0.00     0.276 C 
HETATM   12  N   UNL     1       7.412  23.932  55.238  1.00  0.00    -0.322 N 
HETATM   13  H   UNL     1       7.821  24.459  56.007  1.00  0.00     0.169 HD
HETATM   14  O   UNL     1       5.933  24.299  53.473  1.00  0.00    -0.266 OA
BRANCH  12  15
HETATM   15  C   UNL     1       7.815  22.599  55.059  1.00  0.00     0.037 A 
HETATM   16  C   UNL     1       7.833  21.954  53.820  1.00  0.00     0.066 A 
HETATM   17  C   UNL     1       8.241  20.623  53.738  1.00  0.00     0.067 A 
HETATM   18  C   UNL     1       8.641  19.923  54.870  1.00  0.00     0.036 A 
HETATM   19  C   UNL     1       8.629  20.561  56.108  1.00  0.00     0.005 A 
HETATM   20  C   UNL     1       8.213  21.892  56.202  1.00  0.00     0.029 A 
BRANCH  17  21
HETATM   21  O   UNL     1       8.256  19.960  52.545  1.00  0.00    -0.361 OA
HETATM   22  H   UNL     1       8.996  20.301  52.015  1.00  0.00     0.217 HD
ENDBRANCH  17  21
ENDBRANCH  12  15
ENDBRANCH   6  11
BRANCH   8  23
HETATM   23  C   UNL     1       4.003  29.602  55.007  1.00  0.00     0.409 C 
HETATM   24  F   UNL     1       5.032  30.186  54.355  1.00  0.00    -0.169 F 
HETATM   25  F   UNL     1       3.366  28.819  54.097  1.00  0.00    -0.169 F 
HETATM   26  F   UNL     1       3.133  30.570  55.358  1.00  0.00    -0.169 F 
ENDBRANCH   8  23
BRANCH   1  27
HETATM   27  C   UNL     1       7.125  30.663  58.243  1.00  0.00    -0.035 A 
HETATM   28  C   UNL     1       6.616  31.737  58.986  1.00  0.00     0.010 A 
HETATM   29  C   UNL     1       7.265  32.168  60.148  1.00  0.00     0.007 A 
HETATM   30  C   UNL     1       8.436  31.541  60.586  1.00  0.00    -0.062 A 
HETATM   31  C   UNL     1       9.117  31.977  61.849  1.00  0.00     0.048 C 
HETATM   32  C   UNL     1       8.942  30.462  59.854  1.00  0.00     0.007 A 
HETATM   33  C   UNL     1       8.298  30.034  58.693  1.00  0.00     0.010 A 
ENDBRANCH   1  27
TORSDOF 5
ENDMDL
MODEL 5
REMARK VINA RESULT:      -9.8      0.940      1.428
REMARK  5 active torsions:
REMARK  status: ('A' for Active; 'I' for Inactive)
REMARK    1  A    between atoms: C_5  and  C_6 
REMARK    2  A    between atoms: C_11  and  C_12 
REMARK       I    between atoms: C_12  and  N_13 
REMARK    3  A    between atoms: N_13  and  C_14 
REMARK    4  A    between atoms: C_16  and  O_17 
REMARK    5  A    between atoms: C_23  and  C_24 
ROOT
HETATM    1  C   UNL     1       6.635  25.470  54.327  1.00  0.00     0.118 C 
HETATM    2  N   UNL     1       6.515  25.888  55.724  1.00  0.00    -0.366 N 
HETATM    3  C   UNL     1       6.909  27.102  56.156  1.00  0.00     0.123 A 
HETATM    4  N   UNL     1       7.289  28.077  55.279  1.00  0.00    -0.240 N 
HETATM    5  N   UNL     1       7.804  29.173  55.864  1.00  0.00    -0.165 NA
HETATM    6  C   UNL     1       7.618  28.933  57.185  1.00  0.00     0.148 A 
HETATM    7  C   UNL     1       7.042  27.650  57.403  1.00  0.00     0.089 A 
HETATM    8  C   UNL     1       7.262  27.902  53.841  1.00  0.00     0.221 C 
HETATM    9  C   UNL     1       7.535  26.426  53.515  1.00  0.00     0.066 C 
HETATM   10  H   UNL     1       6.221  25.160  56.374  1.00  0.00     0.161 HD
ENDROOT
BRANCH   6  11
HETATM   11  C   UNL     1       8.021  29.903  58.219  1.00  0.00     0.276 C 
HETATM   12  N   UNL     1       6.927  30.453  58.858  1.00  0.00    -0.322 N 
HETATM   13  H   UNL     1       6.038  30.112  58.499  1.00  0.00     0.169 HD
HETATM   14  O   UNL     1       9.200  30.171  58.423  1.00  0.00    -0.266 OA
BRANCH  12  15
HETATM   15  C   UNL     1       6.903  31.411  59.884  1.00  0.00     0.037 A 
HETATM   16  C   UNL     1       7.807  31.429  60.949  1.00  0.00     0.066 A 
HETATM   17  C   UNL     1       7.702  32.416  61.929  1.00  0.00     0.067 A 
HETATM   18  C   UNL     1       6.716  33.393  61.862  1.00  0.00     0.036 A 
HETATM   19  C   UNL     1       5.814  33.383  60.801  1.00  0.00     0.005 A 
HETATM   20  C   UNL     1       5.905  32.393  59.819  1.00  0.00     0.029 A 
BRANCH  17  21
HETATM   21  O   UNL     1       8.559  32.452  62.990  1.00  0.00    -0.361 OA
HETATM   22  H   UNL     1       8.373  31.688  63.561  1.00  0.00     0.217 HD
ENDBRANCH  17  21
ENDBRANCH  12  15
ENDBRANCH   6  11
BRANCH   8  23
HETATM   23  C   UNL     1       5.943  28.390  53.285  1.00  0.00     0.409 C 
HETATM   24  F   UNL     1       5.368  29.324  54.075  1.00  0.00    -0.169 F 
HETATM   25  F   UNL     1       6.147  28.980  52.078  1.00  0.00    -0.169 F 
HETATM   26  F   UNL     1       5.043  27.406  53.085  1.00  0.00    -0.169 F 
ENDBRANCH   8  23
BRANCH   1  27
HETATM   27  C   UNL     1       7.180  24.053  54.284  1.00  0.00    -0.035 A 
HETATM   28  C   UNL     1       7.334  23.311  55.464  1.00  0.00     0.010 A 
HETATM   29  C   UNL     1       7.831  22.004  55.421  1.00  0.00     0.007 A 
HETATM   30  C   UNL     1       8.191  21.417  54.203  1.00  0.00    -0.062 A 
HETATM   31  C   UNL     1       8.694  20.005  54.148  1.00  0.00     0.048 C 
HETATM   32  C   UNL     1       8.029  22.148  53.023  1.00  0.00     0.007 A 
HETATM   33  C   UNL     1       7.537  23.453  53.064  1.00  0.00     0.010 A 
ENDBRANCH   1  27
TORSDOF 5
ENDMDL
MODEL 6
REMARK VINA RESULT:      -9.7      3.145      4.934
REMARK  5 active torsions:
REMARK  status: ('A' for Active; 'I' for Inactive)
REMARK    1  A    between atoms: C_5  and  C_6 
REMARK    2  A    between atoms: C_11  and  C_12 
REMARK       I    between atoms: C_12  and  N_13 
REMARK    3  A    between atoms: N_13  and  C_14 
REMARK    4  A    between atoms: C_16  and  O_17 
REMARK    5  A    between atoms: C_23  and  C_24 
ROOT
HETATM    1  C   UNL     1       5.939  25.969  51.808  1.00  0.00     0.118 C 
HETATM    2  N   UNL     1       6.705  27.022  52.475  1.00  0.00    -0.366 N 
HETATM    3  C   UNL     1       6.911  27.039  53.807  1.00  0.00     0.123 A 
HETATM    4  N   UNL     1       6.557  25.980  54.592  1.00  0.00    -0.240 N 
HETATM    5  N   UNL     1       6.677  26.208  55.912  1.00  0.00    -0.165 NA
HETATM    6  C   UNL     1       7.264  27.429  55.960  1.00  0.00     0.148 A 
HETATM    7  C   UNL     1       7.441  27.972  54.657  1.00  0.00     0.089 A 
HETATM    8  C   UNL     1       5.980  24.761  54.062  1.00  0.00     0.221 C 
HETATM    9  C   UNL     1       5.151  25.104  52.816  1.00  0.00     0.066 C 
HETATM   10  H   UNL     1       6.977  27.807  51.884  1.00  0.00     0.161 HD
ENDROOT
BRANCH   6  11
HETATM   11  C   UNL     1       7.613  28.077  57.238  1.00  0.00     0.276 C 
HETATM   12  N   UNL     1       7.720  29.448  57.103  1.00  0.00    -0.322 N 
HETATM   13  H   UNL     1       7.559  29.772  56.151  1.00  0.00     0.169 HD
HETATM   14  O   UNL     1       7.800  27.425  58.259  1.00  0.00    -0.266 OA
BRANCH  12  15
HETATM   15  C   UNL     1       8.042  30.401  58.082  1.00  0.00     0.037 A 
HETATM   16  C   UNL     1       7.089  31.083  58.843  1.00  0.00     0.066 A 
HETATM   17  C   UNL     1       7.502  32.021  59.789  1.00  0.00     0.067 A 
HETATM   18  C   UNL     1       8.849  32.286  59.997  1.00  0.00     0.036 A 
HETATM   19  C   UNL     1       9.805  31.608  59.244  1.00  0.00     0.005 A 
HETATM   20  C   UNL     1       9.402  30.673  58.287  1.00  0.00     0.029 A 
BRANCH  17  21
HETATM   21  O   UNL     1       6.596  32.714  60.538  1.00  0.00    -0.361 OA
HETATM   22  H   UNL     1       6.303  33.487  60.026  1.00  0.00     0.217 HD
ENDBRANCH  17  21
ENDBRANCH  12  15
ENDBRANCH   6  11
BRANCH   8  23
HETATM   23  C   UNL     1       7.071  23.752  53.781  1.00  0.00     0.409 C 
HETATM   24  F   UNL     1       8.289  24.327  53.683  1.00  0.00    -0.169 F 
HETATM   25  F   UNL     1       7.147  22.865  54.808  1.00  0.00    -0.169 F 
HETATM   26  F   UNL     1       6.864  23.028  52.663  1.00  0.00    -0.169 F 
ENDBRANCH   8  23
BRANCH   1  27
HETATM   27  C   UNL     1       5.000  26.610  50.801  1.00  0.00    -0.035 A 
HETATM   28  C   UNL     1       4.506  27.905  51.008  1.00  0.00     0.010 A 
HETATM   29  C   UNL     1       3.645  28.495  50.075  1.00  0.00     0.007 A 
HETATM   30  C   UNL     1       3.256  27.800  48.925  1.00  0.00    -0.062 A 
HETATM   31  C   UNL     1       2.360  28.440  47.906  1.00  0.00     0.048 C 
HETATM   32  C   UNL     1       3.755  26.512  48.708  1.00  0.00     0.007 A 
HETATM   33  C   UNL     1       4.610  25.922  49.639  1.00  0.00     0.010 A 
ENDBRANCH   1  27
TORSDOF 5
ENDMDL
MODEL 7
REMARK VINA RESULT:      -9.6      5.002      8.692
REMARK  5 active torsions:
REMARK  status: ('A' for Active; 'I' for Inactive)
REMARK    1  A    between atoms: C_5  and  C_6 
REMARK    2  A    between atoms: C_11  and  C_12 
REMARK       I    between atoms: C_12  and  N_13 
REMARK    3  A    between atoms: N_13  and  C_14 
REMARK    4  A    between atoms: C_16  and  O_17 
REMARK    5  A    between atoms: C_23  and  C_24 
ROOT
HETATM    1  C   UNL     1       7.217  25.559  54.389  1.00  0.00     0.118 C 
HETATM    2  N   UNL     1       7.012  26.098  53.044  1.00  0.00    -0.366 N 
HETATM    3  C   UNL     1       5.952  26.864  52.720  1.00  0.00     0.123 A 
HETATM    4  N   UNL     1       5.092  27.322  53.676  1.00  0.00    -0.240 N 
HETATM    5  N   UNL     1       4.000  27.935  53.186  1.00  0.00    -0.165 NA
HETATM    6  C   UNL     1       4.248  27.986  51.854  1.00  0.00     0.148 A 
HETATM    7  C   UNL     1       5.473  27.338  51.530  1.00  0.00     0.089 A 
HETATM    8  C   UNL     1       5.268  27.060  55.091  1.00  0.00     0.221 C 
HETATM    9  C   UNL     1       5.950  25.695  55.262  1.00  0.00     0.066 C 
HETATM   10  H   UNL     1       7.663  25.762  52.335  1.00  0.00     0.161 HD
ENDROOT
BRANCH   6  11
HETATM   11  C   UNL     1       3.306  28.612  50.908  1.00  0.00     0.276 C 
HETATM   12  N   UNL     1       3.191  27.879  49.742  1.00  0.00    -0.322 N 
HETATM   13  H   UNL     1       3.783  27.051  49.728  1.00  0.00     0.169 HD
HETATM   14  O   UNL     1       2.743  29.669  51.167  1.00  0.00    -0.266 OA
BRANCH  12  15
HETATM   15  C   UNL     1       2.406  28.154  48.611  1.00  0.00     0.037 A 
HETATM   16  C   UNL     1       2.652  29.214  47.735  1.00  0.00     0.066 A 
HETATM   17  C   UNL     1       1.813  29.415  46.640  1.00  0.00     0.067 A 
HETATM   18  C   UNL     1       0.735  28.573  46.396  1.00  0.00     0.036 A 
HETATM   19  C   UNL     1       0.486  27.513  47.263  1.00  0.00     0.005 A 
HETATM   20  C   UNL     1       1.315  27.307  48.369  1.00  0.00     0.029 A 
BRANCH  17  21
HETATM   21  O   UNL     1       2.018  30.450  45.774  1.00  0.00    -0.361 OA
HETATM   22  H   UNL     1       1.233  30.535  45.208  1.00  0.00     0.217 HD
ENDBRANCH  17  21
ENDBRANCH  12  15
ENDBRANCH   6  11
BRANCH   8  23
HETATM   23  C   UNL     1       6.044  28.188  55.732  1.00  0.00     0.409 C 
HETATM   24  F   UNL     1       5.236  29.154  56.220  1.00  0.00    -0.169 F 
HETATM   25  F   UNL     1       6.753  27.710  56.788  1.00  0.00    -0.169 F 
HETATM   26  F   UNL     1       6.934  28.772  54.904  1.00  0.00    -0.169 F 
ENDBRANCH   8  23
BRANCH   1  27
HETATM   27  C   UNL     1       7.638  24.104  54.275  1.00  0.00    -0.035 A 
HETATM   28  C   UNL     1       8.060  23.392  55.406  1.00  0.00     0.010 A 
HETATM   29  C   UNL     1       8.441  22.050  55.299  1.00  0.00     0.007 A 
HETATM   30  C   UNL     1       8.417  21.397  54.062  1.00  0.00    -0.062 A 
HETATM   31  C   UNL     1       8.794  19.950  53.947  1.00  0.00     0.048 C 
HETATM   32  C   UNL     1       7.986  22.100  52.933  1.00  0.00     0.007 A 
HETATM   33  C   UNL     1       7.609  23.439  53.037  1.00  0.00     0.010 A 
ENDBRANCH   1  27
TORSDOF 5
ENDMDL
MODEL 8
REMARK VINA RESULT:      -9.4      4.909      9.739
REMARK  5 active torsions:
REMARK  status: ('A' for Active; 'I' for Inactive)
REMARK    1  A    between atoms: C_5  and  C_6 
REMARK    2  A    between atoms: C_11  and  C_12 
REMARK       I    between atoms: C_12  and  N_13 
REMARK    3  A    between atoms: N_13  and  C_14 
REMARK    4  A    between atoms: C_16  and  O_17 
REMARK    5  A    between atoms: C_23  and  C_24 
ROOT
HETATM    1  C   UNL     1       7.070  27.585  56.162  1.00  0.00     0.118 C 
HETATM    2  N   UNL     1       6.108  28.251  55.283  1.00  0.00    -0.366 N 
HETATM    3  C   UNL     1       5.898  27.866  54.009  1.00  0.00     0.123 A 
HETATM    4  N   UNL     1       6.452  26.720  53.516  1.00  0.00    -0.240 N 
HETATM    5  N   UNL     1       6.285  26.553  52.192  1.00  0.00    -0.165 NA
HETATM    6  C   UNL     1       5.468  27.581  51.854  1.00  0.00     0.148 A 
HETATM    7  C   UNL     1       5.191  28.414  52.974  1.00  0.00     0.089 A 
HETATM    8  C   UNL     1       7.261  25.823  54.317  1.00  0.00     0.221 C 
HETATM    9  C   UNL     1       8.010  26.643  55.377  1.00  0.00     0.066 C 
HETATM   10  H   UNL     1       5.688  29.101  55.659  1.00  0.00     0.161 HD
ENDROOT
BRANCH   6  11
HETATM   11  C   UNL     1       4.993  27.779  50.472  1.00  0.00     0.276 C 
HETATM   12  N   UNL     1       3.838  27.064  50.221  1.00  0.00    -0.322 N 
HETATM   13  H   UNL     1       3.524  26.514  51.018  1.00  0.00     0.169 HD
HETATM   14  O   UNL     1       5.606  28.483  49.677  1.00  0.00    -0.266 OA
BRANCH  12  15
HETATM   15  C   UNL     1       3.097  26.989  49.031  1.00  0.00     0.037 A 
HETATM   16  C   UNL     1       3.266  25.986  48.074  1.00  0.00     0.066 A 
HETATM   17  C   UNL     1       2.490  25.997  46.916  1.00  0.00     0.067 A 
HETATM   18  C   UNL     1       1.539  26.987  46.697  1.00  0.00     0.036 A 
HETATM   19  C   UNL     1       1.363  27.988  47.648  1.00  0.00     0.005 A 
HETATM   20  C   UNL     1       2.142  27.992  48.808  1.00  0.00     0.029 A 
BRANCH  17  21
HETATM   21  O   UNL     1       2.641  25.040  45.955  1.00  0.00    -0.361 OA
HETATM   22  H   UNL     1       3.582  24.806  45.901  1.00  0.00     0.217 HD
ENDBRANCH  17  21
ENDBRANCH  12  15
ENDBRANCH   6  11
BRANCH   8  23
HETATM   23  C   UNL     1       6.392  24.741  54.917  1.00  0.00     0.409 C 
HETATM   24  F   UNL     1       5.079  25.055  54.876  1.00  0.00    -0.169 F 
HETATM   25  F   UNL     1       6.537  23.593  54.205  1.00  0.00    -0.169 F 
HETATM   26  F   UNL     1       6.706  24.443  56.194  1.00  0.00    -0.169 F 
ENDBRANCH   8  23
BRANCH   1  27
HETATM   27  C   UNL     1       7.867  28.641  56.907  1.00  0.00    -0.035 A 
HETATM   28  C   UNL     1       7.401  29.163  58.122  1.00  0.00     0.010 A 
HETATM   29  C   UNL     1       8.140  30.132  58.809  1.00  0.00     0.007 A 
HETATM   30  C   UNL     1       9.352  30.604  58.293  1.00  0.00    -0.062 A 
HETATM   31  C   UNL     1      10.165  31.618  59.042  1.00  0.00     0.048 C 
HETATM   32  C   UNL     1       9.827  30.078  57.088  1.00  0.00     0.007 A 
HETATM   33  C   UNL     1       9.089  29.115  56.400  1.00  0.00     0.010 A 
ENDBRANCH   1  27
TORSDOF 5
ENDMDL
MODEL 9
REMARK VINA RESULT:      -9.2      2.932      4.017
REMARK  5 active torsions:
REMARK  status: ('A' for Active; 'I' for Inactive)
REMARK    1  A    between atoms: C_5  and  C_6 
REMARK    2  A    between atoms: C_11  and  C_12 
REMARK       I    between atoms: C_12  and  N_13 
REMARK    3  A    between atoms: N_13  and  C_14 
REMARK    4  A    between atoms: C_16  and  O_17 
REMARK    5  A    between atoms: C_23  and  C_24 
ROOT
HETATM    1  C   UNL     1       7.227  26.487  54.466  1.00  0.00     0.118 C 
HETATM    2  N   UNL     1       8.003  27.693  54.753  1.00  0.00    -0.366 N 
HETATM    3  C   UNL     1       8.077  28.235  55.985  1.00  0.00     0.123 A 
HETATM    4  N   UNL     1       7.565  27.589  57.074  1.00  0.00    -0.240 N 
HETATM    5  N   UNL     1       7.572  28.322  58.201  1.00  0.00    -0.165 NA
HETATM    6  C   UNL     1       8.245  29.441  57.837  1.00  0.00     0.148 A 
HETATM    7  C   UNL     1       8.591  29.411  56.457  1.00  0.00     0.089 A 
HETATM    8  C   UNL     1       6.950  26.279  57.000  1.00  0.00     0.221 C 
HETATM    9  C   UNL     1       6.278  26.122  55.629  1.00  0.00     0.066 C 
HETATM   10  H   UNL     1       8.393  28.167  53.939  1.00  0.00     0.161 HD
ENDROOT
BRANCH   6  11
HETATM   11  C   UNL     1       8.515  30.535  58.788  1.00  0.00     0.276 C 
HETATM   12  N   UNL     1       7.584  30.566  59.808  1.00  0.00    -0.322 N 
HETATM   13  H   UNL     1       6.867  29.848  59.721  1.00  0.00     0.169 HD
HETATM   14  O   UNL     1       9.451  31.309  58.627  1.00  0.00    -0.266 OA
BRANCH  12  15
HETATM   15  C   UNL     1       7.500  31.457  60.889  1.00  0.00     0.037 A 
HETATM   16  C   UNL     1       6.721  32.617  60.880  1.00  0.00     0.066 A 
HETATM   17  C   UNL     1       6.706  33.450  61.998  1.00  0.00     0.067 A 
HETATM   18  C   UNL     1       7.448  33.144  63.132  1.00  0.00     0.036 A 
HETATM   19  C   UNL     1       8.225  31.988  63.150  1.00  0.00     0.005 A 
HETATM   20  C   UNL     1       8.254  31.151  62.031  1.00  0.00     0.029 A 
BRANCH  17  21
HETATM   21  O   UNL     1       5.966  34.597  62.015  1.00  0.00    -0.361 OA
HETATM   22  H   UNL     1       5.138  34.433  61.533  1.00  0.00     0.217 HD
ENDBRANCH  17  21
ENDBRANCH  12  15
ENDBRANCH   6  11
BRANCH   8  23
HETATM   23  C   UNL     1       7.981  25.208  57.275  1.00  0.00     0.409 C 
HETATM   24  F   UNL     1       9.208  25.549  56.824  1.00  0.00    -0.169 F 
HETATM   25  F   UNL     1       8.101  25.023  58.616  1.00  0.00    -0.169 F 
HETATM   26  F   UNL     1       7.666  24.007  56.748  1.00  0.00    -0.169 F 
ENDBRANCH   8  23
BRANCH   1  27
HETATM   27  C   UNL     1       6.445  26.701  53.181  1.00  0.00    -0.035 A 
HETATM   28  C   UNL     1       6.126  27.995  52.746  1.00  0.00     0.010 A 
HETATM   29  C   UNL     1       5.411  28.189  51.559  1.00  0.00     0.007 A 
HETATM   30  C   UNL     1       4.994  27.097  50.791  1.00  0.00    -0.062 A 
HETATM   31  C   UNL     1       4.255  27.301  49.501  1.00  0.00     0.048 C 
HETATM   32  C   UNL     1       5.318  25.805  51.215  1.00  0.00     0.007 A 
HETATM   33  C   UNL     1       6.028  25.610  52.399  1.00  0.00     0.010 A 
ENDBRANCH   1  27
TORSDOF 5
ENDMDL
MODEL 10
REMARK VINA RESULT:      -9.1      6.163      9.829
REMARK  5 active torsions:
REMARK  status: ('A' for Active; 'I' for Inactive)
REMARK    1  A    between atoms: C_5  and  C_6 
REMARK    2  A    between atoms: C_11  and  C_12 
REMARK       I    between atoms: C_12  and  N_13 
REMARK    3  A    between atoms: N_13  and  C_14 
REMARK    4  A    between atoms: C_16  and  O_17 
REMARK    5  A    between atoms: C_23  and  C_24 
ROOT
HETATM    1  C   UNL     1       6.477  26.053  53.313  1.00  0.00     0.118 C 
HETATM    2  N   UNL     1       6.620  26.249  51.870  1.00  0.00    -0.366 N 
HETATM    3  C   UNL     1       5.667  26.833  51.117  1.00  0.00     0.123 A 
HETATM    4  N   UNL     1       4.580  27.430  51.688  1.00  0.00    -0.240 N 
HETATM    5  N   UNL     1       3.643  27.825  50.808  1.00  0.00    -0.165 NA
HETATM    6  C   UNL     1       4.228  27.586  49.609  1.00  0.00     0.148 A 
HETATM    7  C   UNL     1       5.506  26.980  49.766  1.00  0.00     0.089 A 
HETATM    8  C   UNL     1       4.388  27.516  53.122  1.00  0.00     0.221 C 
HETATM    9  C   UNL     1       5.025  26.286  53.784  1.00  0.00     0.066 C 
HETATM   10  H   UNL     1       7.438  25.811  51.448  1.00  0.00     0.161 HD
ENDROOT
BRANCH   6  11
HETATM   11  C   UNL     1       3.554  27.900  48.336  1.00  0.00     0.276 C 
HETATM   12  N   UNL     1       2.182  27.963  48.486  1.00  0.00    -0.322 N 
HETATM   13  H   UNL     1       1.872  27.766  49.436  1.00  0.00     0.169 HD
HETATM   14  O   UNL     1       4.184  28.049  47.295  1.00  0.00    -0.266 OA
BRANCH  12  15
HETATM   15  C   UNL     1       1.206  28.225  47.511  1.00  0.00     0.037 A 
HETATM   16  C   UNL     1       0.776  27.285  46.572  1.00  0.00     0.066 A 
HETATM   17  C   UNL     1      -0.193  27.638  45.634  1.00  0.00     0.067 A 
HETATM   18  C   UNL     1      -0.749  28.912  45.619  1.00  0.00     0.036 A 
HETATM   19  C   UNL     1      -0.327  29.853  46.554  1.00  0.00     0.005 A 
HETATM   20  C   UNL     1       0.651  29.512  47.493  1.00  0.00     0.029 A 
BRANCH  17  21
HETATM   21  O   UNL     1      -0.624  26.748  44.694  1.00  0.00    -0.361 OA
HETATM   22  H   UNL     1      -1.301  26.179  45.099  1.00  0.00     0.217 HD
ENDBRANCH  17  21
ENDBRANCH  12  15
ENDBRANCH   6  11
BRANCH   8  23
HETATM   23  C   UNL     1       4.951  28.820  53.641  1.00  0.00     0.409 C 
HETATM   24  F   UNL     1       6.051  28.637  54.404  1.00  0.00    -0.169 F 
HETATM   25  F   UNL     1       5.332  29.600  52.596  1.00  0.00    -0.169 F 
HETATM   26  F   UNL     1       4.066  29.543  54.358  1.00  0.00    -0.169 F 
ENDBRANCH   8  23
BRANCH   1  27
HETATM   27  C   UNL     1       6.938  24.649  53.665  1.00  0.00    -0.035 A 
HETATM   28  C   UNL     1       7.458  23.799  52.679  1.00  0.00     0.010 A 
HETATM   29  C   UNL     1       7.887  22.509  53.007  1.00  0.00     0.007 A 
HETATM   30  C   UNL     1       7.797  22.040  54.322  1.00  0.00    -0.062 A 
HETATM   31  C   UNL     1       8.285  20.669  54.686  1.00  0.00     0.048 C 
HETATM   32  C   UNL     1       7.288  22.887  55.311  1.00  0.00     0.007 A 
HETATM   33  C   UNL     1       6.857  24.173  54.985  1.00  0.00     0.010 A 
ENDBRANCH   1  27
TORSDOF 5
ENDMDL
