MODEL 1
REMARK VINA RESULT:      -8.3      0.000      0.000
REMARK  8 active torsions:
REMARK  status: ('A' for Active; 'I' for Inactive)
REMARK    1  A    between atoms: N_4  and  C_5 
REMARK    2  A    between atoms: C_5  and  C_6 
REMARK    3  A    between atoms: C_6  and  C_7 
REMARK       I    between atoms: C_7  and  N_8 
REMARK    4  A    between atoms: N_8  and  N_9 
REMARK    5  A    between atoms: N_9  and  C_10 
REMARK    6  A    between atoms: C_10  and  N_11 
REMARK    7  A    between atoms: N_11  and  C_12 
REMARK    8  A    between atoms: C_13  and  O_14 
ROOT
HETATM    1  C   UNL     1       6.101  26.672  56.802  1.00  0.00     0.237 C 
HETATM    2  N   UNL     1       5.271  27.749  56.569  1.00  0.00    -0.268 N 
HETATM    3  O   UNL     1       6.798  26.573  57.810  1.00  0.00    -0.272 OA
HETATM    4  H   UNL     1       4.540  27.728  55.860  1.00  0.00     0.190 HD
ENDROOT
BRANCH   2   5
HETATM    5  N   UNL     1       5.101  28.678  57.612  1.00  0.00    -0.274 N 
HETATM    6  H   UNL     1       4.180  28.634  58.050  1.00  0.00     0.189 HD
BRANCH   5   7
HETATM    7  C   UNL     1       5.755  29.914  57.575  1.00  0.00     0.191 C 
HETATM    8  S   UNL     1       5.179  31.200  56.664  1.00  0.00    -0.039 SA
BRANCH   7   9
HETATM    9  N   UNL     1       6.918  29.847  58.321  1.00  0.00    -0.330 N 
HETATM   10  H   UNL     1       6.789  29.533  59.279  1.00  0.00     0.168 HD
BRANCH   9  11
HETATM   11  C   UNL     1       8.291  29.954  57.989  1.00  0.00     0.068 A 
HETATM   12  C   UNL     1       8.953  31.122  58.438  1.00  0.00     0.095 A 
HETATM   13  C   UNL     1      10.302  31.321  58.134  1.00  0.00     0.039 A 
HETATM   14  C   UNL     1      10.996  30.376  57.380  1.00  0.00     0.003 A 
HETATM   15  C   UNL     1      10.343  29.236  56.918  1.00  0.00     0.002 A 
HETATM   16  C   UNL     1       8.993  29.030  57.216  1.00  0.00     0.032 A 
BRANCH  12  17
HETATM   17  O   UNL     1       8.173  31.997  59.163  1.00  0.00    -0.354 OA
HETATM   18  C   UNL     1       8.687  32.435  60.416  1.00  0.00     0.210 C 
ENDBRANCH  12  17
ENDBRANCH   9  11
ENDBRANCH   7   9
ENDBRANCH   5   7
ENDBRANCH   2   5
BRANCH   1  19
HETATM   19  C   UNL     1       6.038  25.627  55.719  1.00  0.00     0.126 C 
BRANCH  19  20
HETATM   20  C   UNL     1       7.427  25.355  55.159  1.00  0.00     0.160 C 
BRANCH  20  21
HETATM   21  N   UNL     1       7.638  23.937  54.919  1.00  0.00    -0.272 N 
HETATM   22  N   UNL     1       7.662  23.109  55.984  1.00  0.00    -0.176 NA
HETATM   23  C   UNL     1       7.867  21.896  55.456  1.00  0.00     0.070 A 
HETATM   24  C   UNL     1       7.948  20.705  56.336  1.00  0.00     0.074 C 
HETATM   25  C   UNL     1       7.973  21.970  54.054  1.00  0.00     0.060 A 
HETATM   26  C   UNL     1       7.832  23.297  53.720  1.00  0.00     0.046 A 
HETATM   27 BR   UNL     1       8.250  20.512  52.910  1.00  0.00    -0.047 Br
HETATM   28  C   UNL     1       7.851  23.990  52.409  1.00  0.00     0.071 C 
ENDBRANCH  20  21
ENDBRANCH  19  20
ENDBRANCH   1  19
TORSDOF 8
ENDMDL
MODEL 2
REMARK VINA RESULT:      -8.2      2.987      4.460
REMARK  8 active torsions:
REMARK  status: ('A' for Active; 'I' for Inactive)
REMARK    1  A    between atoms: N_4  and  C_5 
REMARK    2  A    between atoms: C_5  and  C_6 
REMARK    3  A    between atoms: C_6  and  C_7 
REMARK       I    between atoms: C_7  and  N_8 
REMARK    4  A    between atoms: N_8  and  N_9 
REMARK    5  A    between atoms: N_9  and  C_10 
REMARK    6  A    between atoms: C_10  and  N_11 
REMARK    7  A    between atoms: N_11  and  C_12 
REMARK    8  A    between atoms: C_13  and  O_14 
ROOT
HETATM    1  C   UNL     1       6.190  25.809  52.060  1.00  0.00     0.237 C 
HETATM    2  N   UNL     1       5.494  25.883  53.249  1.00  0.00    -0.268 N 
HETATM    3  O   UNL     1       5.694  26.112  50.977  1.00  0.00    -0.272 OA
HETATM    4  H   UNL     1       5.961  25.849  54.155  1.00  0.00     0.190 HD
ENDROOT
BRANCH   2   5
HETATM    5  N   UNL     1       4.225  26.489  53.225  1.00  0.00    -0.274 N 
HETATM    6  H   UNL     1       3.614  26.125  52.493  1.00  0.00     0.189 HD
BRANCH   5   7
HETATM    7  C   UNL     1       4.070  27.826  53.608  1.00  0.00     0.191 C 
HETATM    8  S   UNL     1       3.906  29.061  52.487  1.00  0.00    -0.039 SA
BRANCH   7   9
HETATM    9  N   UNL     1       4.147  27.925  54.987  1.00  0.00    -0.330 N 
HETATM   10  H   UNL     1       3.383  27.478  55.487  1.00  0.00     0.168 HD
BRANCH   9  11
HETATM   11  C   UNL     1       5.161  28.366  55.872  1.00  0.00     0.068 A 
HETATM   12  C   UNL     1       5.925  27.354  56.500  1.00  0.00     0.095 A 
HETATM   13  C   UNL     1       6.930  27.698  57.408  1.00  0.00     0.039 A 
HETATM   14  C   UNL     1       7.176  29.038  57.704  1.00  0.00     0.003 A 
HETATM   15  C   UNL     1       6.412  30.036  57.104  1.00  0.00     0.002 A 
HETATM   16  C   UNL     1       5.404  29.701  56.197  1.00  0.00     0.032 A 
BRANCH  12  17
HETATM   17  O   UNL     1       5.592  26.063  56.148  1.00  0.00    -0.354 OA
HETATM   18  C   UNL     1       5.004  25.250  57.157  1.00  0.00     0.210 C 
ENDBRANCH  12  17
ENDBRANCH   9  11
ENDBRANCH   7   9
ENDBRANCH   5   7
ENDBRANCH   2   5
BRANCH   1  19
HETATM   19  C   UNL     1       7.616  25.354  52.233  1.00  0.00     0.126 C 
BRANCH  19  20
HETATM   20  C   UNL     1       7.690  23.835  52.274  1.00  0.00     0.160 C 
BRANCH  20  21
HETATM   21  N   UNL     1       7.954  23.349  53.618  1.00  0.00    -0.272 N 
HETATM   22  N   UNL     1       8.128  24.257  54.599  1.00  0.00    -0.176 NA
HETATM   23  C   UNL     1       8.346  23.523  55.697  1.00  0.00     0.070 A 
HETATM   24  C   UNL     1       8.578  24.185  57.003  1.00  0.00     0.074 C 
HETATM   25  C   UNL     1       8.309  22.148  55.396  1.00  0.00     0.060 A 
HETATM   26  C   UNL     1       8.063  22.049  54.046  1.00  0.00     0.046 A 
HETATM   27 BR   UNL     1       8.550  20.761  56.632  1.00  0.00    -0.047 Br
HETATM   28  C   UNL     1       7.915  20.872  53.155  1.00  0.00     0.071 C 
ENDBRANCH  20  21
ENDBRANCH  19  20
ENDBRANCH   1  19
TORSDOF 8
ENDMDL
MODEL 3
REMARK VINA RESULT:      -8.1      1.729      2.739
REMARK  8 active torsions:
REMARK  status: ('A' for Active; 'I' for Inactive)
REMARK    1  A    between atoms: N_4  and  C_5 
REMARK    2  A    between atoms: C_5  and  C_6 
REMARK    3  A    between atoms: C_6  and  C_7 
REMARK       I    between atoms: C_7  and  N_8 
REMARK    4  A    between atoms: N_8  and  N_9 
REMARK    5  A    between atoms: N_9  and  C_10 
REMARK    6  A    between atoms: C_10  and  N_11 
REMARK    7  A    between atoms: N_11  and  C_12 
REMARK    8  A    between atoms: C_13  and  O_14 
ROOT
HETATM    1  C   UNL     1       7.290  26.424  57.437  1.00  0.00     0.237 C 
HETATM    2  N   UNL     1       7.158  27.774  57.184  1.00  0.00    -0.268 N 
HETATM    3  O   UNL     1       7.931  25.983  58.388  1.00  0.00    -0.272 OA
HETATM    4  H   UNL     1       6.457  28.141  56.541  1.00  0.00     0.190 HD
ENDROOT
BRANCH   2   5
HETATM    5  N   UNL     1       7.640  28.669  58.157  1.00  0.00    -0.274 N 
HETATM    6  H   UNL     1       6.948  28.907  58.869  1.00  0.00     0.189 HD
BRANCH   5   7
HETATM    7  C   UNL     1       8.599  29.630  57.823  1.00  0.00     0.191 C 
HETATM    8  S   UNL     1       9.923  29.271  56.858  1.00  0.00    -0.039 SA
BRANCH   7   9
HETATM    9  N   UNL     1       8.302  30.824  58.458  1.00  0.00    -0.330 N 
HETATM   10  H   UNL     1       7.878  31.527  57.860  1.00  0.00     0.168 HD
BRANCH   9  11
HETATM   11  C   UNL     1       8.297  31.224  59.817  1.00  0.00     0.068 A 
HETATM   12  C   UNL     1       7.382  32.247  60.162  1.00  0.00     0.095 A 
HETATM   13  C   UNL     1       7.327  32.721  61.476  1.00  0.00     0.039 A 
HETATM   14  C   UNL     1       8.180  32.195  62.446  1.00  0.00     0.003 A 
HETATM   15  C   UNL     1       9.096  31.205  62.104  1.00  0.00     0.002 A 
HETATM   16  C   UNL     1       9.160  30.726  60.793  1.00  0.00     0.032 A 
BRANCH  12  17
HETATM   17  O   UNL     1       6.595  32.706  59.127  1.00  0.00    -0.354 OA
HETATM   18  C   UNL     1       5.220  32.933  59.414  1.00  0.00     0.210 C 
ENDBRANCH  12  17
ENDBRANCH   9  11
ENDBRANCH   7   9
ENDBRANCH   5   7
ENDBRANCH   2   5
BRANCH   1  19
HETATM   19  C   UNL     1       6.546  25.559  56.452  1.00  0.00     0.126 C 
BRANCH  19  20
HETATM   20  C   UNL     1       7.382  25.337  55.200  1.00  0.00     0.160 C 
BRANCH  20  21
HETATM   21  N   UNL     1       7.615  23.923  54.956  1.00  0.00    -0.272 N 
HETATM   22  N   UNL     1       7.655  23.094  56.019  1.00  0.00    -0.176 NA
HETATM   23  C   UNL     1       7.877  21.885  55.488  1.00  0.00     0.070 A 
HETATM   24  C   UNL     1       7.980  20.694  56.365  1.00  0.00     0.074 C 
HETATM   25  C   UNL     1       7.978  21.964  54.086  1.00  0.00     0.060 A 
HETATM   26  C   UNL     1       7.814  23.289  53.755  1.00  0.00     0.046 A 
HETATM   27 BR   UNL     1       8.273  20.513  52.937  1.00  0.00    -0.047 Br
HETATM   28  C   UNL     1       7.819  23.985  52.445  1.00  0.00     0.071 C 
ENDBRANCH  20  21
ENDBRANCH  19  20
ENDBRANCH   1  19
TORSDOF 8
ENDMDL
MODEL 4
REMARK VINA RESULT:      -8.0      3.874      8.329
REMARK  8 active torsions:
REMARK  status: ('A' for Active; 'I' for Inactive)
REMARK    1  A    between atoms: N_4  and  C_5 
REMARK    2  A    between atoms: C_5  and  C_6 
REMARK    3  A    between atoms: C_6  and  C_7 
REMARK       I    between atoms: C_7  and  N_8 
REMARK    4  A    between atoms: N_8  and  N_9 
REMARK    5  A    between atoms: N_9  and  C_10 
REMARK    6  A    between atoms: C_10  and  N_11 
REMARK    7  A    between atoms: N_11  and  C_12 
REMARK    8  A    between atoms: C_13  and  O_14 
ROOT
HETATM    1  C   UNL     1       6.811  27.347  56.664  1.00  0.00     0.237 C 
HETATM    2  N   UNL     1       7.028  26.650  55.492  1.00  0.00    -0.268 N 
HETATM    3  O   UNL     1       5.693  27.507  57.147  1.00  0.00    -0.272 OA
HETATM    4  H   UNL     1       7.955  26.330  55.214  1.00  0.00     0.190 HD
ENDROOT
BRANCH   2   5
HETATM    5  N   UNL     1       5.936  25.961  54.934  1.00  0.00    -0.274 N 
HETATM    6  H   UNL     1       5.251  25.655  55.626  1.00  0.00     0.189 HD
BRANCH   5   7
HETATM    7  C   UNL     1       6.102  25.183  53.783  1.00  0.00     0.191 C 
HETATM    8  S   UNL     1       4.954  25.143  52.561  1.00  0.00    -0.039 SA
BRANCH   7   9
HETATM    9  N   UNL     1       7.275  24.455  53.879  1.00  0.00    -0.330 N 
HETATM   10  H   UNL     1       8.118  25.018  53.959  1.00  0.00     0.168 HD
BRANCH   9  11
HETATM   11  C   UNL     1       7.549  23.079  54.071  1.00  0.00     0.068 A 
HETATM   12  C   UNL     1       7.666  22.647  55.414  1.00  0.00     0.095 A 
HETATM   13  C   UNL     1       7.960  21.309  55.695  1.00  0.00     0.039 A 
HETATM   14  C   UNL     1       8.148  20.401  54.654  1.00  0.00     0.003 A 
HETATM   15  C   UNL     1       8.055  20.827  53.332  1.00  0.00     0.002 A 
HETATM   16  C   UNL     1       7.764  22.162  53.041  1.00  0.00     0.032 A 
BRANCH  12  17
HETATM   17  O   UNL     1       7.476  23.626  56.365  1.00  0.00    -0.354 OA
HETATM   18  C   UNL     1       8.571  23.908  57.229  1.00  0.00     0.210 C 
ENDBRANCH  12  17
ENDBRANCH   9  11
ENDBRANCH   7   9
ENDBRANCH   5   7
ENDBRANCH   2   5
BRANCH   1  19
HETATM   19  C   UNL     1       8.081  27.857  57.296  1.00  0.00     0.126 C 
BRANCH  19  20
HETATM   20  C   UNL     1       8.220  29.356  57.078  1.00  0.00     0.160 C 
BRANCH  20  21
HETATM   21  N   UNL     1       8.063  30.094  58.320  1.00  0.00    -0.272 N 
HETATM   22  N   UNL     1       8.966  29.887  59.300  1.00  0.00    -0.176 NA
HETATM   23  C   UNL     1       8.568  30.691  60.294  1.00  0.00     0.070 A 
HETATM   24  C   UNL     1       9.333  30.742  61.563  1.00  0.00     0.074 C 
HETATM   25  C   UNL     1       7.408  31.401  59.930  1.00  0.00     0.060 A 
HETATM   26  C   UNL     1       7.087  31.000  58.653  1.00  0.00     0.046 A 
HETATM   27 BR   UNL     1       6.515  32.645  61.010  1.00  0.00    -0.047 Br
HETATM   28  C   UNL     1       5.981  31.393  57.746  1.00  0.00     0.071 C 
ENDBRANCH  20  21
ENDBRANCH  19  20
ENDBRANCH   1  19
TORSDOF 8
ENDMDL
MODEL 5
REMARK VINA RESULT:      -7.9      3.177      7.547
REMARK  8 active torsions:
REMARK  status: ('A' for Active; 'I' for Inactive)
REMARK    1  A    between atoms: N_4  and  C_5 
REMARK    2  A    between atoms: C_5  and  C_6 
REMARK    3  A    between atoms: C_6  and  C_7 
REMARK       I    between atoms: C_7  and  N_8 
REMARK    4  A    between atoms: N_8  and  N_9 
REMARK    5  A    between atoms: N_9  and  C_10 
REMARK    6  A    between atoms: C_10  and  N_11 
REMARK    7  A    between atoms: N_11  and  C_12 
REMARK    8  A    between atoms: C_13  and  O_14 
ROOT
HETATM    1  C   UNL     1       5.265  26.961  56.432  1.00  0.00     0.237 C 
HETATM    2  N   UNL     1       4.840  26.273  55.313  1.00  0.00    -0.268 N 
HETATM    3  O   UNL     1       6.019  26.472  57.269  1.00  0.00    -0.272 OA
HETATM    4  H   UNL     1       4.405  26.742  54.520  1.00  0.00     0.190 HD
ENDROOT
BRANCH   2   5
HETATM    5  N   UNL     1       5.437  25.026  55.050  1.00  0.00    -0.274 N 
HETATM    6  H   UNL     1       5.933  24.636  55.852  1.00  0.00     0.189 HD
BRANCH   5   7
HETATM    7  C   UNL     1       5.911  24.723  53.770  1.00  0.00     0.191 C 
HETATM    8  S   UNL     1       5.000  25.009  52.391  1.00  0.00    -0.039 SA
BRANCH   7   9
HETATM    9  N   UNL     1       7.152  24.119  53.865  1.00  0.00    -0.330 N 
HETATM   10  H   UNL     1       7.934  24.765  53.928  1.00  0.00     0.168 HD
BRANCH   9  11
HETATM   11  C   UNL     1       7.566  22.780  54.074  1.00  0.00     0.068 A 
HETATM   12  C   UNL     1       7.766  22.392  55.420  1.00  0.00     0.095 A 
HETATM   13  C   UNL     1       8.199  21.096  55.718  1.00  0.00     0.039 A 
HETATM   14  C   UNL     1       8.444  20.188  54.688  1.00  0.00     0.003 A 
HETATM   15  C   UNL     1       8.268  20.573  53.362  1.00  0.00     0.002 A 
HETATM   16  C   UNL     1       7.838  21.867  53.056  1.00  0.00     0.032 A 
BRANCH  12  17
HETATM   17  O   UNL     1       7.510  23.369  56.358  1.00  0.00    -0.354 OA
HETATM   18  C   UNL     1       8.614  23.832  57.126  1.00  0.00     0.210 C 
ENDBRANCH  12  17
ENDBRANCH   9  11
ENDBRANCH   7   9
ENDBRANCH   5   7
ENDBRANCH   2   5
BRANCH   1  19
HETATM   19  C   UNL     1       4.737  28.371  56.499  1.00  0.00     0.126 C 
BRANCH  19  20
HETATM   20  C   UNL     1       5.632  29.313  55.708  1.00  0.00     0.160 C 
BRANCH  20  21
HETATM   21  N   UNL     1       6.915  29.507  56.363  1.00  0.00    -0.272 N 
HETATM   22  N   UNL     1       6.922  30.040  57.603  1.00  0.00    -0.176 NA
HETATM   23  C   UNL     1       8.218  30.091  57.935  1.00  0.00     0.070 A 
HETATM   24  C   UNL     1       8.627  30.624  59.257  1.00  0.00     0.074 C 
HETATM   25  C   UNL     1       9.023  29.590  56.895  1.00  0.00     0.060 A 
HETATM   26  C   UNL     1       8.169  29.223  55.880  1.00  0.00     0.046 A 
HETATM   27 BR   UNL     1      10.891  29.463  56.935  1.00  0.00    -0.047 Br
HETATM   28  C   UNL     1       8.423  28.635  54.542  1.00  0.00     0.071 C 
ENDBRANCH  20  21
ENDBRANCH  19  20
ENDBRANCH   1  19
TORSDOF 8
ENDMDL
MODEL 6
REMARK VINA RESULT:      -7.8      3.485      8.152
REMARK  8 active torsions:
REMARK  status: ('A' for Active; 'I' for Inactive)
REMARK    1  A    between atoms: N_4  and  C_5 
REMARK    2  A    between atoms: C_5  and  C_6 
REMARK    3  A    between atoms: C_6  and  C_7 
REMARK       I    between atoms: C_7  and  N_8 
REMARK    4  A    between atoms: N_8  and  N_9 
REMARK    5  A    between atoms: N_9  and  C_10 
REMARK    6  A    between atoms: C_10  and  N_11 
REMARK    7  A    between atoms: N_11  and  C_12 
REMARK    8  A    between atoms: C_13  and  O_14 
ROOT
HETATM    1  C   UNL     1       5.503  28.044  57.044  1.00  0.00     0.237 C 
HETATM    2  N   UNL     1       4.528  27.353  56.355  1.00  0.00    -0.268 N 
HETATM    3  O   UNL     1       6.618  27.579  57.270  1.00  0.00    -0.272 OA
HETATM    4  H   UNL     1       3.699  27.812  55.979  1.00  0.00     0.190 HD
ENDROOT
BRANCH   2   5
HETATM    5  N   UNL     1       4.897  26.138  55.748  1.00  0.00    -0.274 N 
HETATM    6  H   UNL     1       5.159  25.413  56.417  1.00  0.00     0.189 HD
BRANCH   5   7
HETATM    7  C   UNL     1       5.513  26.131  54.492  1.00  0.00     0.191 C 
HETATM    8  S   UNL     1       4.753  26.732  53.123  1.00  0.00    -0.039 SA
BRANCH   7   9
HETATM    9  N   UNL     1       6.746  25.510  54.583  1.00  0.00    -0.330 N 
HETATM   10  H   UNL     1       7.478  26.081  54.997  1.00  0.00     0.168 HD
BRANCH   9  11
HETATM   11  C   UNL     1       7.177  24.175  54.385  1.00  0.00     0.068 A 
HETATM   12  C   UNL     1       7.513  23.448  55.552  1.00  0.00     0.095 A 
HETATM   13  C   UNL     1       7.972  22.132  55.449  1.00  0.00     0.039 A 
HETATM   14  C   UNL     1       8.109  21.536  54.195  1.00  0.00     0.003 A 
HETATM   15  C   UNL     1       7.801  22.256  53.044  1.00  0.00     0.002 A 
HETATM   16  C   UNL     1       7.344  23.573  53.138  1.00  0.00     0.032 A 
BRANCH  12  17
HETATM   17  O   UNL     1       7.354  24.134  56.737  1.00  0.00    -0.354 OA
HETATM   18  C   UNL     1       8.539  24.525  57.421  1.00  0.00     0.210 C 
ENDBRANCH  12  17
ENDBRANCH   9  11
ENDBRANCH   7   9
ENDBRANCH   5   7
ENDBRANCH   2   5
BRANCH   1  19
HETATM   19  C   UNL     1       5.071  29.427  57.458  1.00  0.00     0.126 C 
BRANCH  19  20
HETATM   20  C   UNL     1       6.162  30.442  57.147  1.00  0.00     0.160 C 
BRANCH  20  21
HETATM   21  N   UNL     1       6.734  31.001  58.360  1.00  0.00    -0.272 N 
HETATM   22  N   UNL     1       5.954  31.795  59.122  1.00  0.00    -0.176 NA
HETATM   23  C   UNL     1       6.740  32.148  60.147  1.00  0.00     0.070 A 
HETATM   24  C   UNL     1       6.217  33.031  61.217  1.00  0.00     0.074 C 
HETATM   25  C   UNL     1       8.018  31.571  60.020  1.00  0.00     0.060 A 
HETATM   26  C   UNL     1       8.004  30.838  58.856  1.00  0.00     0.046 A 
HETATM   27 BR   UNL     1       9.429  31.786  61.234  1.00  0.00    -0.047 Br
HETATM   28  C   UNL     1       9.047  30.015  58.197  1.00  0.00     0.071 C 
ENDBRANCH  20  21
ENDBRANCH  19  20
ENDBRANCH   1  19
TORSDOF 8
ENDMDL
MODEL 7
REMARK VINA RESULT:      -7.7      1.389      2.692
REMARK  8 active torsions:
REMARK  status: ('A' for Active; 'I' for Inactive)
REMARK    1  A    between atoms: N_4  and  C_5 
REMARK    2  A    between atoms: C_5  and  C_6 
REMARK    3  A    between atoms: C_6  and  C_7 
REMARK       I    between atoms: C_7  and  N_8 
REMARK    4  A    between atoms: N_8  and  N_9 
REMARK    5  A    between atoms: N_9  and  C_10 
REMARK    6  A    between atoms: C_10  and  N_11 
REMARK    7  A    between atoms: N_11  and  C_12 
REMARK    8  A    between atoms: C_13  and  O_14 
ROOT
HETATM    1  C   UNL     1       7.444  27.833  57.349  1.00  0.00     0.237 C 
HETATM    2  N   UNL     1       6.428  28.700  57.698  1.00  0.00    -0.268 N 
HETATM    3  O   UNL     1       8.633  28.124  57.450  1.00  0.00    -0.272 OA
HETATM    4  H   UNL     1       5.466  28.388  57.825  1.00  0.00     0.190 HD
ENDROOT
BRANCH   2   5
HETATM    5  N   UNL     1       6.787  29.894  58.351  1.00  0.00    -0.274 N 
HETATM    6  H   UNL     1       7.107  29.753  59.310  1.00  0.00     0.189 HD
BRANCH   5   7
HETATM    7  C   UNL     1       6.138  31.094  58.043  1.00  0.00     0.191 C 
HETATM    8  S   UNL     1       5.054  31.219  56.768  1.00  0.00    -0.039 SA
BRANCH   7   9
HETATM    9  N   UNL     1       6.587  32.095  58.885  1.00  0.00    -0.330 N 
HETATM   10  H   UNL     1       6.248  33.026  58.655  1.00  0.00     0.168 HD
BRANCH   9  11
HETATM   11  C   UNL     1       7.284  32.085  60.119  1.00  0.00     0.068 A 
HETATM   12  C   UNL     1       8.695  32.153  60.039  1.00  0.00     0.095 A 
HETATM   13  C   UNL     1       9.464  32.123  61.206  1.00  0.00     0.039 A 
HETATM   14  C   UNL     1       8.842  32.017  62.450  1.00  0.00     0.003 A 
HETATM   15  C   UNL     1       7.456  31.929  62.531  1.00  0.00     0.002 A 
HETATM   16  C   UNL     1       6.680  31.956  61.369  1.00  0.00     0.032 A 
BRANCH  12  17
HETATM   17  O   UNL     1       9.208  32.241  58.762  1.00  0.00    -0.354 OA
HETATM   18  C   UNL     1      10.195  31.285  58.395  1.00  0.00     0.210 C 
ENDBRANCH  12  17
ENDBRANCH   9  11
ENDBRANCH   7   9
ENDBRANCH   5   7
ENDBRANCH   2   5
BRANCH   1  19
HETATM   19  C   UNL     1       6.944  26.496  56.867  1.00  0.00     0.126 C 
BRANCH  19  20
HETATM   20  C   UNL     1       7.411  26.234  55.443  1.00  0.00     0.160 C 
BRANCH  20  21
HETATM   21  N   UNL     1       7.699  24.826  55.225  1.00  0.00    -0.272 N 
HETATM   22  N   UNL     1       7.861  24.036  56.306  1.00  0.00    -0.176 NA
HETATM   23  C   UNL     1       8.107  22.823  55.796  1.00  0.00     0.070 A 
HETATM   24  C   UNL     1       8.336  21.669  56.698  1.00  0.00     0.074 C 
HETATM   25  C   UNL     1       8.100  22.859  54.389  1.00  0.00     0.060 A 
HETATM   26  C   UNL     1       7.843  24.162  54.031  1.00  0.00     0.046 A 
HETATM   27 BR   UNL     1       8.386  21.387  53.266  1.00  0.00    -0.047 Br
HETATM   28  C   UNL     1       7.715  24.813  52.705  1.00  0.00     0.071 C 
ENDBRANCH  20  21
ENDBRANCH  19  20
ENDBRANCH   1  19
TORSDOF 8
ENDMDL
MODEL 8
REMARK VINA RESULT:      -7.7      2.869      4.019
REMARK  8 active torsions:
REMARK  status: ('A' for Active; 'I' for Inactive)
REMARK    1  A    between atoms: N_4  and  C_5 
REMARK    2  A    between atoms: C_5  and  C_6 
REMARK    3  A    between atoms: C_6  and  C_7 
REMARK       I    between atoms: C_7  and  N_8 
REMARK    4  A    between atoms: N_8  and  N_9 
REMARK    5  A    between atoms: N_9  and  C_10 
REMARK    6  A    between atoms: C_10  and  N_11 
REMARK    7  A    between atoms: N_11  and  C_12 
REMARK    8  A    between atoms: C_13  and  O_14 
ROOT
HETATM    1  C   UNL     1       5.121  26.026  51.941  1.00  0.00     0.237 C 
HETATM    2  N   UNL     1       4.388  26.138  53.106  1.00  0.00    -0.268 N 
HETATM    3  O   UNL     1       4.895  26.707  50.944  1.00  0.00    -0.272 OA
HETATM    4  H   UNL     1       4.708  25.745  53.990  1.00  0.00     0.190 HD
ENDROOT
BRANCH   2   5
HETATM    5  N   UNL     1       3.461  27.194  53.193  1.00  0.00    -0.274 N 
HETATM    6  H   UNL     1       2.807  27.226  52.410  1.00  0.00     0.189 HD
BRANCH   5   7
HETATM    7  C   UNL     1       3.816  28.400  53.806  1.00  0.00     0.191 C 
HETATM    8  S   UNL     1       3.973  29.828  52.940  1.00  0.00    -0.039 SA
BRANCH   7   9
HETATM    9  N   UNL     1       4.064  28.182  55.150  1.00  0.00    -0.330 N 
HETATM   10  H   UNL     1       3.320  27.697  55.645  1.00  0.00     0.168 HD
BRANCH   9  11
HETATM   11  C   UNL     1       5.216  28.332  55.961  1.00  0.00     0.068 A 
HETATM   12  C   UNL     1       5.177  29.378  56.913  1.00  0.00     0.095 A 
HETATM   13  C   UNL     1       6.280  29.614  57.739  1.00  0.00     0.039 A 
HETATM   14  C   UNL     1       7.424  28.826  57.618  1.00  0.00     0.003 A 
HETATM   15  C   UNL     1       7.474  27.810  56.667  1.00  0.00     0.002 A 
HETATM   16  C   UNL     1       6.376  27.569  55.837  1.00  0.00     0.032 A 
BRANCH  12  17
HETATM   17  O   UNL     1       4.005  30.104  56.941  1.00  0.00    -0.354 OA
HETATM   18  C   UNL     1       4.071  31.452  56.488  1.00  0.00     0.210 C 
ENDBRANCH  12  17
ENDBRANCH   9  11
ENDBRANCH   7   9
ENDBRANCH   5   7
ENDBRANCH   2   5
BRANCH   1  19
HETATM   19  C   UNL     1       6.234  25.015  52.035  1.00  0.00     0.126 C 
BRANCH  19  20
HETATM   20  C   UNL     1       6.856  25.034  53.424  1.00  0.00     0.160 C 
BRANCH  20  21
HETATM   21  N   UNL     1       7.269  23.706  53.843  1.00  0.00    -0.272 N 
HETATM   22  N   UNL     1       7.550  22.797  52.887  1.00  0.00    -0.176 NA
HETATM   23  C   UNL     1       7.895  21.696  53.567  1.00  0.00     0.070 A 
HETATM   24  C   UNL     1       8.284  20.463  52.841  1.00  0.00     0.074 C 
HETATM   25  C   UNL     1       7.825  21.921  54.955  1.00  0.00     0.060 A 
HETATM   26  C   UNL     1       7.411  23.223  55.121  1.00  0.00     0.046 A 
HETATM   27 BR   UNL     1       8.232  20.660  56.280  1.00  0.00    -0.047 Br
HETATM   28  C   UNL     1       7.156  24.028  56.340  1.00  0.00     0.071 C 
ENDBRANCH  20  21
ENDBRANCH  19  20
ENDBRANCH   1  19
TORSDOF 8
ENDMDL
MODEL 9
REMARK VINA RESULT:      -7.7      1.258      2.181
REMARK  8 active torsions:
REMARK  status: ('A' for Active; 'I' for Inactive)
REMARK    1  A    between atoms: N_4  and  C_5 
REMARK    2  A    between atoms: C_5  and  C_6 
REMARK    3  A    between atoms: C_6  and  C_7 
REMARK       I    between atoms: C_7  and  N_8 
REMARK    4  A    between atoms: N_8  and  N_9 
REMARK    5  A    between atoms: N_9  and  C_10 
REMARK    6  A    between atoms: C_10  and  N_11 
REMARK    7  A    between atoms: N_11  and  C_12 
REMARK    8  A    between atoms: C_13  and  O_14 
ROOT
HETATM    1  C   UNL     1       6.006  26.882  55.985  1.00  0.00     0.237 C 
HETATM    2  N   UNL     1       6.927  27.836  56.369  1.00  0.00    -0.268 N 
HETATM    3  O   UNL     1       4.953  27.163  55.418  1.00  0.00    -0.272 OA
HETATM    4  H   UNL     1       7.882  27.595  56.631  1.00  0.00     0.190 HD
ENDROOT
BRANCH   2   5
HETATM    5  N   UNL     1       6.714  29.158  55.936  1.00  0.00    -0.274 N 
HETATM    6  H   UNL     1       7.431  29.496  55.294  1.00  0.00     0.189 HD
BRANCH   5   7
HETATM    7  C   UNL     1       6.089  30.087  56.775  1.00  0.00     0.191 C 
HETATM    8  S   UNL     1       4.958  31.185  56.203  1.00  0.00    -0.039 SA
BRANCH   7   9
HETATM    9  N   UNL     1       6.604  29.977  58.055  1.00  0.00    -0.330 N 
HETATM   10  H   UNL     1       6.446  29.077  58.499  1.00  0.00     0.168 HD
BRANCH   9  11
HETATM   11  C   UNL     1       7.468  30.793  58.826  1.00  0.00     0.068 A 
HETATM   12  C   UNL     1       8.855  30.584  58.639  1.00  0.00     0.095 A 
HETATM   13  C   UNL     1       9.781  31.328  59.377  1.00  0.00     0.039 A 
HETATM   14  C   UNL     1       9.338  32.270  60.306  1.00  0.00     0.003 A 
HETATM   15  C   UNL     1       7.974  32.462  60.508  1.00  0.00     0.002 A 
HETATM   16  C   UNL     1       7.043  31.721  59.776  1.00  0.00     0.032 A 
BRANCH  12  17
HETATM   17  O   UNL     1       9.185  29.622  57.708  1.00  0.00    -0.354 OA
HETATM   18  C   UNL     1      10.489  29.690  57.143  1.00  0.00     0.210 C 
ENDBRANCH  12  17
ENDBRANCH   9  11
ENDBRANCH   7   9
ENDBRANCH   5   7
ENDBRANCH   2   5
BRANCH   1  19
HETATM   19  C   UNL     1       6.440  25.475  56.303  1.00  0.00     0.126 C 
BRANCH  19  20
HETATM   20  C   UNL     1       7.834  25.210  55.753  1.00  0.00     0.160 C 
BRANCH  20  21
HETATM   21  N   UNL     1       8.000  23.820  55.362  1.00  0.00    -0.272 N 
HETATM   22  N   UNL     1       8.245  22.913  56.330  1.00  0.00    -0.176 NA
HETATM   23  C   UNL     1       8.345  21.749  55.676  1.00  0.00     0.070 A 
HETATM   24  C   UNL     1       8.610  20.496  56.422  1.00  0.00     0.074 C 
HETATM   25  C   UNL     1       8.162  21.934  54.292  1.00  0.00     0.060 A 
HETATM   26  C   UNL     1       7.948  23.279  54.101  1.00  0.00     0.046 A 
HETATM   27 BR   UNL     1       8.206  20.575  53.003  1.00  0.00    -0.047 Br
HETATM   28  C   UNL     1       7.695  24.072  52.873  1.00  0.00     0.071 C 
ENDBRANCH  20  21
ENDBRANCH  19  20
ENDBRANCH   1  19
TORSDOF 8
ENDMDL
MODEL 10
REMARK VINA RESULT:      -7.7      2.775      4.570
REMARK  8 active torsions:
REMARK  status: ('A' for Active; 'I' for Inactive)
REMARK    1  A    between atoms: N_4  and  C_5 
REMARK    2  A    between atoms: C_5  and  C_6 
REMARK    3  A    between atoms: C_6  and  C_7 
REMARK       I    between atoms: C_7  and  N_8 
REMARK    4  A    between atoms: N_8  and  N_9 
REMARK    5  A    between atoms: N_9  and  C_10 
REMARK    6  A    between atoms: C_10  and  N_11 
REMARK    7  A    between atoms: N_11  and  C_12 
REMARK    8  A    between atoms: C_13  and  O_14 
ROOT
HETATM    1  C   UNL     1       7.303  28.361  57.551  1.00  0.00     0.237 C 
HETATM    2  N   UNL     1       7.985  29.221  58.387  1.00  0.00    -0.268 N 
HETATM    3  O   UNL     1       6.083  28.399  57.406  1.00  0.00    -0.272 OA
HETATM    4  H   UNL     1       8.997  29.337  58.339  1.00  0.00     0.190 HD
ENDROOT
BRANCH   2   5
HETATM    5  N   UNL     1       7.262  30.283  58.960  1.00  0.00    -0.274 N 
HETATM    6  H   UNL     1       6.567  30.687  58.331  1.00  0.00     0.189 HD
BRANCH   5   7
HETATM    7  C   UNL     1       7.861  31.121  59.906  1.00  0.00     0.191 C 
HETATM    8  S   UNL     1       9.357  31.833  59.646  1.00  0.00    -0.039 SA
BRANCH   7   9
HETATM    9  N   UNL     1       7.071  31.181  61.040  1.00  0.00    -0.330 N 
HETATM   10  H   UNL     1       6.497  30.357  61.200  1.00  0.00     0.168 HD
BRANCH   9  11
HETATM   11  C   UNL     1       7.015  32.075  62.137  1.00  0.00     0.068 A 
HETATM   12  C   UNL     1       5.903  32.950  62.173  1.00  0.00     0.095 A 
HETATM   13  C   UNL     1       5.781  33.884  63.206  1.00  0.00     0.039 A 
HETATM   14  C   UNL     1       6.758  33.960  64.199  1.00  0.00     0.003 A 
HETATM   15  C   UNL     1       7.863  33.115  64.155  1.00  0.00     0.002 A 
HETATM   16  C   UNL     1       7.995  32.181  63.124  1.00  0.00     0.032 A 
BRANCH  12  17
HETATM   17  O   UNL     1       5.005  32.801  61.138  1.00  0.00    -0.354 OA
HETATM   18  C   UNL     1       3.707  32.324  61.475  1.00  0.00     0.210 C 
ENDBRANCH  12  17
ENDBRANCH   9  11
ENDBRANCH   7   9
ENDBRANCH   5   7
ENDBRANCH   2   5
BRANCH   1  19
HETATM   19  C   UNL     1       8.206  27.404  56.817  1.00  0.00     0.126 C 
BRANCH  19  20
HETATM   20  C   UNL     1       7.748  25.969  57.030  1.00  0.00     0.160 C 
BRANCH  20  21
HETATM   21  N   UNL     1       7.792  25.204  55.795  1.00  0.00    -0.272 N 
HETATM   22  N   UNL     1       7.573  25.857  54.635  1.00  0.00    -0.176 NA
HETATM   23  C   UNL     1       7.679  24.910  53.695  1.00  0.00     0.070 A 
HETATM   24  C   UNL     1       7.503  25.257  52.265  1.00  0.00     0.074 C 
HETATM   25  C   UNL     1       7.964  23.659  54.274  1.00  0.00     0.060 A 
HETATM   26  C   UNL     1       8.026  23.861  55.634  1.00  0.00     0.046 A 
HETATM   27 BR   UNL     1       8.206  22.058  53.331  1.00  0.00    -0.047 Br
HETATM   28  C   UNL     1       8.290  22.929  56.757  1.00  0.00     0.071 C 
ENDBRANCH  20  21
ENDBRANCH  19  20
ENDBRANCH   1  19
TORSDOF 8
ENDMDL
