MODEL 1
REMARK VINA RESULT:      -8.3      0.000      0.000
REMARK  4 active torsions:
REMARK  status: ('A' for Active; 'I' for Inactive)
REMARK    1  A    between atoms: O_2  and  C_3 
REMARK    2  A    between atoms: C_6  and  C_7 
REMARK    3  A    between atoms: C_12  and  N_13 
REMARK    4  A    between atoms: C_15  and  C_16 
ROOT
HETATM    1  C   UNL     1       5.374  28.335  56.119  1.00  0.00     0.135 C 
HETATM    2  N   UNL     1       4.811  28.426  54.774  1.00  0.00    -0.214 N 
HETATM    3  C   UNL     1       4.867  27.356  53.955  1.00  0.00     0.736 A 
HETATM    4  N   UNL     1       5.087  26.096  54.441  1.00  0.00    -0.074 N 
HETATM    5  N   UNL     1       5.063  25.181  53.456  1.00  0.00     0.037 NA
HETATM    6  C   UNL     1       4.854  25.961  52.398  1.00  0.00     0.753 A 
HETATM    7  N   UNL     1       4.742  27.296  52.655  1.00  0.00     0.131 NA
HETATM    8  C   UNL     1       5.252  25.770  55.851  1.00  0.00     0.164 C 
HETATM    9  C   UNL     1       4.927  26.991  56.741  1.00  0.00     0.063 C 
HETATM   10  H   UNL     1       4.819  29.344  54.342  1.00  0.00     0.178 HD
ENDROOT
BRANCH   1  11
HETATM   11  C   UNL     1       6.870  28.623  56.160  1.00  0.00    -0.035 A 
HETATM   12  C   UNL     1       7.686  28.580  55.015  1.00  0.00     0.012 A 
HETATM   13  C   UNL     1       9.055  28.875  55.077  1.00  0.00     0.037 A 
HETATM   14  C   UNL     1       9.641  29.234  56.287  1.00  0.00     0.068 A 
HETATM   15  C   UNL     1       8.846  29.292  57.430  1.00  0.00     0.037 A 
HETATM   16  C   UNL     1       7.478  29.002  57.369  1.00  0.00     0.012 A 
BRANCH  14  17
HETATM   17  O   UNL     1      10.957  29.551  56.482  1.00  0.00    -0.356 OA
HETATM   18  C   UNL     1      11.250  30.419  57.569  1.00  0.00     0.210 C 
ENDBRANCH  14  17
ENDBRANCH   1  11
BRANCH   8  19
HETATM   19  C   UNL     1       6.598  25.145  56.196  1.00  0.00    -0.031 A 
HETATM   20  C   UNL     1       7.214  24.158  55.412  1.00  0.00     0.028 A 
HETATM   21  C   UNL     1       8.472  23.662  55.756  1.00  0.00     0.011 A 
HETATM   22 BR   UNL     1       9.291  22.351  54.666  1.00  0.00    -0.051 Br
HETATM   23  C   UNL     1       9.135  24.128  56.889  1.00  0.00     0.019 A 
HETATM   24  C   UNL     1       8.535  25.101  57.683  1.00  0.00     0.002 A 
HETATM   25  C   UNL     1       7.281  25.608  57.339  1.00  0.00     0.009 A 
ENDBRANCH   8  19
BRANCH   6  26
HETATM   26  N   UNL     1       4.786  25.549  51.136  1.00  0.00    -0.229 N 
HETATM   27  H   UNL     1       4.713  24.551  50.990  1.00  0.00     0.174 HD
HETATM   28  H   UNL     1       5.368  26.036  50.469  1.00  0.00     0.174 HD
ENDBRANCH   6  26
TORSDOF 4
ENDMDL
MODEL 2
REMARK VINA RESULT:      -7.8      9.857     11.658
REMARK  4 active torsions:
REMARK  status: ('A' for Active; 'I' for Inactive)
REMARK    1  A    between atoms: O_2  and  C_3 
REMARK    2  A    between atoms: C_6  and  C_7 
REMARK    3  A    between atoms: C_12  and  N_13 
REMARK    4  A    between atoms: C_15  and  C_16 
ROOT
HETATM    1  C   UNL     1       3.169  35.722  62.014  1.00  0.00     0.135 C 
HETATM    2  N   UNL     1       3.423  35.134  60.703  1.00  0.00    -0.214 N 
HETATM    3  C   UNL     1       4.188  34.027  60.606  1.00  0.00     0.736 A 
HETATM    4  N   UNL     1       4.426  33.228  61.691  1.00  0.00    -0.074 N 
HETATM    5  N   UNL     1       5.177  32.163  61.358  1.00  0.00     0.037 NA
HETATM    6  C   UNL     1       5.381  32.398  60.064  1.00  0.00     0.753 A 
HETATM    7  N   UNL     1       4.808  33.532  59.567  1.00  0.00     0.131 NA
HETATM    8  C   UNL     1       3.878  33.454  63.021  1.00  0.00     0.164 C 
HETATM    9  C   UNL     1       2.822  34.581  62.998  1.00  0.00     0.063 C 
HETATM   10  H   UNL     1       3.426  35.772  59.913  1.00  0.00     0.178 HD
ENDROOT
BRANCH   1  11
HETATM   11  C   UNL     1       4.269  36.677  62.464  1.00  0.00    -0.035 A 
HETATM   12  C   UNL     1       5.188  37.256  61.569  1.00  0.00     0.012 A 
HETATM   13  C   UNL     1       6.173  38.151  62.006  1.00  0.00     0.037 A 
HETATM   14  C   UNL     1       6.257  38.502  63.349  1.00  0.00     0.068 A 
HETATM   15  C   UNL     1       5.347  37.948  64.249  1.00  0.00     0.037 A 
HETATM   16  C   UNL     1       4.360  37.056  63.813  1.00  0.00     0.012 A 
BRANCH  14  17
HETATM   17  O   UNL     1       7.162  39.365  63.902  1.00  0.00    -0.356 OA
HETATM   18  C   UNL     1       7.650  40.403  63.062  1.00  0.00     0.210 C 
ENDBRANCH  14  17
ENDBRANCH   1  11
BRANCH   8  19
HETATM   19  C   UNL     1       4.930  33.670  64.103  1.00  0.00    -0.031 A 
HETATM   20  C   UNL     1       4.615  33.867  65.456  1.00  0.00     0.028 A 
HETATM   21  C   UNL     1       5.628  34.009  66.406  1.00  0.00     0.011 A 
HETATM   22 BR   UNL     1       5.176  34.247  68.227  1.00  0.00    -0.051 Br
HETATM   23  C   UNL     1       6.968  33.969  66.028  1.00  0.00     0.019 A 
HETATM   24  C   UNL     1       7.298  33.783  64.689  1.00  0.00     0.002 A 
HETATM   25  C   UNL     1       6.290  33.632  63.735  1.00  0.00     0.009 A 
ENDBRANCH   8  19
BRANCH   6  26
HETATM   26  N   UNL     1       6.117  31.648  59.249  1.00  0.00    -0.229 N 
HETATM   27  H   UNL     1       5.853  31.649  58.273  1.00  0.00     0.174 HD
HETATM   28  H   UNL     1       6.419  30.753  59.608  1.00  0.00     0.174 HD
ENDBRANCH   6  26
TORSDOF 4
ENDMDL
MODEL 3
REMARK VINA RESULT:      -7.6      8.881     10.585
REMARK  4 active torsions:
REMARK  status: ('A' for Active; 'I' for Inactive)
REMARK    1  A    between atoms: O_2  and  C_3 
REMARK    2  A    between atoms: C_6  and  C_7 
REMARK    3  A    between atoms: C_12  and  N_13 
REMARK    4  A    between atoms: C_15  and  C_16 
ROOT
HETATM    1  C   UNL     1       2.547  35.084  62.484  1.00  0.00     0.135 C 
HETATM    2  N   UNL     1       2.206  34.912  61.075  1.00  0.00    -0.214 N 
HETATM    3  C   UNL     1       2.857  33.990  60.338  1.00  0.00     0.736 A 
HETATM    4  N   UNL     1       3.551  32.968  60.927  1.00  0.00    -0.074 N 
HETATM    5  N   UNL     1       4.087  32.147  60.007  1.00  0.00     0.037 NA
HETATM    6  C   UNL     1       3.703  32.749  58.884  1.00  0.00     0.753 A 
HETATM    7  N   UNL     1       2.963  33.885  59.040  1.00  0.00     0.131 NA
HETATM    8  C   UNL     1       3.639  32.748  62.364  1.00  0.00     0.164 C 
HETATM    9  C   UNL     1       2.673  33.682  63.126  1.00  0.00     0.063 C 
HETATM   10  H   UNL     1       1.859  35.735  60.590  1.00  0.00     0.178 HD
ENDROOT
BRANCH   1  11
HETATM   11  C   UNL     1       3.727  36.024  62.703  1.00  0.00    -0.035 A 
HETATM   12  C   UNL     1       4.573  36.439  61.659  1.00  0.00     0.012 A 
HETATM   13  C   UNL     1       5.635  37.325  61.883  1.00  0.00     0.037 A 
HETATM   14  C   UNL     1       5.872  37.829  63.158  1.00  0.00     0.068 A 
HETATM   15  C   UNL     1       5.036  37.438  64.203  1.00  0.00     0.037 A 
HETATM   16  C   UNL     1       3.972  36.556  63.979  1.00  0.00     0.012 A 
BRANCH  14  17
HETATM   17  O   UNL     1       6.864  38.702  63.508  1.00  0.00    -0.356 OA
HETATM   18  C   UNL     1       6.486  39.809  64.315  1.00  0.00     0.210 C 
ENDBRANCH  14  17
ENDBRANCH   1  11
BRANCH   8  19
HETATM   19  C   UNL     1       5.057  32.806  62.921  1.00  0.00    -0.031 A 
HETATM   20  C   UNL     1       6.190  32.427  62.185  1.00  0.00     0.028 A 
HETATM   21  C   UNL     1       7.467  32.551  62.736  1.00  0.00     0.011 A 
HETATM   22 BR   UNL     1       8.979  32.058  61.713  1.00  0.00    -0.051 Br
HETATM   23  C   UNL     1       7.640  33.044  64.027  1.00  0.00     0.019 A 
HETATM   24  C   UNL     1       6.526  33.416  64.774  1.00  0.00     0.002 A 
HETATM   25  C   UNL     1       5.247  33.302  64.226  1.00  0.00     0.009 A 
ENDBRANCH   8  19
BRANCH   6  26
HETATM   26  N   UNL     1       4.012  32.356  57.652  1.00  0.00    -0.229 N 
HETATM   27  H   UNL     1       4.452  31.450  57.564  1.00  0.00     0.174 HD
HETATM   28  H   UNL     1       4.370  33.066  57.028  1.00  0.00     0.174 HD
ENDBRANCH   6  26
TORSDOF 4
ENDMDL
MODEL 4
REMARK VINA RESULT:      -7.5      9.085     10.917
REMARK  4 active torsions:
REMARK  status: ('A' for Active; 'I' for Inactive)
REMARK    1  A    between atoms: O_2  and  C_3 
REMARK    2  A    between atoms: C_6  and  C_7 
REMARK    3  A    between atoms: C_12  and  N_13 
REMARK    4  A    between atoms: C_15  and  C_16 
ROOT
HETATM    1  C   UNL     1       3.553  33.962  61.065  1.00  0.00     0.135 C 
HETATM    2  N   UNL     1       4.263  33.564  59.853  1.00  0.00    -0.214 N 
HETATM    3  C   UNL     1       5.431  32.897  59.954  1.00  0.00     0.736 A 
HETATM    4  N   UNL     1       5.790  32.260  61.110  1.00  0.00    -0.074 N 
HETATM    5  N   UNL     1       6.970  31.628  60.974  1.00  0.00     0.037 NA
HETATM    6  C   UNL     1       7.280  31.951  59.720  1.00  0.00     0.753 A 
HETATM    7  N   UNL     1       6.376  32.735  59.066  1.00  0.00     0.131 NA
HETATM    8  C   UNL     1       4.972  32.204  62.313  1.00  0.00     0.164 C 
HETATM    9  C   UNL     1       3.557  32.766  62.045  1.00  0.00     0.063 C 
HETATM   10  H   UNL     1       4.133  34.154  59.037  1.00  0.00     0.178 HD
ENDROOT
BRANCH   1  11
HETATM   11  C   UNL     1       4.040  35.290  61.633  1.00  0.00    -0.035 A 
HETATM   12  C   UNL     1       5.389  35.687  61.591  1.00  0.00     0.012 A 
HETATM   13  C   UNL     1       5.806  36.925  62.097  1.00  0.00     0.037 A 
HETATM   14  C   UNL     1       4.881  37.806  62.649  1.00  0.00     0.068 A 
HETATM   15  C   UNL     1       3.538  37.434  62.689  1.00  0.00     0.037 A 
HETATM   16  C   UNL     1       3.119  36.199  62.180  1.00  0.00     0.012 A 
BRANCH  14  17
HETATM   17  O   UNL     1       5.154  39.040  63.169  1.00  0.00    -0.356 OA
HETATM   18  C   UNL     1       6.281  39.135  64.031  1.00  0.00     0.210 C 
ENDBRANCH  14  17
ENDBRANCH   1  11
BRANCH   8  19
HETATM   19  C   UNL     1       5.620  32.834  63.541  1.00  0.00    -0.031 A 
HETATM   20  C   UNL     1       4.890  33.287  64.651  1.00  0.00     0.028 A 
HETATM   21  C   UNL     1       5.548  33.808  65.767  1.00  0.00     0.011 A 
HETATM   22 BR   UNL     1       4.542  34.386  67.260  1.00  0.00    -0.051 Br
HETATM   23  C   UNL     1       6.937  33.899  65.794  1.00  0.00     0.019 A 
HETATM   24  C   UNL     1       7.676  33.464  64.698  1.00  0.00     0.002 A 
HETATM   25  C   UNL     1       7.025  32.933  63.583  1.00  0.00     0.009 A 
ENDBRANCH   8  19
BRANCH   6  26
HETATM   26  N   UNL     1       8.398  31.606  59.088  1.00  0.00    -0.229 N 
HETATM   27  H   UNL     1       8.296  31.281  58.136  1.00  0.00     0.174 HD
HETATM   28  H   UNL     1       9.093  31.116  59.634  1.00  0.00     0.174 HD
ENDBRANCH   6  26
TORSDOF 4
ENDMDL
MODEL 5
REMARK VINA RESULT:      -7.1      8.844     10.968
REMARK  4 active torsions:
REMARK  status: ('A' for Active; 'I' for Inactive)
REMARK    1  A    between atoms: O_2  and  C_3 
REMARK    2  A    between atoms: C_6  and  C_7 
REMARK    3  A    between atoms: C_12  and  N_13 
REMARK    4  A    between atoms: C_15  and  C_16 
ROOT
HETATM    1  C   UNL     1       3.684  32.359  60.285  1.00  0.00     0.135 C 
HETATM    2  N   UNL     1       4.841  31.897  59.524  1.00  0.00    -0.214 N 
HETATM    3  C   UNL     1       6.083  32.121  59.997  1.00  0.00     0.736 A 
HETATM    4  N   UNL     1       6.301  32.425  61.313  1.00  0.00    -0.074 N 
HETATM    5  N   UNL     1       7.613  32.568  61.572  1.00  0.00     0.037 NA
HETATM    6  C   UNL     1       8.127  32.367  60.361  1.00  0.00     0.753 A 
HETATM    7  N   UNL     1       7.229  32.106  59.367  1.00  0.00     0.131 NA
HETATM    8  C   UNL     1       5.258  32.509  62.326  1.00  0.00     0.164 C 
HETATM    9  C   UNL     1       3.909  31.998  61.773  1.00  0.00     0.063 C 
HETATM   10  H   UNL     1       4.729  31.849  58.515  1.00  0.00     0.178 HD
ENDROOT
BRANCH   1  11
HETATM   11  C   UNL     1       3.322  33.812  60.000  1.00  0.00    -0.035 A 
HETATM   12  C   UNL     1       3.935  34.563  58.981  1.00  0.00     0.012 A 
HETATM   13  C   UNL     1       3.565  35.890  58.723  1.00  0.00     0.037 A 
HETATM   14  C   UNL     1       2.560  36.496  59.471  1.00  0.00     0.068 A 
HETATM   15  C   UNL     1       1.933  35.763  60.477  1.00  0.00     0.037 A 
HETATM   16  C   UNL     1       2.300  34.436  60.734  1.00  0.00     0.012 A 
BRANCH  14  17
HETATM   17  O   UNL     1       2.101  37.775  59.317  1.00  0.00    -0.356 OA
HETATM   18  C   UNL     1       2.622  38.752  60.209  1.00  0.00     0.210 C 
ENDBRANCH  14  17
ENDBRANCH   1  11
BRANCH   8  19
HETATM   19  C   UNL     1       5.131  33.880  62.982  1.00  0.00    -0.031 A 
HETATM   20  C   UNL     1       4.514  34.085  64.225  1.00  0.00     0.028 A 
HETATM   21  C   UNL     1       4.475  35.359  64.795  1.00  0.00     0.011 A 
HETATM   22 BR   UNL     1       3.661  35.603  66.484  1.00  0.00    -0.051 Br
HETATM   23  C   UNL     1       5.038  36.450  64.137  1.00  0.00     0.019 A 
HETATM   24  C   UNL     1       5.646  36.265  62.899  1.00  0.00     0.002 A 
HETATM   25  C   UNL     1       5.696  34.993  62.328  1.00  0.00     0.009 A 
ENDBRANCH   8  19
BRANCH   6  26
HETATM   26  N   UNL     1       9.418  32.439  60.048  1.00  0.00    -0.229 N 
HETATM   27  H   UNL     1       9.742  33.318  59.667  1.00  0.00     0.174 HD
HETATM   28  H   UNL     1       9.828  31.616  59.630  1.00  0.00     0.174 HD
ENDBRANCH   6  26
TORSDOF 4
ENDMDL
MODEL 6
REMARK VINA RESULT:      -6.6      9.867     12.265
REMARK  4 active torsions:
REMARK  status: ('A' for Active; 'I' for Inactive)
REMARK    1  A    between atoms: O_2  and  C_3 
REMARK    2  A    between atoms: C_6  and  C_7 
REMARK    3  A    between atoms: C_12  and  N_13 
REMARK    4  A    between atoms: C_15  and  C_16 
ROOT
HETATM    1  C   UNL     1       2.527  33.800  61.839  1.00  0.00     0.135 C 
HETATM    2  N   UNL     1       3.205  32.877  62.744  1.00  0.00    -0.214 N 
HETATM    3  C   UNL     1       4.160  33.340  63.576  1.00  0.00     0.736 A 
HETATM    4  N   UNL     1       4.262  34.672  63.872  1.00  0.00    -0.074 N 
HETATM    5  N   UNL     1       5.255  34.903  64.750  1.00  0.00     0.037 NA
HETATM    6  C   UNL     1       5.730  33.670  64.916  1.00  0.00     0.753 A 
HETATM    7  N   UNL     1       5.101  32.688  64.208  1.00  0.00     0.131 NA
HETATM    8  C   UNL     1       3.367  35.703  63.367  1.00  0.00     0.164 C 
HETATM    9  C   UNL     1       2.161  35.076  62.633  1.00  0.00     0.063 C 
HETATM   10  H   UNL     1       3.288  31.915  62.430  1.00  0.00     0.178 HD
ENDROOT
BRANCH   1  11
HETATM   11  C   UNL     1       3.284  34.023  60.535  1.00  0.00    -0.035 A 
HETATM   12  C   UNL     1       4.388  33.240  60.152  1.00  0.00     0.012 A 
HETATM   13  C   UNL     1       5.050  33.449  58.935  1.00  0.00     0.037 A 
HETATM   14  C   UNL     1       4.615  34.440  58.061  1.00  0.00     0.068 A 
HETATM   15  C   UNL     1       3.515  35.218  58.418  1.00  0.00     0.037 A 
HETATM   16  C   UNL     1       2.850  35.008  59.632  1.00  0.00     0.012 A 
BRANCH  14  17
HETATM   17  O   UNL     1       5.164  34.742  56.846  1.00  0.00    -0.356 OA
HETATM   18  C   UNL     1       4.940  36.056  56.351  1.00  0.00     0.210 C 
ENDBRANCH  14  17
ENDBRANCH   1  11
BRANCH   8  19
HETATM   19  C   UNL     1       4.056  36.777  62.532  1.00  0.00    -0.031 A 
HETATM   20  C   UNL     1       3.384  37.885  61.994  1.00  0.00     0.028 A 
HETATM   21  C   UNL     1       4.083  38.859  61.280  1.00  0.00     0.011 A 
HETATM   22 BR   UNL     1       3.157  40.356  60.589  1.00  0.00    -0.051 Br
HETATM   23  C   UNL     1       5.456  38.745  61.079  1.00  0.00     0.019 A 
HETATM   24  C   UNL     1       6.137  37.648  61.597  1.00  0.00     0.002 A 
HETATM   25  C   UNL     1       5.446  36.674  62.320  1.00  0.00     0.009 A 
ENDBRANCH   8  19
BRANCH   6  26
HETATM   26  N   UNL     1       6.772  33.339  65.674  1.00  0.00    -0.229 N 
HETATM   27  H   UNL     1       7.383  34.094  65.956  1.00  0.00     0.174 HD
HETATM   28  H   UNL     1       7.240  32.474  65.444  1.00  0.00     0.174 HD
ENDBRANCH   6  26
TORSDOF 4
ENDMDL
MODEL 7
REMARK VINA RESULT:      -6.5     10.278     12.378
REMARK  4 active torsions:
REMARK  status: ('A' for Active; 'I' for Inactive)
REMARK    1  A    between atoms: O_2  and  C_3 
REMARK    2  A    between atoms: C_6  and  C_7 
REMARK    3  A    between atoms: C_12  and  N_13 
REMARK    4  A    between atoms: C_15  and  C_16 
ROOT
HETATM    1  C   UNL     1       2.992  33.921  62.814  1.00  0.00     0.135 C 
HETATM    2  N   UNL     1       3.761  32.686  62.699  1.00  0.00    -0.214 N 
HETATM    3  C   UNL     1       5.086  32.700  62.949  1.00  0.00     0.736 A 
HETATM    4  N   UNL     1       5.668  33.718  63.654  1.00  0.00    -0.074 N 
HETATM    5  N   UNL     1       6.986  33.507  63.820  1.00  0.00     0.037 NA
HETATM    6  C   UNL     1       7.138  32.359  63.163  1.00  0.00     0.753 A 
HETATM    7  N   UNL     1       6.007  31.838  62.604  1.00  0.00     0.131 NA
HETATM    8  C   UNL     1       4.947  34.849  64.222  1.00  0.00     0.164 C 
HETATM    9  C   UNL     1       3.420  34.639  64.115  1.00  0.00     0.063 C 
HETATM   10  H   UNL     1       3.421  32.002  62.030  1.00  0.00     0.178 HD
ENDROOT
BRANCH   1  11
HETATM   11  C   UNL     1       3.027  34.767  61.546  1.00  0.00    -0.035 A 
HETATM   12  C   UNL     1       2.528  36.081  61.493  1.00  0.00     0.012 A 
HETATM   13  C   UNL     1       2.597  36.846  60.321  1.00  0.00     0.037 A 
HETATM   14  C   UNL     1       3.179  36.320  59.173  1.00  0.00     0.068 A 
HETATM   15  C   UNL     1       3.690  35.023  59.210  1.00  0.00     0.037 A 
HETATM   16  C   UNL     1       3.625  34.259  60.381  1.00  0.00     0.012 A 
BRANCH  14  17
HETATM   17  O   UNL     1       3.315  36.960  57.972  1.00  0.00    -0.356 OA
HETATM   18  C   UNL     1       4.594  36.893  57.354  1.00  0.00     0.210 C 
ENDBRANCH  14  17
ENDBRANCH   1  11
BRANCH   8  19
HETATM   19  C   UNL     1       5.383  36.205  63.680  1.00  0.00    -0.031 A 
HETATM   20  C   UNL     1       5.435  37.368  64.463  1.00  0.00     0.028 A 
HETATM   21  C   UNL     1       5.892  38.570  63.919  1.00  0.00     0.011 A 
HETATM   22 BR   UNL     1       5.978  40.115  65.004  1.00  0.00    -0.051 Br
HETATM   23  C   UNL     1       6.292  38.639  62.587  1.00  0.00     0.019 A 
HETATM   24  C   UNL     1       6.238  37.498  61.793  1.00  0.00     0.002 A 
HETATM   25  C   UNL     1       5.791  36.291  62.334  1.00  0.00     0.009 A 
ENDBRANCH   8  19
BRANCH   6  26
HETATM   26  N   UNL     1       8.289  31.719  62.983  1.00  0.00    -0.229 N 
HETATM   27  H   UNL     1       8.511  31.447  62.035  1.00  0.00     0.174 HD
HETATM   28  H   UNL     1       8.547  31.046  63.692  1.00  0.00     0.174 HD
ENDBRANCH   6  26
TORSDOF 4
ENDMDL
MODEL 8
REMARK VINA RESULT:      -6.5     16.231     18.116
REMARK  4 active torsions:
REMARK  status: ('A' for Active; 'I' for Inactive)
REMARK    1  A    between atoms: O_2  and  C_3 
REMARK    2  A    between atoms: C_6  and  C_7 
REMARK    3  A    between atoms: C_12  and  N_13 
REMARK    4  A    between atoms: C_15  and  C_16 
ROOT
HETATM    1  C   UNL     1      12.114  11.466  55.017  1.00  0.00     0.135 C 
HETATM    2  N   UNL     1      12.066  12.553  54.043  1.00  0.00    -0.214 N 
HETATM    3  C   UNL     1      12.301  12.292  52.741  1.00  0.00     0.736 A 
HETATM    4  N   UNL     1      12.217  11.021  52.242  1.00  0.00    -0.074 N 
HETATM    5  N   UNL     1      12.449  10.998  50.918  1.00  0.00     0.037 NA
HETATM    6  C   UNL     1      12.697  12.286  50.688  1.00  0.00     0.753 A 
HETATM    7  N   UNL     1      12.631  13.109  51.775  1.00  0.00     0.131 NA
HETATM    8  C   UNL     1      11.848   9.848  53.023  1.00  0.00     0.164 C 
HETATM    9  C   UNL     1      11.352  10.255  54.429  1.00  0.00     0.063 C 
HETATM   10  H   UNL     1      12.311  13.477  54.384  1.00  0.00     0.178 HD
ENDROOT
BRANCH   1  11
HETATM   11  C   UNL     1      13.522  11.183  55.527  1.00  0.00    -0.035 A 
HETATM   12  C   UNL     1      13.824  10.093  56.363  1.00  0.00     0.012 A 
HETATM   13  C   UNL     1      15.133   9.840  56.796  1.00  0.00     0.037 A 
HETATM   14  C   UNL     1      16.177  10.666  56.393  1.00  0.00     0.068 A 
HETATM   15  C   UNL     1      15.898  11.745  55.555  1.00  0.00     0.037 A 
HETATM   16  C   UNL     1      14.592  11.996  55.119  1.00  0.00     0.012 A 
BRANCH  14  17
HETATM   17  O   UNL     1      17.493  10.527  56.736  1.00  0.00    -0.356 OA
HETATM   18  C   UNL     1      17.765  10.099  58.065  1.00  0.00     0.210 C 
ENDBRANCH  14  17
ENDBRANCH   1  11
BRANCH   8  19
HETATM   19  C   UNL     1      12.924   8.770  53.080  1.00  0.00    -0.031 A 
HETATM   20  C   UNL     1      14.277   9.015  52.798  1.00  0.00     0.028 A 
HETATM   21  C   UNL     1      15.222   7.994  52.917  1.00  0.00     0.011 A 
HETATM   22 BR   UNL     1      17.042   8.359  52.558  1.00  0.00    -0.051 Br
HETATM   23  C   UNL     1      14.839   6.713  53.306  1.00  0.00     0.019 A 
HETATM   24  C   UNL     1      13.500   6.450  53.580  1.00  0.00     0.002 A 
HETATM   25  C   UNL     1      12.552   7.468  53.472  1.00  0.00     0.009 A 
ENDBRANCH   8  19
BRANCH   6  26
HETATM   26  N   UNL     1      13.034  12.811  49.514  1.00  0.00    -0.229 N 
HETATM   27  H   UNL     1      12.599  12.404  48.696  1.00  0.00     0.174 HD
HETATM   28  H   UNL     1      14.003  13.071  49.396  1.00  0.00     0.174 HD
ENDBRANCH   6  26
TORSDOF 4
ENDMDL
MODEL 9
REMARK VINA RESULT:      -6.4     15.947     18.105
REMARK  4 active torsions:
REMARK  status: ('A' for Active; 'I' for Inactive)
REMARK    1  A    between atoms: O_2  and  C_3 
REMARK    2  A    between atoms: C_6  and  C_7 
REMARK    3  A    between atoms: C_12  and  N_13 
REMARK    4  A    between atoms: C_15  and  C_16 
ROOT
HETATM    1  C   UNL     1      12.148  12.471  52.444  1.00  0.00     0.135 C 
HETATM    2  N   UNL     1      10.831  12.053  52.916  1.00  0.00    -0.214 N 
HETATM    3  C   UNL     1      10.728  11.335  54.053  1.00  0.00     0.736 A 
HETATM    4  N   UNL     1      11.745  11.298  54.968  1.00  0.00    -0.074 N 
HETATM    5  N   UNL     1      11.411  10.558  56.040  1.00  0.00     0.037 NA
HETATM    6  C   UNL     1      10.191  10.153  55.692  1.00  0.00     0.753 A 
HETATM    7  N   UNL     1       9.741  10.593  54.481  1.00  0.00     0.131 NA
HETATM    8  C   UNL     1      13.000  12.026  54.840  1.00  0.00     0.164 C 
HETATM    9  C   UNL     1      12.946  13.013  53.652  1.00  0.00     0.063 C 
HETATM   10  H   UNL     1      10.122  11.903  52.205  1.00  0.00     0.178 HD
ENDROOT
BRANCH   1  11
HETATM   11  C   UNL     1      12.849  11.406  51.608  1.00  0.00    -0.035 A 
HETATM   12  C   UNL     1      12.299  10.131  51.384  1.00  0.00     0.012 A 
HETATM   13  C   UNL     1      12.952   9.179  50.589  1.00  0.00     0.037 A 
HETATM   14  C   UNL     1      14.168   9.484  49.986  1.00  0.00     0.068 A 
HETATM   15  C   UNL     1      14.722  10.747  50.187  1.00  0.00     0.037 A 
HETATM   16  C   UNL     1      14.069  11.700  50.978  1.00  0.00     0.012 A 
BRANCH  14  17
HETATM   17  O   UNL     1      14.901   8.653  49.185  1.00  0.00    -0.356 OA
HETATM   18  C   UNL     1      16.316   8.762  49.277  1.00  0.00     0.210 C 
ENDBRANCH  14  17
ENDBRANCH   1  11
BRANCH   8  19
HETATM   19  C   UNL     1      14.237  11.137  54.796  1.00  0.00    -0.031 A 
HETATM   20  C   UNL     1      14.238   9.842  54.254  1.00  0.00     0.028 A 
HETATM   21  C   UNL     1      15.417   9.098  54.199  1.00  0.00     0.011 A 
HETATM   22 BR   UNL     1      15.396   7.367  53.439  1.00  0.00    -0.051 Br
HETATM   23  C   UNL     1      16.611   9.620  54.691  1.00  0.00     0.019 A 
HETATM   24  C   UNL     1      16.627  10.898  55.240  1.00  0.00     0.002 A 
HETATM   25  C   UNL     1      15.453  11.652  55.290  1.00  0.00     0.009 A 
ENDBRANCH   8  19
BRANCH   6  26
HETATM   26  N   UNL     1       9.415   9.341  56.402  1.00  0.00    -0.229 N 
HETATM   27  H   UNL     1       8.558   9.738  56.765  1.00  0.00     0.174 HD
HETATM   28  H   UNL     1       9.884   8.698  57.025  1.00  0.00     0.174 HD
ENDBRANCH   6  26
TORSDOF 4
ENDMDL
MODEL 10
REMARK VINA RESULT:      -6.4      9.145     11.595
REMARK  4 active torsions:
REMARK  status: ('A' for Active; 'I' for Inactive)
REMARK    1  A    between atoms: O_2  and  C_3 
REMARK    2  A    between atoms: C_6  and  C_7 
REMARK    3  A    between atoms: C_12  and  N_13 
REMARK    4  A    between atoms: C_15  and  C_16 
ROOT
HETATM    1  C   UNL     1       3.468  33.100  62.795  1.00  0.00     0.135 C 
HETATM    2  N   UNL     1       4.111  33.698  63.961  1.00  0.00    -0.214 N 
HETATM    3  C   UNL     1       4.302  35.033  64.005  1.00  0.00     0.736 A 
HETATM    4  N   UNL     1       3.602  35.881  63.192  1.00  0.00    -0.074 N 
HETATM    5  N   UNL     1       3.921  37.165  63.432  1.00  0.00     0.037 NA
HETATM    6  C   UNL     1       4.844  37.017  64.381  1.00  0.00     0.753 A 
HETATM    7  N   UNL     1       5.117  35.732  64.751  1.00  0.00     0.131 NA
HETATM    8  C   UNL     1       2.583  35.461  62.239  1.00  0.00     0.164 C 
HETATM    9  C   UNL     1       2.241  33.965  62.421  1.00  0.00     0.063 C 
HETATM   10  H   UNL     1       4.777  33.116  64.459  1.00  0.00     0.178 HD
ENDROOT
BRANCH   1  11
HETATM   11  C   UNL     1       4.443  32.804  61.661  1.00  0.00    -0.035 A 
HETATM   12  C   UNL     1       4.021  32.517  60.350  1.00  0.00     0.012 A 
HETATM   13  C   UNL     1       4.940  32.274  59.320  1.00  0.00     0.037 A 
HETATM   14  C   UNL     1       6.307  32.324  59.573  1.00  0.00     0.068 A 
HETATM   15  C   UNL     1       6.743  32.618  60.864  1.00  0.00     0.037 A 
HETATM   16  C   UNL     1       5.827  32.865  61.893  1.00  0.00     0.012 A 
BRANCH  14  17
HETATM   17  O   UNL     1       7.304  32.114  58.661  1.00  0.00    -0.356 OA
HETATM   18  C   UNL     1       8.552  31.662  59.171  1.00  0.00     0.210 C 
ENDBRANCH  14  17
ENDBRANCH   1  11
BRANCH   8  19
HETATM   19  C   UNL     1       2.900  35.809  60.789  1.00  0.00    -0.031 A 
HETATM   20  C   UNL     1       2.028  35.540  59.724  1.00  0.00     0.028 A 
HETATM   21  C   UNL     1       2.356  35.930  58.424  1.00  0.00     0.011 A 
HETATM   22 BR   UNL     1       1.150  35.580  57.010  1.00  0.00    -0.051 Br
HETATM   23  C   UNL     1       3.558  36.581  58.159  1.00  0.00     0.019 A 
HETATM   24  C   UNL     1       4.439  36.847  59.203  1.00  0.00     0.002 A 
HETATM   25  C   UNL     1       4.113  36.468  60.506  1.00  0.00     0.009 A 
ENDBRANCH   8  19
BRANCH   6  26
HETATM   26  N   UNL     1       5.528  38.002  64.954  1.00  0.00    -0.229 N 
HETATM   27  H   UNL     1       6.205  38.479  64.373  1.00  0.00     0.174 HD
HETATM   28  H   UNL     1       5.816  37.855  65.911  1.00  0.00     0.174 HD
ENDBRANCH   6  26
TORSDOF 4
ENDMDL
