MODEL 1
REMARK VINA RESULT:      -9.6      0.000      0.000
REMARK  9 active torsions:
REMARK  status: ('A' for Active; 'I' for Inactive)
REMARK    1  A    between atoms: C_3  and  C_4 
REMARK    2  A    between atoms: C_4  and  O_5 
REMARK    3  A    between atoms: C_8  and  C_9 
REMARK    4  A    between atoms: C_9  and  O_10 
REMARK    5  A    between atoms: O_10  and  C_11 
REMARK    6  A    between atoms: C_11  and  C_12 
REMARK    7  A    between atoms: C_15  and  C_16 
REMARK    8  A    between atoms: C_16  and  N_17 
REMARK       I    between atoms: N_17  and  C_18 
REMARK       I    between atoms: C_18  and  N_19 
REMARK    9  A    between atoms: N_19  and  C_20 
ROOT
HETATM    1  C   UNL     1       6.744  28.103  53.937  1.00  0.00     0.293 C 
HETATM    2  O   UNL     1       5.998  28.637  53.134  1.00  0.00    -0.259 OA
ENDROOT
BRANCH   1   3
HETATM    3  O   UNL     1       7.273  26.859  53.828  1.00  0.00    -0.311 OA
BRANCH   3   4
HETATM    4  C   UNL     1       6.352  25.781  54.065  1.00  0.00     0.239 C 
BRANCH   4   5
HETATM    5  C   UNL     1       6.957  24.468  54.506  1.00  0.00     0.076 A 
HETATM    6  C   UNL     1       7.303  24.191  55.825  1.00  0.00     0.073 A 
HETATM    7  C   UNL     1       7.942  22.968  56.131  1.00  0.00    -0.031 A 
HETATM    8  C   UNL     1       8.404  22.664  57.535  1.00  0.00     0.050 C 
HETATM    9  C   UNL     1       8.132  22.020  55.087  1.00  0.00    -0.000 A 
HETATM   10  C   UNL     1       7.739  22.392  53.783  1.00  0.00     0.068 A 
HETATM   11  C   UNL     1       8.695  20.732  55.269  1.00  0.00     0.014 A 
HETATM   12  N   UNL     1       7.198  23.584  53.501  1.00  0.00    -0.249 NA
HETATM   13  C   UNL     1       7.920  21.503  52.734  1.00  0.00     0.032 A 
HETATM   14  C   UNL     1       8.480  20.240  52.926  1.00  0.00     0.002 A 
HETATM   15  C   UNL     1       8.867  19.852  54.198  1.00  0.00     0.001 A 
BRANCH   6  16
HETATM   16  C   UNL     1       7.047  25.213  56.855  1.00  0.00     0.295 C 
HETATM   17  O   UNL     1       7.836  26.091  57.156  1.00  0.00    -0.259 OA
BRANCH  16  18
HETATM   18  O   UNL     1       5.812  25.009  57.375  1.00  0.00    -0.322 OA
HETATM   19  C   UNL     1       4.899  26.078  57.125  1.00  0.00     0.213 C 
ENDBRANCH  16  18
ENDBRANCH   6  16
ENDBRANCH   4   5
ENDBRANCH   3   4
ENDBRANCH   1   3
BRANCH   1  20
HETATM   20  C   UNL     1       7.306  28.814  55.119  1.00  0.00     0.039 A 
HETATM   21  C   UNL     1       8.699  28.912  55.226  1.00  0.00     0.018 A 
HETATM   22  C   UNL     1       9.288  29.401  56.397  1.00  0.00     0.010 A 
HETATM   23  C   UNL     1       8.491  29.785  57.484  1.00  0.00    -0.040 A 
HETATM   24  C   UNL     1       7.096  29.752  57.348  1.00  0.00     0.010 A 
HETATM   25  C   UNL     1       6.505  29.268  56.176  1.00  0.00     0.018 A 
BRANCH  23  26
HETATM   26  C   UNL     1       9.126  30.178  58.791  1.00  0.00     0.162 C 
BRANCH  26  27
HETATM   27  N   UNL     1       8.183  30.174  59.882  1.00  0.00    -0.339 N 
HETATM   28  C   UNL     1       7.987  31.350  60.564  1.00  0.00     0.316 C 
HETATM   29  N   UNL     1       7.171  31.164  61.649  1.00  0.00    -0.339 N 
HETATM   30  O   UNL     1       8.490  32.415  60.237  1.00  0.00    -0.247 OA
HETATM   31  H   UNL     1       6.525  30.395  61.554  1.00  0.00     0.164 HD
HETATM   32  H   UNL     1       8.161  29.345  60.456  1.00  0.00     0.164 HD
BRANCH  29  33
HETATM   33  C   UNL     1       6.762  32.248  62.539  1.00  0.00     0.078 C 
HETATM   34  C   UNL     1       5.373  32.023  63.137  1.00  0.00     0.032 C 
HETATM   35  C   UNL     1       7.800  32.528  63.624  1.00  0.00     0.032 C 
ENDBRANCH  29  33
ENDBRANCH  26  27
ENDBRANCH  23  26
ENDBRANCH   1  20
TORSDOF 9
ENDMDL
MODEL 2
REMARK VINA RESULT:      -9.5      1.652      2.869
REMARK  9 active torsions:
REMARK  status: ('A' for Active; 'I' for Inactive)
REMARK    1  A    between atoms: C_3  and  C_4 
REMARK    2  A    between atoms: C_4  and  O_5 
REMARK    3  A    between atoms: C_8  and  C_9 
REMARK    4  A    between atoms: C_9  and  O_10 
REMARK    5  A    between atoms: O_10  and  C_11 
REMARK    6  A    between atoms: C_11  and  C_12 
REMARK    7  A    between atoms: C_15  and  C_16 
REMARK    8  A    between atoms: C_16  and  N_17 
REMARK       I    between atoms: N_17  and  C_18 
REMARK       I    between atoms: C_18  and  N_19 
REMARK    9  A    between atoms: N_19  and  C_20 
ROOT
HETATM    1  C   UNL     1       5.739  28.100  56.964  1.00  0.00     0.293 C 
HETATM    2  O   UNL     1       4.659  28.316  56.441  1.00  0.00    -0.259 OA
ENDROOT
BRANCH   1   3
HETATM    3  O   UNL     1       6.378  26.905  57.011  1.00  0.00    -0.311 OA
BRANCH   3   4
HETATM    4  C   UNL     1       5.639  25.797  56.470  1.00  0.00     0.239 C 
BRANCH   4   5
HETATM    5  C   UNL     1       6.379  24.910  55.496  1.00  0.00     0.076 A 
HETATM    6  C   UNL     1       6.677  25.289  54.190  1.00  0.00     0.073 A 
HETATM    7  C   UNL     1       7.297  24.361  53.324  1.00  0.00    -0.031 A 
HETATM    8  C   UNL     1       7.564  24.706  51.880  1.00  0.00     0.050 C 
HETATM    9  C   UNL     1       7.676  23.092  53.844  1.00  0.00    -0.000 A 
HETATM   10  C   UNL     1       7.338  22.806  55.184  1.00  0.00     0.068 A 
HETATM   11  C   UNL     1       8.365  22.098  53.105  1.00  0.00     0.014 A 
HETATM   12  N   UNL     1       6.687  23.672  55.971  1.00  0.00    -0.249 NA
HETATM   13  C   UNL     1       7.676  21.574  55.727  1.00  0.00     0.032 A 
HETATM   14  C   UNL     1       8.350  20.602  54.987  1.00  0.00     0.002 A 
HETATM   15  C   UNL     1       8.697  20.865  53.672  1.00  0.00     0.001 A 
BRANCH   6  16
HETATM   16  C   UNL     1       6.277  26.632  53.735  1.00  0.00     0.295 C 
HETATM   17  O   UNL     1       7.016  27.600  53.737  1.00  0.00    -0.259 OA
BRANCH  16  18
HETATM   18  O   UNL     1       4.989  26.586  53.316  1.00  0.00    -0.322 OA
HETATM   19  C   UNL     1       4.482  27.846  52.876  1.00  0.00     0.213 C 
ENDBRANCH  16  18
ENDBRANCH   6  16
ENDBRANCH   4   5
ENDBRANCH   3   4
ENDBRANCH   1   3
BRANCH   1  20
HETATM   20  C   UNL     1       6.600  29.180  57.522  1.00  0.00     0.039 A 
HETATM   21  C   UNL     1       7.919  28.857  57.868  1.00  0.00     0.018 A 
HETATM   22  C   UNL     1       8.714  29.773  58.564  1.00  0.00     0.010 A 
HETATM   23  C   UNL     1       8.197  31.021  58.937  1.00  0.00    -0.040 A 
HETATM   24  C   UNL     1       6.901  31.368  58.528  1.00  0.00     0.010 A 
HETATM   25  C   UNL     1       6.106  30.455  57.828  1.00  0.00     0.018 A 
BRANCH  23  26
HETATM   26  C   UNL     1       9.003  31.950  59.806  1.00  0.00     0.162 C 
BRANCH  26  27
HETATM   27  N   UNL     1       8.171  32.766  60.656  1.00  0.00    -0.339 N 
HETATM   28  C   UNL     1       7.968  32.344  61.948  1.00  0.00     0.316 C 
HETATM   29  N   UNL     1       7.058  33.142  62.591  1.00  0.00    -0.339 N 
HETATM   30  O   UNL     1       8.526  31.375  62.441  1.00  0.00    -0.247 OA
HETATM   31  H   UNL     1       7.014  34.086  62.240  1.00  0.00     0.164 HD
HETATM   32  H   UNL     1       7.371  33.200  60.222  1.00  0.00     0.164 HD
BRANCH  29  33
HETATM   33  C   UNL     1       6.670  32.950  63.986  1.00  0.00     0.078 C 
HETATM   34  C   UNL     1       7.528  33.770  64.951  1.00  0.00     0.032 C 
HETATM   35  C   UNL     1       5.181  33.199  64.213  1.00  0.00     0.032 C 
ENDBRANCH  29  33
ENDBRANCH  26  27
ENDBRANCH  23  26
ENDBRANCH   1  20
TORSDOF 9
ENDMDL
MODEL 3
REMARK VINA RESULT:      -9.4      1.856      3.447
REMARK  9 active torsions:
REMARK  status: ('A' for Active; 'I' for Inactive)
REMARK    1  A    between atoms: C_3  and  C_4 
REMARK    2  A    between atoms: C_4  and  O_5 
REMARK    3  A    between atoms: C_8  and  C_9 
REMARK    4  A    between atoms: C_9  and  O_10 
REMARK    5  A    between atoms: O_10  and  C_11 
REMARK    6  A    between atoms: C_11  and  C_12 
REMARK    7  A    between atoms: C_15  and  C_16 
REMARK    8  A    between atoms: C_16  and  N_17 
REMARK       I    between atoms: N_17  and  C_18 
REMARK       I    between atoms: C_18  and  N_19 
REMARK    9  A    between atoms: N_19  and  C_20 
ROOT
HETATM    1  C   UNL     1       8.723  28.426  57.351  1.00  0.00     0.293 C 
HETATM    2  O   UNL     1       9.792  28.525  56.773  1.00  0.00    -0.259 OA
ENDROOT
BRANCH   1   3
HETATM    3  O   UNL     1       8.128  27.270  57.735  1.00  0.00    -0.311 OA
BRANCH   3   4
HETATM    4  C   UNL     1       7.006  26.865  56.932  1.00  0.00     0.239 C 
BRANCH   4   5
HETATM    5  C   UNL     1       7.281  25.819  55.876  1.00  0.00     0.076 A 
HETATM    6  C   UNL     1       7.393  26.112  54.520  1.00  0.00     0.073 A 
HETATM    7  C   UNL     1       7.567  25.058  53.596  1.00  0.00    -0.031 A 
HETATM    8  C   UNL     1       7.613  25.327  52.112  1.00  0.00     0.050 C 
HETATM    9  C   UNL     1       7.708  23.732  54.093  1.00  0.00    -0.000 A 
HETATM   10  C   UNL     1       7.588  23.540  55.486  1.00  0.00     0.068 A 
HETATM   11  C   UNL     1       7.955  22.596  53.283  1.00  0.00     0.014 A 
HETATM   12  N   UNL     1       7.354  24.543  56.341  1.00  0.00    -0.249 NA
HETATM   13  C   UNL     1       7.705  22.261  56.012  1.00  0.00     0.032 A 
HETATM   14  C   UNL     1       7.943  21.149  55.203  1.00  0.00     0.002 A 
HETATM   15  C   UNL     1       8.070  21.317  53.834  1.00  0.00     0.001 A 
BRANCH   6  16
HETATM   16  C   UNL     1       7.265  27.514  54.086  1.00  0.00     0.295 C 
HETATM   17  O   UNL     1       8.208  28.271  53.937  1.00  0.00    -0.259 OA
BRANCH  16  18
HETATM   18  O   UNL     1       5.955  27.790  53.878  1.00  0.00    -0.322 OA
HETATM   19  C   UNL     1       5.701  28.501  52.667  1.00  0.00     0.213 C 
ENDBRANCH  16  18
ENDBRANCH   6  16
ENDBRANCH   4   5
ENDBRANCH   3   4
ENDBRANCH   1   3
BRANCH   1  20
HETATM   20  C   UNL     1       7.961  29.604  57.854  1.00  0.00     0.039 A 
HETATM   21  C   UNL     1       8.313  30.128  59.104  1.00  0.00     0.018 A 
HETATM   22  C   UNL     1       7.520  31.109  59.710  1.00  0.00     0.010 A 
HETATM   23  C   UNL     1       6.356  31.569  59.079  1.00  0.00    -0.040 A 
HETATM   24  C   UNL     1       6.046  31.093  57.797  1.00  0.00     0.010 A 
HETATM   25  C   UNL     1       6.840  30.115  57.188  1.00  0.00     0.018 A 
BRANCH  23  26
HETATM   26  C   UNL     1       5.430  32.519  59.791  1.00  0.00     0.162 C 
BRANCH  26  27
HETATM   27  N   UNL     1       5.347  32.249  61.205  1.00  0.00    -0.339 N 
HETATM   28  C   UNL     1       5.595  33.287  62.070  1.00  0.00     0.316 C 
HETATM   29  N   UNL     1       5.610  32.854  63.370  1.00  0.00    -0.339 N 
HETATM   30  O   UNL     1       5.786  34.439  61.711  1.00  0.00    -0.247 OA
HETATM   31  H   UNL     1       5.047  32.034  63.541  1.00  0.00     0.164 HD
HETATM   32  H   UNL     1       5.686  31.351  61.513  1.00  0.00     0.164 HD
BRANCH  29  33
HETATM   33  C   UNL     1       5.818  33.745  64.509  1.00  0.00     0.078 C 
HETATM   34  C   UNL     1       4.693  33.652  65.540  1.00  0.00     0.032 C 
HETATM   35  C   UNL     1       7.187  33.547  65.156  1.00  0.00     0.032 C 
ENDBRANCH  29  33
ENDBRANCH  26  27
ENDBRANCH  23  26
ENDBRANCH   1  20
TORSDOF 9
ENDMDL
MODEL 4
REMARK VINA RESULT:      -9.2      2.063     10.198
REMARK  9 active torsions:
REMARK  status: ('A' for Active; 'I' for Inactive)
REMARK    1  A    between atoms: C_3  and  C_4 
REMARK    2  A    between atoms: C_4  and  O_5 
REMARK    3  A    between atoms: C_8  and  C_9 
REMARK    4  A    between atoms: C_9  and  O_10 
REMARK    5  A    between atoms: O_10  and  C_11 
REMARK    6  A    between atoms: C_11  and  C_12 
REMARK    7  A    between atoms: C_15  and  C_16 
REMARK    8  A    between atoms: C_16  and  N_17 
REMARK       I    between atoms: N_17  and  C_18 
REMARK       I    between atoms: C_18  and  N_19 
REMARK    9  A    between atoms: N_19  and  C_20 
ROOT
HETATM    1  C   UNL     1       9.315  29.668  57.715  1.00  0.00     0.293 C 
HETATM    2  O   UNL     1      10.402  30.005  57.279  1.00  0.00    -0.259 OA
ENDROOT
BRANCH   1   3
HETATM    3  O   UNL     1       8.743  30.111  58.862  1.00  0.00    -0.311 OA
BRANCH   3   4
HETATM    4  C   UNL     1       8.538  31.532  58.932  1.00  0.00     0.239 C 
BRANCH   4   5
HETATM    5  C   UNL     1       7.605  32.022  60.015  1.00  0.00     0.076 A 
HETATM    6  C   UNL     1       6.274  32.356  59.784  1.00  0.00     0.073 A 
HETATM    7  C   UNL     1       5.500  32.886  60.841  1.00  0.00    -0.031 A 
HETATM    8  C   UNL     1       4.078  33.334  60.612  1.00  0.00     0.050 C 
HETATM    9  C   UNL     1       6.087  32.981  62.134  1.00  0.00    -0.000 A 
HETATM   10  C   UNL     1       7.442  32.609  62.267  1.00  0.00     0.068 A 
HETATM   11  C   UNL     1       5.403  33.429  63.292  1.00  0.00     0.014 A 
HETATM   12  N   UNL     1       8.181  32.173  61.239  1.00  0.00    -0.249 NA
HETATM   13  C   UNL     1       8.057  32.699  63.508  1.00  0.00     0.032 A 
HETATM   14  C   UNL     1       7.374  33.147  64.639  1.00  0.00     0.002 A 
HETATM   15  C   UNL     1       6.042  33.511  64.531  1.00  0.00     0.001 A 
BRANCH   6  16
HETATM   16  C   UNL     1       5.731  32.202  58.424  1.00  0.00     0.295 C 
HETATM   17  O   UNL     1       5.709  33.093  57.593  1.00  0.00    -0.259 OA
BRANCH  16  18
HETATM   18  O   UNL     1       5.289  30.930  58.271  1.00  0.00    -0.322 OA
HETATM   19  C   UNL     1       5.094  30.549  56.909  1.00  0.00     0.213 C 
ENDBRANCH  16  18
ENDBRANCH   6  16
ENDBRANCH   4   5
ENDBRANCH   3   4
ENDBRANCH   1   3
BRANCH   1  20
HETATM   20  C   UNL     1       8.372  28.798  56.958  1.00  0.00     0.039 A 
HETATM   21  C   UNL     1       7.610  27.869  57.679  1.00  0.00     0.018 A 
HETATM   22  C   UNL     1       6.850  26.904  57.011  1.00  0.00     0.010 A 
HETATM   23  C   UNL     1       6.851  26.845  55.611  1.00  0.00    -0.040 A 
HETATM   24  C   UNL     1       7.558  27.819  54.891  1.00  0.00     0.010 A 
HETATM   25  C   UNL     1       8.316  28.788  55.558  1.00  0.00     0.018 A 
BRANCH  23  26
HETATM   26  C   UNL     1       6.147  25.723  54.896  1.00  0.00     0.162 C 
BRANCH  26  27
HETATM   27  N   UNL     1       6.486  24.429  55.435  1.00  0.00    -0.339 N 
HETATM   28  C   UNL     1       7.389  23.663  54.740  1.00  0.00     0.316 C 
HETATM   29  N   UNL     1       7.513  22.416  55.296  1.00  0.00    -0.339 N 
HETATM   30  O   UNL     1       7.989  24.053  53.749  1.00  0.00    -0.247 OA
HETATM   31  H   UNL     1       7.312  22.382  56.284  1.00  0.00     0.164 HD
HETATM   32  H   UNL     1       5.738  23.911  55.869  1.00  0.00     0.164 HD
BRANCH  29  33
HETATM   33  C   UNL     1       8.428  21.399  54.785  1.00  0.00     0.078 C 
HETATM   34  C   UNL     1       8.858  20.403  55.862  1.00  0.00     0.032 C 
HETATM   35  C   UNL     1       7.871  20.685  53.555  1.00  0.00     0.032 C 
ENDBRANCH  29  33
ENDBRANCH  26  27
ENDBRANCH  23  26
ENDBRANCH   1  20
TORSDOF 9
ENDMDL
MODEL 5
REMARK VINA RESULT:      -9.2      2.117     10.021
REMARK  9 active torsions:
REMARK  status: ('A' for Active; 'I' for Inactive)
REMARK    1  A    between atoms: C_3  and  C_4 
REMARK    2  A    between atoms: C_4  and  O_5 
REMARK    3  A    between atoms: C_8  and  C_9 
REMARK    4  A    between atoms: C_9  and  O_10 
REMARK    5  A    between atoms: O_10  and  C_11 
REMARK    6  A    between atoms: C_11  and  C_12 
REMARK    7  A    between atoms: C_15  and  C_16 
REMARK    8  A    between atoms: C_16  and  N_17 
REMARK       I    between atoms: N_17  and  C_18 
REMARK       I    between atoms: C_18  and  N_19 
REMARK    9  A    between atoms: N_19  and  C_20 
ROOT
HETATM    1  C   UNL     1       5.306  30.708  56.741  1.00  0.00     0.293 C 
HETATM    2  O   UNL     1       4.772  31.340  55.846  1.00  0.00    -0.259 OA
ENDROOT
BRANCH   1   3
HETATM    3  O   UNL     1       5.310  31.036  58.057  1.00  0.00    -0.311 OA
BRANCH   3   4
HETATM    4  C   UNL     1       6.035  32.234  58.384  1.00  0.00     0.239 C 
BRANCH   4   5
HETATM    5  C   UNL     1       6.658  32.284  59.760  1.00  0.00     0.076 A 
HETATM    6  C   UNL     1       7.785  31.549  60.117  1.00  0.00     0.073 A 
HETATM    7  C   UNL     1       8.247  31.594  61.451  1.00  0.00    -0.031 A 
HETATM    8  C   UNL     1       9.417  30.751  61.895  1.00  0.00     0.050 C 
HETATM    9  C   UNL     1       7.592  32.461  62.370  1.00  0.00    -0.000 A 
HETATM   10  C   UNL     1       6.463  33.172  61.909  1.00  0.00     0.068 A 
HETATM   11  C   UNL     1       7.996  32.653  63.715  1.00  0.00     0.014 A 
HETATM   12  N   UNL     1       5.997  33.063  60.659  1.00  0.00    -0.249 NA
HETATM   13  C   UNL     1       5.786  34.017  62.776  1.00  0.00     0.032 A 
HETATM   14  C   UNL     1       6.191  34.193  64.100  1.00  0.00     0.002 A 
HETATM   15  C   UNL     1       7.300  33.510  64.571  1.00  0.00     0.001 A 
BRANCH   6  16
HETATM   16  C   UNL     1       8.425  30.697  59.100  1.00  0.00     0.295 C 
HETATM   17  O   UNL     1       8.259  29.493  59.016  1.00  0.00    -0.259 OA
BRANCH  16  18
HETATM   18  O   UNL     1       9.193  31.474  58.298  1.00  0.00    -0.322 OA
HETATM   19  C   UNL     1      10.382  30.830  57.840  1.00  0.00     0.213 C 
ENDBRANCH  16  18
ENDBRANCH   6  16
ENDBRANCH   4   5
ENDBRANCH   3   4
ENDBRANCH   1   3
BRANCH   1  20
HETATM   20  C   UNL     1       5.931  29.372  56.530  1.00  0.00     0.039 A 
HETATM   21  C   UNL     1       5.373  28.272  57.194  1.00  0.00     0.018 A 
HETATM   22  C   UNL     1       6.022  27.033  57.183  1.00  0.00     0.010 A 
HETATM   23  C   UNL     1       7.247  26.881  56.520  1.00  0.00    -0.040 A 
HETATM   24  C   UNL     1       7.768  27.964  55.798  1.00  0.00     0.010 A 
HETATM   25  C   UNL     1       7.117  29.203  55.803  1.00  0.00     0.018 A 
BRANCH  23  26
HETATM   26  C   UNL     1       8.013  25.589  56.625  1.00  0.00     0.162 C 
BRANCH  26  27
HETATM   27  N   UNL     1       7.541  24.593  55.695  1.00  0.00    -0.339 N 
HETATM   28  C   UNL     1       8.184  23.379  55.675  1.00  0.00     0.316 C 
HETATM   29  N   UNL     1       7.717  22.588  54.659  1.00  0.00    -0.339 N 
HETATM   30  O   UNL     1       9.063  23.064  56.464  1.00  0.00    -0.247 OA
HETATM   31  H   UNL     1       6.765  22.783  54.386  1.00  0.00     0.164 HD
HETATM   32  H   UNL     1       7.240  24.926  54.792  1.00  0.00     0.164 HD
BRANCH  29  33
HETATM   33  C   UNL     1       8.194  21.229  54.417  1.00  0.00     0.078 C 
HETATM   34  C   UNL     1       7.754  20.250  55.506  1.00  0.00     0.032 C 
HETATM   35  C   UNL     1       7.819  20.722  53.026  1.00  0.00     0.032 C 
ENDBRANCH  29  33
ENDBRANCH  26  27
ENDBRANCH  23  26
ENDBRANCH   1  20
TORSDOF 9
ENDMDL
MODEL 6
REMARK VINA RESULT:      -9.1      2.380     10.030
REMARK  9 active torsions:
REMARK  status: ('A' for Active; 'I' for Inactive)
REMARK    1  A    between atoms: C_3  and  C_4 
REMARK    2  A    between atoms: C_4  and  O_5 
REMARK    3  A    between atoms: C_8  and  C_9 
REMARK    4  A    between atoms: C_9  and  O_10 
REMARK    5  A    between atoms: O_10  and  C_11 
REMARK    6  A    between atoms: C_11  and  C_12 
REMARK    7  A    between atoms: C_15  and  C_16 
REMARK    8  A    between atoms: C_16  and  N_17 
REMARK       I    between atoms: N_17  and  C_18 
REMARK       I    between atoms: C_18  and  N_19 
REMARK    9  A    between atoms: N_19  and  C_20 
ROOT
HETATM    1  C   UNL     1       3.948  31.364  57.410  1.00  0.00     0.293 C 
HETATM    2  O   UNL     1       3.031  32.157  57.287  1.00  0.00    -0.259 OA
ENDROOT
BRANCH   1   3
HETATM    3  O   UNL     1       4.728  31.211  58.508  1.00  0.00    -0.311 OA
BRANCH   3   4
HETATM    4  C   UNL     1       5.895  32.049  58.549  1.00  0.00     0.239 C 
BRANCH   4   5
HETATM    5  C   UNL     1       6.571  32.192  59.894  1.00  0.00     0.076 A 
HETATM    6  C   UNL     1       7.775  31.571  60.214  1.00  0.00     0.073 A 
HETATM    7  C   UNL     1       8.289  31.693  61.524  1.00  0.00    -0.031 A 
HETATM    8  C   UNL     1       9.549  30.971  61.934  1.00  0.00     0.050 C 
HETATM    9  C   UNL     1       7.598  32.522  62.453  1.00  0.00    -0.000 A 
HETATM   10  C   UNL     1       6.389  33.115  62.029  1.00  0.00     0.068 A 
HETATM   11  C   UNL     1       8.041  32.784  63.774  1.00  0.00     0.014 A 
HETATM   12  N   UNL     1       5.881  32.932  60.804  1.00  0.00    -0.249 NA
HETATM   13  C   UNL     1       5.677  33.918  62.907  1.00  0.00     0.032 A 
HETATM   14  C   UNL     1       6.121  34.165  64.206  1.00  0.00     0.002 A 
HETATM   15  C   UNL     1       7.307  33.597  64.641  1.00  0.00     0.001 A 
BRANCH   6  16
HETATM   16  C   UNL     1       8.445  30.754  59.189  1.00  0.00     0.295 C 
HETATM   17  O   UNL     1       8.286  29.552  59.063  1.00  0.00    -0.259 OA
BRANCH  16  18
HETATM   18  O   UNL     1       9.231  31.559  58.433  1.00  0.00    -0.322 OA
HETATM   19  C   UNL     1      10.307  30.874  57.792  1.00  0.00     0.213 C 
ENDBRANCH  16  18
ENDBRANCH   6  16
ENDBRANCH   4   5
ENDBRANCH   3   4
ENDBRANCH   1   3
BRANCH   1  20
HETATM   20  C   UNL     1       4.263  30.324  56.391  1.00  0.00     0.039 A 
HETATM   21  C   UNL     1       4.050  30.639  55.042  1.00  0.00     0.018 A 
HETATM   22  C   UNL     1       4.150  29.650  54.058  1.00  0.00     0.010 A 
HETATM   23  C   UNL     1       4.450  28.328  54.411  1.00  0.00    -0.040 A 
HETATM   24  C   UNL     1       4.732  28.030  55.752  1.00  0.00     0.010 A 
HETATM   25  C   UNL     1       4.637  29.019  56.737  1.00  0.00     0.018 A 
BRANCH  23  26
HETATM   26  C   UNL     1       4.420  27.238  53.372  1.00  0.00     0.162 C 
BRANCH  26  27
HETATM   27  N   UNL     1       4.924  25.985  53.877  1.00  0.00    -0.339 N 
HETATM   28  C   UNL     1       6.221  25.648  53.575  1.00  0.00     0.316 C 
HETATM   29  N   UNL     1       6.516  24.380  54.005  1.00  0.00    -0.339 N 
HETATM   30  O   UNL     1       6.996  26.389  52.990  1.00  0.00    -0.247 OA
HETATM   31  H   UNL     1       5.971  24.075  54.798  1.00  0.00     0.164 HD
HETATM   32  H   UNL     1       4.278  25.210  53.888  1.00  0.00     0.164 HD
BRANCH  29  33
HETATM   33  C   UNL     1       7.833  23.768  53.850  1.00  0.00     0.078 C 
HETATM   34  C   UNL     1       8.538  23.545  55.188  1.00  0.00     0.032 C 
HETATM   35  C   UNL     1       7.780  22.484  53.024  1.00  0.00     0.032 C 
ENDBRANCH  29  33
ENDBRANCH  26  27
ENDBRANCH  23  26
ENDBRANCH   1  20
TORSDOF 9
ENDMDL
MODEL 7
REMARK VINA RESULT:      -8.9      2.574      4.615
REMARK  9 active torsions:
REMARK  status: ('A' for Active; 'I' for Inactive)
REMARK    1  A    between atoms: C_3  and  C_4 
REMARK    2  A    between atoms: C_4  and  O_5 
REMARK    3  A    between atoms: C_8  and  C_9 
REMARK    4  A    between atoms: C_9  and  O_10 
REMARK    5  A    between atoms: O_10  and  C_11 
REMARK    6  A    between atoms: C_11  and  C_12 
REMARK    7  A    between atoms: C_15  and  C_16 
REMARK    8  A    between atoms: C_16  and  N_17 
REMARK       I    between atoms: N_17  and  C_18 
REMARK       I    between atoms: C_18  and  N_19 
REMARK    9  A    between atoms: N_19  and  C_20 
ROOT
HETATM    1  C   UNL     1       8.691  29.854  58.316  1.00  0.00     0.293 C 
HETATM    2  O   UNL     1       9.429  30.147  57.391  1.00  0.00    -0.259 OA
ENDROOT
BRANCH   1   3
HETATM    3  O   UNL     1       8.019  28.685  58.461  1.00  0.00    -0.311 OA
BRANCH   3   4
HETATM    4  C   UNL     1       6.903  28.509  57.573  1.00  0.00     0.239 C 
BRANCH   4   5
HETATM    5  C   UNL     1       6.882  27.230  56.769  1.00  0.00     0.076 A 
HETATM    6  C   UNL     1       6.122  27.065  55.614  1.00  0.00     0.073 A 
HETATM    7  C   UNL     1       6.099  25.805  54.975  1.00  0.00    -0.031 A 
HETATM    8  C   UNL     1       5.227  25.563  53.767  1.00  0.00     0.050 C 
HETATM    9  C   UNL     1       6.925  24.765  55.488  1.00  0.00    -0.000 A 
HETATM   10  C   UNL     1       7.665  25.035  56.659  1.00  0.00     0.068 A 
HETATM   11  C   UNL     1       7.048  23.480  54.904  1.00  0.00     0.014 A 
HETATM   12  N   UNL     1       7.621  26.214  57.291  1.00  0.00    -0.249 NA
HETATM   13  C   UNL     1       8.472  24.045  57.201  1.00  0.00     0.032 A 
HETATM   14  C   UNL     1       8.581  22.781  56.619  1.00  0.00     0.002 A 
HETATM   15  C   UNL     1       7.868  22.498  55.466  1.00  0.00     0.001 A 
BRANCH   6  16
HETATM   16  C   UNL     1       5.316  28.198  55.129  1.00  0.00     0.295 C 
HETATM   17  O   UNL     1       5.683  28.977  54.267  1.00  0.00    -0.259 OA
BRANCH  16  18
HETATM   18  O   UNL     1       4.131  28.204  55.785  1.00  0.00    -0.322 OA
HETATM   19  C   UNL     1       3.718  29.501  56.216  1.00  0.00     0.213 C 
ENDBRANCH  16  18
ENDBRANCH   6  16
ENDBRANCH   4   5
ENDBRANCH   3   4
ENDBRANCH   1   3
BRANCH   1  20
HETATM   20  C   UNL     1       8.527  30.710  59.524  1.00  0.00     0.039 A 
HETATM   21  C   UNL     1       9.509  30.637  60.521  1.00  0.00     0.018 A 
HETATM   22  C   UNL     1       9.318  31.272  61.752  1.00  0.00     0.010 A 
HETATM   23  C   UNL     1       8.135  31.978  62.010  1.00  0.00    -0.040 A 
HETATM   24  C   UNL     1       7.185  32.108  60.985  1.00  0.00     0.010 A 
HETATM   25  C   UNL     1       7.377  31.478  59.752  1.00  0.00     0.018 A 
BRANCH  23  26
HETATM   26  C   UNL     1       7.868  32.542  63.380  1.00  0.00     0.162 C 
BRANCH  26  27
HETATM   27  N   UNL     1       6.459  32.619  63.678  1.00  0.00    -0.339 N 
HETATM   28  C   UNL     1       6.058  33.500  64.652  1.00  0.00     0.316 C 
HETATM   29  N   UNL     1       4.720  33.369  64.917  1.00  0.00    -0.339 N 
HETATM   30  O   UNL     1       6.811  34.286  65.208  1.00  0.00    -0.247 OA
HETATM   31  H   UNL     1       4.176  33.022  64.141  1.00  0.00     0.164 HD
HETATM   32  H   UNL     1       5.946  31.751  63.655  1.00  0.00     0.164 HD
BRANCH  29  33
HETATM   33  C   UNL     1       4.010  34.200  65.886  1.00  0.00     0.078 C 
HETATM   34  C   UNL     1       4.581  34.073  67.298  1.00  0.00     0.032 C 
HETATM   35  C   UNL     1       3.928  35.660  65.445  1.00  0.00     0.032 C 
ENDBRANCH  29  33
ENDBRANCH  26  27
ENDBRANCH  23  26
ENDBRANCH   1  20
TORSDOF 9
ENDMDL
MODEL 8
REMARK VINA RESULT:      -8.8      3.690      7.098
REMARK  9 active torsions:
REMARK  status: ('A' for Active; 'I' for Inactive)
REMARK    1  A    between atoms: C_3  and  C_4 
REMARK    2  A    between atoms: C_4  and  O_5 
REMARK    3  A    between atoms: C_8  and  C_9 
REMARK    4  A    between atoms: C_9  and  O_10 
REMARK    5  A    between atoms: O_10  and  C_11 
REMARK    6  A    between atoms: C_11  and  C_12 
REMARK    7  A    between atoms: C_15  and  C_16 
REMARK    8  A    between atoms: C_16  and  N_17 
REMARK       I    between atoms: N_17  and  C_18 
REMARK       I    between atoms: C_18  and  N_19 
REMARK    9  A    between atoms: N_19  and  C_20 
ROOT
HETATM    1  C   UNL     1       8.472  31.487  60.791  1.00  0.00     0.293 C 
HETATM    2  O   UNL     1       9.682  31.339  60.760  1.00  0.00    -0.259 OA
ENDROOT
BRANCH   1   3
HETATM    3  O   UNL     1       7.567  30.820  60.033  1.00  0.00    -0.311 OA
BRANCH   3   4
HETATM    4  C   UNL     1       7.987  30.540  58.687  1.00  0.00     0.239 C 
BRANCH   4   5
HETATM    5  C   UNL     1       7.276  29.405  57.986  1.00  0.00     0.076 A 
HETATM    6  C   UNL     1       6.049  29.550  57.346  1.00  0.00     0.073 A 
HETATM    7  C   UNL     1       5.419  28.414  56.791  1.00  0.00    -0.031 A 
HETATM    8  C   UNL     1       4.053  28.516  56.159  1.00  0.00     0.050 C 
HETATM    9  C   UNL     1       6.105  27.168  56.829  1.00  0.00    -0.000 A 
HETATM   10  C   UNL     1       7.350  27.126  57.494  1.00  0.00     0.068 A 
HETATM   11  C   UNL     1       5.619  25.969  56.251  1.00  0.00     0.014 A 
HETATM   12  N   UNL     1       7.900  28.199  58.076  1.00  0.00    -0.249 NA
HETATM   13  C   UNL     1       8.045  25.928  57.568  1.00  0.00     0.032 A 
HETATM   14  C   UNL     1       7.554  24.753  56.998  1.00  0.00     0.002 A 
HETATM   15  C   UNL     1       6.337  24.774  56.336  1.00  0.00     0.001 A 
BRANCH   6  16
HETATM   16  C   UNL     1       5.415  30.880  57.323  1.00  0.00     0.295 C 
HETATM   17  O   UNL     1       5.569  31.693  56.428  1.00  0.00    -0.259 OA
BRANCH  16  18
HETATM   18  O   UNL     1       4.650  31.019  58.433  1.00  0.00    -0.322 OA
HETATM   19  C   UNL     1       4.162  32.347  58.632  1.00  0.00     0.213 C 
ENDBRANCH  16  18
ENDBRANCH   6  16
ENDBRANCH   4   5
ENDBRANCH   3   4
ENDBRANCH   1   3
BRANCH   1  20
HETATM   20  C   UNL     1       7.786  32.350  61.794  1.00  0.00     0.039 A 
HETATM   21  C   UNL     1       8.315  32.397  63.091  1.00  0.00     0.018 A 
HETATM   22  C   UNL     1       7.615  33.037  64.118  1.00  0.00     0.010 A 
HETATM   23  C   UNL     1       6.369  33.627  63.867  1.00  0.00    -0.040 A 
HETATM   24  C   UNL     1       5.876  33.639  62.554  1.00  0.00     0.010 A 
HETATM   25  C   UNL     1       6.577  33.003  61.524  1.00  0.00     0.018 A 
BRANCH  23  26
HETATM   26  C   UNL     1       5.552  34.192  64.999  1.00  0.00     0.162 C 
BRANCH  26  27
HETATM   27  N   UNL     1       5.990  33.711  66.285  1.00  0.00    -0.339 N 
HETATM   28  C   UNL     1       5.787  34.522  67.375  1.00  0.00     0.316 C 
HETATM   29  N   UNL     1       6.369  33.997  68.499  1.00  0.00    -0.339 N 
HETATM   30  O   UNL     1       5.173  35.578  67.330  1.00  0.00    -0.247 OA
HETATM   31  H   UNL     1       6.453  32.991  68.490  1.00  0.00     0.164 HD
HETATM   32  H   UNL     1       6.853  33.190  66.302  1.00  0.00     0.164 HD
BRANCH  29  33
HETATM   33  C   UNL     1       6.286  34.628  69.814  1.00  0.00     0.078 C 
HETATM   34  C   UNL     1       6.193  33.608  70.949  1.00  0.00     0.032 C 
HETATM   35  C   UNL     1       7.419  35.625  70.049  1.00  0.00     0.032 C 
ENDBRANCH  29  33
ENDBRANCH  26  27
ENDBRANCH  23  26
ENDBRANCH   1  20
TORSDOF 9
ENDMDL
MODEL 9
REMARK VINA RESULT:      -8.6      6.674     10.347
REMARK  9 active torsions:
REMARK  status: ('A' for Active; 'I' for Inactive)
REMARK    1  A    between atoms: C_3  and  C_4 
REMARK    2  A    between atoms: C_4  and  O_5 
REMARK    3  A    between atoms: C_8  and  C_9 
REMARK    4  A    between atoms: C_9  and  O_10 
REMARK    5  A    between atoms: O_10  and  C_11 
REMARK    6  A    between atoms: C_11  and  C_12 
REMARK    7  A    between atoms: C_15  and  C_16 
REMARK    8  A    between atoms: C_16  and  N_17 
REMARK       I    between atoms: N_17  and  C_18 
REMARK       I    between atoms: C_18  and  N_19 
REMARK    9  A    between atoms: N_19  and  C_20 
ROOT
HETATM    1  C   UNL     1       5.311  27.639  50.833  1.00  0.00     0.293 C 
HETATM    2  O   UNL     1       5.634  28.683  51.374  1.00  0.00    -0.259 OA
ENDROOT
BRANCH   1   3
HETATM    3  O   UNL     1       5.668  26.393  51.228  1.00  0.00    -0.311 OA
BRANCH   3   4
HETATM    4  C   UNL     1       5.157  25.989  52.510  1.00  0.00     0.239 C 
BRANCH   4   5
HETATM    5  C   UNL     1       6.106  25.216  53.397  1.00  0.00     0.076 A 
HETATM    6  C   UNL     1       6.528  25.669  54.644  1.00  0.00     0.073 A 
HETATM    7  C   UNL     1       7.483  24.919  55.365  1.00  0.00    -0.031 A 
HETATM    8  C   UNL     1       8.024  25.416  56.684  1.00  0.00     0.050 C 
HETATM    9  C   UNL     1       7.920  23.676  54.829  1.00  0.00    -0.000 A 
HETATM   10  C   UNL     1       7.427  23.300  53.560  1.00  0.00     0.068 A 
HETATM   11  C   UNL     1       8.819  22.795  55.480  1.00  0.00     0.014 A 
HETATM   12  N   UNL     1       6.575  24.058  52.859  1.00  0.00    -0.249 NA
HETATM   13  C   UNL     1       7.839  22.102  52.994  1.00  0.00     0.032 A 
HETATM   14  C   UNL     1       8.729  21.247  53.644  1.00  0.00     0.002 A 
HETATM   15  C   UNL     1       9.220  21.593  54.892  1.00  0.00     0.001 A 
BRANCH   6  16
HETATM   16  C   UNL     1       6.007  26.953  55.144  1.00  0.00     0.295 C 
HETATM   17  O   UNL     1       5.031  27.058  55.866  1.00  0.00    -0.259 OA
BRANCH  16  18
HETATM   18  O   UNL     1       6.793  27.954  54.679  1.00  0.00    -0.322 OA
HETATM   19  C   UNL     1       7.109  28.940  55.663  1.00  0.00     0.213 C 
ENDBRANCH  16  18
ENDBRANCH   6  16
ENDBRANCH   4   5
ENDBRANCH   3   4
ENDBRANCH   1   3
BRANCH   1  20
HETATM   20  C   UNL     1       4.337  27.576  49.707  1.00  0.00     0.039 A 
HETATM   21  C   UNL     1       3.175  28.354  49.800  1.00  0.00     0.018 A 
HETATM   22  C   UNL     1       2.142  28.198  48.870  1.00  0.00     0.010 A 
HETATM   23  C   UNL     1       2.250  27.252  47.842  1.00  0.00    -0.040 A 
HETATM   24  C   UNL     1       3.443  26.526  47.711  1.00  0.00     0.010 A 
HETATM   25  C   UNL     1       4.479  26.684  48.637  1.00  0.00     0.018 A 
BRANCH  23  26
HETATM   26  C   UNL     1       1.084  26.986  46.927  1.00  0.00     0.162 C 
BRANCH  26  27
HETATM   27  N   UNL     1       0.645  28.174  46.238  1.00  0.00    -0.339 N 
HETATM   28  C   UNL     1      -0.305  28.030  45.257  1.00  0.00     0.316 C 
HETATM   29  N   UNL     1      -0.526  29.215  44.604  1.00  0.00    -0.339 N 
HETATM   30  O   UNL     1      -0.865  26.974  45.003  1.00  0.00    -0.247 OA
HETATM   31  H   UNL     1      -0.338  30.035  45.160  1.00  0.00     0.164 HD
HETATM   32  H   UNL     1       1.348  28.870  46.047  1.00  0.00     0.164 HD
BRANCH  29  33
HETATM   33  C   UNL     1      -1.508  29.369  43.534  1.00  0.00     0.078 C 
HETATM   34  C   UNL     1      -2.828  29.961  44.030  1.00  0.00     0.032 C 
HETATM   35  C   UNL     1      -0.953  30.156  42.348  1.00  0.00     0.032 C 
ENDBRANCH  29  33
ENDBRANCH  26  27
ENDBRANCH  23  26
ENDBRANCH   1  20
TORSDOF 9
ENDMDL
MODEL 10
REMARK VINA RESULT:      -8.6      5.379     12.428
REMARK  9 active torsions:
REMARK  status: ('A' for Active; 'I' for Inactive)
REMARK    1  A    between atoms: C_3  and  C_4 
REMARK    2  A    between atoms: C_4  and  O_5 
REMARK    3  A    between atoms: C_8  and  C_9 
REMARK    4  A    between atoms: C_9  and  O_10 
REMARK    5  A    between atoms: O_10  and  C_11 
REMARK    6  A    between atoms: C_11  and  C_12 
REMARK    7  A    between atoms: C_15  and  C_16 
REMARK    8  A    between atoms: C_16  and  N_17 
REMARK       I    between atoms: N_17  and  C_18 
REMARK       I    between atoms: C_18  and  N_19 
REMARK    9  A    between atoms: N_19  and  C_20 
ROOT
HETATM    1  C   UNL     1       4.592  33.184  64.204  1.00  0.00     0.293 C 
HETATM    2  O   UNL     1       4.522  33.238  65.420  1.00  0.00    -0.259 OA
ENDROOT
BRANCH   1   3
HETATM    3  O   UNL     1       3.561  33.334  63.338  1.00  0.00    -0.311 OA
BRANCH   3   4
HETATM    4  C   UNL     1       2.936  34.629  63.350  1.00  0.00     0.239 C 
BRANCH   4   5
HETATM    5  C   UNL     1       3.646  35.722  62.587  1.00  0.00     0.076 A 
HETATM    6  C   UNL     1       3.511  35.909  61.214  1.00  0.00     0.073 A 
HETATM    7  C   UNL     1       4.279  36.905  60.571  1.00  0.00    -0.031 A 
HETATM    8  C   UNL     1       4.220  37.085  59.074  1.00  0.00     0.050 C 
HETATM    9  C   UNL     1       5.108  37.745  61.367  1.00  0.00    -0.000 A 
HETATM   10  C   UNL     1       5.170  37.481  62.752  1.00  0.00     0.068 A 
HETATM   11  C   UNL     1       5.875  38.823  60.860  1.00  0.00     0.014 A 
HETATM   12  N   UNL     1       4.487  36.488  63.334  1.00  0.00    -0.249 NA
HETATM   13  C   UNL     1       5.976  38.268  63.563  1.00  0.00     0.032 A 
HETATM   14  C   UNL     1       6.731  39.323  63.050  1.00  0.00     0.002 A 
HETATM   15  C   UNL     1       6.679  39.603  61.694  1.00  0.00     0.001 A 
BRANCH   6  16
HETATM   16  C   UNL     1       2.610  35.016  60.464  1.00  0.00     0.295 C 
HETATM   17  O   UNL     1       2.944  33.935  60.010  1.00  0.00    -0.259 OA
BRANCH  16  18
HETATM   18  O   UNL     1       1.387  35.594  60.387  1.00  0.00    -0.322 OA
HETATM   19  C   UNL     1       0.314  34.716  60.731  1.00  0.00     0.213 C 
ENDBRANCH  16  18
ENDBRANCH   6  16
ENDBRANCH   4   5
ENDBRANCH   3   4
ENDBRANCH   1   3
BRANCH   1  20
HETATM   20  C   UNL     1       5.886  33.081  63.471  1.00  0.00     0.039 A 
HETATM   21  C   UNL     1       5.841  32.921  62.080  1.00  0.00     0.018 A 
HETATM   22  C   UNL     1       7.007  32.634  61.362  1.00  0.00     0.010 A 
HETATM   23  C   UNL     1       8.231  32.487  62.027  1.00  0.00    -0.040 A 
HETATM   24  C   UNL     1       8.284  32.717  63.410  1.00  0.00     0.010 A 
HETATM   25  C   UNL     1       7.120  33.009  64.129  1.00  0.00     0.018 A 
BRANCH  23  26
HETATM   26  C   UNL     1       9.457  32.041  61.275  1.00  0.00     0.162 C 
BRANCH  26  27
HETATM   27  N   UNL     1       9.179  30.959  60.364  1.00  0.00    -0.339 N 
HETATM   28  C   UNL     1       9.541  31.121  59.049  1.00  0.00     0.316 C 
HETATM   29  N   UNL     1       9.097  30.076  58.281  1.00  0.00    -0.339 N 
HETATM   30  O   UNL     1      10.168  32.083  58.631  1.00  0.00    -0.247 OA
HETATM   31  H   UNL     1       8.989  29.209  58.785  1.00  0.00     0.164 HD
HETATM   32  H   UNL     1       8.314  30.461  60.506  1.00  0.00     0.164 HD
BRANCH  29  33
HETATM   33  C   UNL     1       9.365  29.963  56.850  1.00  0.00     0.078 C 
HETATM   34  C   UNL     1      10.783  29.476  56.554  1.00  0.00     0.032 C 
HETATM   35  C   UNL     1       8.320  29.112  56.131  1.00  0.00     0.032 C 
ENDBRANCH  29  33
ENDBRANCH  26  27
ENDBRANCH  23  26
ENDBRANCH   1  20
TORSDOF 9
ENDMDL
