MODEL 1
REMARK VINA RESULT:      -8.9      0.000      0.000
REMARK  4 active torsions:
REMARK  status: ('A' for Active; 'I' for Inactive)
REMARK    1  A    between atoms: C_2  and  C_3 
REMARK    2  A    between atoms: C_7  and  C_8 
REMARK    3  A    between atoms: C_8  and  N_9 
REMARK       I    between atoms: N_9  and  C_10 
REMARK       I    between atoms: C_10  and  N_11 
REMARK    4  A    between atoms: N_11  and  C_12 
ROOT
HETATM    1  N   UNL     1       6.880  26.928  54.913  1.00  0.00    -0.333 N 
HETATM    2  C   UNL     1       6.755  25.564  55.151  1.00  0.00     0.322 C 
HETATM    3  N   UNL     1       7.801  24.811  54.675  1.00  0.00    -0.307 N 
HETATM    4  O   UNL     1       5.800  25.112  55.780  1.00  0.00    -0.247 OA
HETATM    5  C   UNL     1       7.653  27.516  53.825  1.00  0.00     0.155 C 
HETATM    6  H   UNL     1       8.666  25.317  54.531  1.00  0.00     0.170 HD
ENDROOT
BRANCH   1   7
HETATM    7  C   UNL     1       6.069  27.839  55.709  1.00  0.00     0.185 C 
BRANCH   7   8
HETATM    8  C   UNL     1       6.880  28.474  56.774  1.00  0.00     0.047 A 
HETATM    9  N   UNL     1       7.997  27.875  57.284  1.00  0.00    -0.280 N 
HETATM   10  N   UNL     1       8.635  28.622  58.199  1.00  0.00    -0.178 NA
HETATM   11  H   UNL     1       8.370  26.959  57.039  1.00  0.00     0.189 HD
HETATM   12  C   UNL     1       7.911  29.747  58.280  1.00  0.00     0.064 A 
HETATM   13  C   UNL     1       6.795  29.695  57.404  1.00  0.00     0.058 A 
BRANCH  12  14
HETATM   14  C   UNL     1       8.335  30.902  59.174  1.00  0.00    -0.005 C 
HETATM   15  C   UNL     1       9.624  31.536  58.613  1.00  0.00     0.021 C 
HETATM   16  C   UNL     1       8.611  30.445  60.623  1.00  0.00     0.021 C 
HETATM   17  C   UNL     1       7.234  31.981  59.228  1.00  0.00     0.021 C 
ENDBRANCH  12  14
ENDBRANCH   7   8
ENDBRANCH   1   7
BRANCH   3  18
HETATM   18  C   UNL     1       7.936  23.401  54.713  1.00  0.00     0.064 A 
HETATM   19  C   UNL     1       8.313  22.793  55.926  1.00  0.00     0.099 A 
HETATM   20 CL   UNL     1       8.591  23.749  57.344  1.00  0.00    -0.079 Cl
HETATM   21  C   UNL     1       8.452  21.405  56.004  1.00  0.00     0.143 A 
HETATM   22  F   UNL     1       8.795  20.818  57.160  1.00  0.00    -0.204 F 
HETATM   23  C   UNL     1       8.236  20.604  54.892  1.00  0.00     0.086 A 
HETATM   24  C   UNL     1       7.882  21.207  53.694  1.00  0.00     0.121 A 
HETATM   25  F   UNL     1       7.685  20.444  52.611  1.00  0.00    -0.206 F 
HETATM   26  C   UNL     1       7.731  22.590  53.592  1.00  0.00     0.073 A 
ENDBRANCH   3  18
TORSDOF 4
ENDMDL
MODEL 2
REMARK VINA RESULT:      -8.8      1.106      2.002
REMARK  4 active torsions:
REMARK  status: ('A' for Active; 'I' for Inactive)
REMARK    1  A    between atoms: C_2  and  C_3 
REMARK    2  A    between atoms: C_7  and  C_8 
REMARK    3  A    between atoms: C_8  and  N_9 
REMARK       I    between atoms: N_9  and  C_10 
REMARK       I    between atoms: C_10  and  N_11 
REMARK    4  A    between atoms: N_11  and  C_12 
ROOT
HETATM    1  N   UNL     1       6.920  27.106  55.189  1.00  0.00    -0.333 N 
HETATM    2  C   UNL     1       6.794  25.758  55.504  1.00  0.00     0.322 C 
HETATM    3  N   UNL     1       7.803  24.967  55.008  1.00  0.00    -0.307 N 
HETATM    4  O   UNL     1       5.872  25.352  56.209  1.00  0.00    -0.247 OA
HETATM    5  C   UNL     1       7.635  27.627  54.029  1.00  0.00     0.155 C 
HETATM    6  H   UNL     1       8.663  25.453  54.788  1.00  0.00     0.170 HD
ENDROOT
BRANCH   1   7
HETATM    7  C   UNL     1       6.167  28.068  55.982  1.00  0.00     0.185 C 
BRANCH   7   8
HETATM    8  C   UNL     1       7.035  28.712  56.995  1.00  0.00     0.047 A 
HETATM    9  N   UNL     1       8.305  28.271  57.241  1.00  0.00    -0.280 N 
HETATM   10  N   UNL     1       8.961  29.010  58.149  1.00  0.00    -0.178 NA
HETATM   11  H   UNL     1       8.773  27.474  56.814  1.00  0.00     0.189 HD
HETATM   12  C   UNL     1       8.090  29.967  58.499  1.00  0.00     0.064 A 
HETATM   13  C   UNL     1       6.863  29.815  57.801  1.00  0.00     0.058 A 
BRANCH  12  14
HETATM   14  C   UNL     1       8.469  31.068  59.478  1.00  0.00    -0.005 C 
HETATM   15  C   UNL     1       9.718  31.807  58.956  1.00  0.00     0.021 C 
HETATM   16  C   UNL     1       8.788  30.512  60.883  1.00  0.00     0.021 C 
HETATM   17  C   UNL     1       7.318  32.083  59.628  1.00  0.00     0.021 C 
ENDBRANCH  12  14
ENDBRANCH   7   8
ENDBRANCH   1   7
BRANCH   3  18
HETATM   18  C   UNL     1       7.924  23.560  55.111  1.00  0.00     0.064 A 
HETATM   19  C   UNL     1       7.786  22.784  53.945  1.00  0.00     0.099 A 
HETATM   20 CL   UNL     1       7.490  23.537  52.413  1.00  0.00    -0.079 Cl
HETATM   21  C   UNL     1       7.903  21.393  54.006  1.00  0.00     0.143 A 
HETATM   22  F   UNL     1       7.789  20.648  52.896  1.00  0.00    -0.204 F 
HETATM   23  C   UNL     1       8.142  20.751  55.214  1.00  0.00     0.086 A 
HETATM   24  C   UNL     1       8.260  21.517  56.364  1.00  0.00     0.121 A 
HETATM   25  F   UNL     1       8.476  20.906  57.536  1.00  0.00    -0.206 F 
HETATM   26  C   UNL     1       8.152  22.906  56.327  1.00  0.00     0.073 A 
ENDBRANCH   3  18
TORSDOF 4
ENDMDL
MODEL 3
REMARK VINA RESULT:      -8.8      3.812      6.330
REMARK  4 active torsions:
REMARK  status: ('A' for Active; 'I' for Inactive)
REMARK    1  A    between atoms: C_2  and  C_3 
REMARK    2  A    between atoms: C_7  and  C_8 
REMARK    3  A    between atoms: C_8  and  N_9 
REMARK       I    between atoms: N_9  and  C_10 
REMARK       I    between atoms: C_10  and  N_11 
REMARK    4  A    between atoms: N_11  and  C_12 
ROOT
HETATM    1  N   UNL     1       6.430  26.308  53.487  1.00  0.00    -0.333 N 
HETATM    2  C   UNL     1       6.459  24.919  53.524  1.00  0.00     0.322 C 
HETATM    3  N   UNL     1       7.534  24.395  54.202  1.00  0.00    -0.307 N 
HETATM    4  O   UNL     1       5.559  24.248  53.021  1.00  0.00    -0.247 OA
HETATM    5  C   UNL     1       7.601  27.169  53.600  1.00  0.00     0.155 C 
HETATM    6  H   UNL     1       7.968  25.021  54.869  1.00  0.00     0.170 HD
ENDROOT
BRANCH   1   7
HETATM    7  C   UNL     1       5.165  26.958  53.170  1.00  0.00     0.185 C 
BRANCH   7   8
HETATM    8  C   UNL     1       5.004  27.114  51.707  1.00  0.00     0.047 A 
HETATM    9  N   UNL     1       4.606  26.077  50.910  1.00  0.00    -0.280 N 
HETATM   10  N   UNL     1       4.459  26.418  49.620  1.00  0.00    -0.178 NA
HETATM   11  H   UNL     1       4.416  25.118  51.197  1.00  0.00     0.189 HD
HETATM   12  C   UNL     1       4.767  27.723  49.579  1.00  0.00     0.064 A 
HETATM   13  C   UNL     1       5.120  28.200  50.869  1.00  0.00     0.058 A 
BRANCH  12  14
HETATM   14  C   UNL     1       4.665  28.522  48.289  1.00  0.00    -0.005 C 
HETATM   15  C   UNL     1       5.643  27.940  47.249  1.00  0.00     0.021 C 
HETATM   16  C   UNL     1       5.012  30.012  48.501  1.00  0.00     0.021 C 
HETATM   17  C   UNL     1       3.234  28.454  47.719  1.00  0.00     0.021 C 
ENDBRANCH  12  14
ENDBRANCH   7   8
ENDBRANCH   1   7
BRANCH   3  18
HETATM   18  C   UNL     1       7.869  23.029  54.363  1.00  0.00     0.064 A 
HETATM   19  C   UNL     1       8.143  22.550  55.658  1.00  0.00     0.099 A 
HETATM   20 CL   UNL     1       8.057  23.608  57.027  1.00  0.00    -0.079 Cl
HETATM   21  C   UNL     1       8.473  21.207  55.857  1.00  0.00     0.143 A 
HETATM   22  F   UNL     1       8.720  20.740  57.090  1.00  0.00    -0.204 F 
HETATM   23  C   UNL     1       8.551  20.327  54.787  1.00  0.00     0.086 A 
HETATM   24  C   UNL     1       8.298  20.805  53.510  1.00  0.00     0.121 A 
HETATM   25  F   UNL     1       8.383  19.967  52.469  1.00  0.00    -0.206 F 
HETATM   26  C   UNL     1       7.960  22.139  53.287  1.00  0.00     0.073 A 
ENDBRANCH   3  18
TORSDOF 4
ENDMDL
MODEL 4
REMARK VINA RESULT:      -8.7      3.693      8.005
REMARK  4 active torsions:
REMARK  status: ('A' for Active; 'I' for Inactive)
REMARK    1  A    between atoms: C_2  and  C_3 
REMARK    2  A    between atoms: C_7  and  C_8 
REMARK    3  A    between atoms: C_8  and  N_9 
REMARK       I    between atoms: N_9  and  C_10 
REMARK       I    between atoms: C_10  and  N_11 
REMARK    4  A    between atoms: N_11  and  C_12 
ROOT
HETATM    1  N   UNL     1       6.479  27.100  54.639  1.00  0.00    -0.333 N 
HETATM    2  C   UNL     1       7.215  27.508  55.745  1.00  0.00     0.322 C 
HETATM    3  N   UNL     1       7.717  28.783  55.649  1.00  0.00    -0.307 N 
HETATM    4  O   UNL     1       7.345  26.779  56.728  1.00  0.00    -0.247 OA
HETATM    5  C   UNL     1       6.643  27.627  53.289  1.00  0.00     0.155 C 
HETATM    6  H   UNL     1       7.236  29.387  54.994  1.00  0.00     0.170 HD
ENDROOT
BRANCH   1   7
HETATM    7  C   UNL     1       5.578  25.966  54.796  1.00  0.00     0.185 C 
BRANCH   7   8
HETATM    8  C   UNL     1       6.249  24.702  54.415  1.00  0.00     0.047 A 
HETATM    9  N   UNL     1       6.412  24.337  53.108  1.00  0.00    -0.280 N 
HETATM   10  N   UNL     1       7.092  23.190  52.954  1.00  0.00    -0.178 NA
HETATM   11  H   UNL     1       6.084  24.838  52.284  1.00  0.00     0.189 HD
HETATM   12  C   UNL     1       7.385  22.800  54.203  1.00  0.00     0.064 A 
HETATM   13  C   UNL     1       6.869  23.720  55.154  1.00  0.00     0.058 A 
BRANCH  12  14
HETATM   14  C   UNL     1       8.216  21.556  54.472  1.00  0.00    -0.005 C 
HETATM   15  C   UNL     1       8.224  20.664  53.213  1.00  0.00     0.021 C 
HETATM   16  C   UNL     1       7.658  20.727  55.649  1.00  0.00     0.021 C 
HETATM   17  C   UNL     1       9.670  21.938  54.819  1.00  0.00     0.021 C 
ENDBRANCH  12  14
ENDBRANCH   7   8
ENDBRANCH   1   7
BRANCH   3  18
HETATM   18  C   UNL     1       8.546  29.455  56.580  1.00  0.00     0.064 A 
HETATM   19  C   UNL     1       7.939  30.195  57.612  1.00  0.00     0.099 A 
HETATM   20 CL   UNL     1       6.213  30.269  57.748  1.00  0.00    -0.079 Cl
HETATM   21  C   UNL     1       8.724  30.868  58.552  1.00  0.00     0.143 A 
HETATM   22  F   UNL     1       8.152  31.562  59.548  1.00  0.00    -0.204 F 
HETATM   23  C   UNL     1      10.109  30.832  58.479  1.00  0.00     0.086 A 
HETATM   24  C   UNL     1      10.705  30.117  57.451  1.00  0.00     0.121 A 
HETATM   25  F   UNL     1      12.041  30.088  57.364  1.00  0.00    -0.206 F 
HETATM   26  C   UNL     1       9.943  29.433  56.505  1.00  0.00     0.073 A 
ENDBRANCH   3  18
TORSDOF 4
ENDMDL
MODEL 5
REMARK VINA RESULT:      -8.7      3.839      8.244
REMARK  4 active torsions:
REMARK  status: ('A' for Active; 'I' for Inactive)
REMARK    1  A    between atoms: C_2  and  C_3 
REMARK    2  A    between atoms: C_7  and  C_8 
REMARK    3  A    between atoms: C_8  and  N_9 
REMARK       I    between atoms: N_9  and  C_10 
REMARK       I    between atoms: C_10  and  N_11 
REMARK    4  A    between atoms: N_11  and  C_12 
ROOT
HETATM    1  N   UNL     1       6.165  27.331  56.392  1.00  0.00    -0.333 N 
HETATM    2  C   UNL     1       7.028  27.944  57.292  1.00  0.00     0.322 C 
HETATM    3  N   UNL     1       7.215  29.287  57.069  1.00  0.00    -0.307 N 
HETATM    4  O   UNL     1       7.527  27.316  58.225  1.00  0.00    -0.247 OA
HETATM    5  C   UNL     1       5.906  27.801  55.035  1.00  0.00     0.155 C 
HETATM    6  H   UNL     1       6.483  29.741  56.538  1.00  0.00     0.170 HD
ENDROOT
BRANCH   1   7
HETATM    7  C   UNL     1       5.582  26.049  56.765  1.00  0.00     0.185 C 
BRANCH   7   8
HETATM    8  C   UNL     1       6.498  24.935  56.429  1.00  0.00     0.047 A 
HETATM    9  N   UNL     1       7.401  24.447  57.330  1.00  0.00    -0.280 N 
HETATM   10  N   UNL     1       8.106  23.400  56.870  1.00  0.00    -0.178 NA
HETATM   11  H   UNL     1       7.573  24.787  58.275  1.00  0.00     0.189 HD
HETATM   12  C   UNL     1       7.640  23.200  55.629  1.00  0.00     0.064 A 
HETATM   13  C   UNL     1       6.630  24.146  55.308  1.00  0.00     0.058 A 
BRANCH  12  14
HETATM   14  C   UNL     1       8.139  22.050  54.769  1.00  0.00    -0.005 C 
HETATM   15  C   UNL     1       7.639  22.238  53.322  1.00  0.00     0.021 C 
HETATM   16  C   UNL     1       7.639  20.681  55.280  1.00  0.00     0.021 C 
HETATM   17  C   UNL     1       9.681  22.008  54.760  1.00  0.00     0.021 C 
ENDBRANCH  12  14
ENDBRANCH   7   8
ENDBRANCH   1   7
BRANCH   3  18
HETATM   18  C   UNL     1       8.072  30.167  57.775  1.00  0.00     0.064 A 
HETATM   19  C   UNL     1       9.441  30.182  57.447  1.00  0.00     0.099 A 
HETATM   20 CL   UNL     1      10.060  29.157  56.195  1.00  0.00    -0.079 Cl
HETATM   21  C   UNL     1      10.316  31.040  58.119  1.00  0.00     0.143 A 
HETATM   22  F   UNL     1      11.619  31.071  57.800  1.00  0.00    -0.204 F 
HETATM   23  C   UNL     1       9.859  31.877  59.126  1.00  0.00     0.086 A 
HETATM   24  C   UNL     1       8.513  31.847  59.459  1.00  0.00     0.121 A 
HETATM   25  F   UNL     1       8.065  32.642  60.440  1.00  0.00    -0.206 F 
HETATM   26  C   UNL     1       7.619  31.005  58.800  1.00  0.00     0.073 A 
ENDBRANCH   3  18
TORSDOF 4
ENDMDL
MODEL 6
REMARK VINA RESULT:      -8.3      2.581      4.056
REMARK  4 active torsions:
REMARK  status: ('A' for Active; 'I' for Inactive)
REMARK    1  A    between atoms: C_2  and  C_3 
REMARK    2  A    between atoms: C_7  and  C_8 
REMARK    3  A    between atoms: C_8  and  N_9 
REMARK       I    between atoms: N_9  and  C_10 
REMARK       I    between atoms: C_10  and  N_11 
REMARK    4  A    between atoms: N_11  and  C_12 
ROOT
HETATM    1  N   UNL     1       7.048  29.355  57.394  1.00  0.00    -0.333 N 
HETATM    2  C   UNL     1       7.756  28.184  57.153  1.00  0.00     0.322 C 
HETATM    3  N   UNL     1       7.043  27.223  56.475  1.00  0.00    -0.307 N 
HETATM    4  O   UNL     1       8.934  28.070  57.490  1.00  0.00    -0.247 OA
HETATM    5  C   UNL     1       5.595  29.446  57.488  1.00  0.00     0.155 C 
HETATM    6  H   UNL     1       6.257  27.568  55.939  1.00  0.00     0.170 HD
ENDROOT
BRANCH   1   7
HETATM    7  C   UNL     1       7.803  30.557  57.721  1.00  0.00     0.185 C 
BRANCH   7   8
HETATM    8  C   UNL     1       7.692  30.874  59.163  1.00  0.00     0.047 A 
HETATM    9  N   UNL     1       8.444  30.229  60.104  1.00  0.00    -0.280 N 
HETATM   10  N   UNL     1       8.251  30.687  61.351  1.00  0.00    -0.178 NA
HETATM   11  H   UNL     1       9.108  29.472  59.947  1.00  0.00     0.189 HD
HETATM   12  C   UNL     1       7.348  31.668  61.213  1.00  0.00     0.064 A 
HETATM   13  C   UNL     1       6.965  31.817  59.854  1.00  0.00     0.058 A 
BRANCH  12  14
HETATM   14  C   UNL     1       6.894  32.502  62.402  1.00  0.00    -0.005 C 
HETATM   15  C   UNL     1       5.613  31.885  62.999  1.00  0.00     0.021 C 
HETATM   16  C   UNL     1       6.589  33.963  62.004  1.00  0.00     0.021 C 
HETATM   17  C   UNL     1       7.985  32.534  63.492  1.00  0.00     0.021 C 
ENDBRANCH  12  14
ENDBRANCH   7   8
ENDBRANCH   1   7
BRANCH   3  18
HETATM   18  C   UNL     1       7.467  25.916  56.135  1.00  0.00     0.064 A 
HETATM   19  C   UNL     1       7.616  25.588  54.774  1.00  0.00     0.099 A 
HETATM   20 CL   UNL     1       7.302  26.766  53.543  1.00  0.00    -0.079 Cl
HETATM   21  C   UNL     1       8.037  24.310  54.399  1.00  0.00     0.143 A 
HETATM   22  F   UNL     1       8.196  23.996  53.105  1.00  0.00    -0.204 F 
HETATM   23  C   UNL     1       8.301  23.338  55.354  1.00  0.00     0.086 A 
HETATM   24  C   UNL     1       8.136  23.658  56.694  1.00  0.00     0.121 A 
HETATM   25  F   UNL     1       8.375  22.724  57.623  1.00  0.00    -0.206 F 
HETATM   26  C   UNL     1       7.723  24.929  57.093  1.00  0.00     0.073 A 
ENDBRANCH   3  18
TORSDOF 4
ENDMDL
MODEL 7
REMARK VINA RESULT:      -8.3      1.933      2.916
REMARK  4 active torsions:
REMARK  status: ('A' for Active; 'I' for Inactive)
REMARK    1  A    between atoms: C_2  and  C_3 
REMARK    2  A    between atoms: C_7  and  C_8 
REMARK    3  A    between atoms: C_8  and  N_9 
REMARK       I    between atoms: N_9  and  C_10 
REMARK       I    between atoms: C_10  and  N_11 
REMARK    4  A    between atoms: N_11  and  C_12 
ROOT
HETATM    1  N   UNL     1       6.267  28.754  56.448  1.00  0.00    -0.333 N 
HETATM    2  C   UNL     1       7.067  27.892  55.706  1.00  0.00     0.322 C 
HETATM    3  N   UNL     1       6.420  26.763  55.265  1.00  0.00    -0.307 N 
HETATM    4  O   UNL     1       8.237  28.172  55.448  1.00  0.00    -0.247 OA
HETATM    5  C   UNL     1       5.087  28.351  57.203  1.00  0.00     0.155 C 
HETATM    6  H   UNL     1       5.412  26.836  55.214  1.00  0.00     0.170 HD
ENDROOT
BRANCH   1   7
HETATM    7  C   UNL     1       6.711  30.132  56.607  1.00  0.00     0.185 C 
BRANCH   7   8
HETATM    8  C   UNL     1       7.302  30.345  57.948  1.00  0.00     0.047 A 
HETATM    9  N   UNL     1       8.337  29.580  58.409  1.00  0.00    -0.280 N 
HETATM   10  N   UNL     1       8.781  29.953  59.620  1.00  0.00    -0.178 NA
HETATM   11  H   UNL     1       8.781  28.796  57.935  1.00  0.00     0.189 HD
HETATM   12  C   UNL     1       8.011  31.000  59.954  1.00  0.00     0.064 A 
HETATM   13  C   UNL     1       7.065  31.277  58.932  1.00  0.00     0.058 A 
BRANCH  12  14
HETATM   14  C   UNL     1       8.233  31.768  61.247  1.00  0.00    -0.005 C 
HETATM   15  C   UNL     1       7.724  30.925  62.435  1.00  0.00     0.021 C 
HETATM   16  C   UNL     1       7.485  33.119  61.256  1.00  0.00     0.021 C 
HETATM   17  C   UNL     1       9.732  32.064  61.454  1.00  0.00     0.021 C 
ENDBRANCH  12  14
ENDBRANCH   7   8
ENDBRANCH   1   7
BRANCH   3  18
HETATM   18  C   UNL     1       6.975  25.679  54.541  1.00  0.00     0.064 A 
HETATM   19  C   UNL     1       7.425  24.552  55.255  1.00  0.00     0.099 A 
HETATM   20 CL   UNL     1       7.288  24.487  56.980  1.00  0.00    -0.079 Cl
HETATM   21  C   UNL     1       7.975  23.462  54.575  1.00  0.00     0.143 A 
HETATM   22  F   UNL     1       8.391  22.378  55.247  1.00  0.00    -0.204 F 
HETATM   23  C   UNL     1       8.101  23.474  53.193  1.00  0.00     0.086 A 
HETATM   24  C   UNL     1       7.673  24.593  52.494  1.00  0.00     0.121 A 
HETATM   25  F   UNL     1       7.802  24.620  51.161  1.00  0.00    -0.206 F 
HETATM   26  C   UNL     1       7.115  25.691  53.149  1.00  0.00     0.073 A 
ENDBRANCH   3  18
TORSDOF 4
ENDMDL
MODEL 8
REMARK VINA RESULT:      -8.3      3.969      8.397
REMARK  4 active torsions:
REMARK  status: ('A' for Active; 'I' for Inactive)
REMARK    1  A    between atoms: C_2  and  C_3 
REMARK    2  A    between atoms: C_7  and  C_8 
REMARK    3  A    between atoms: C_8  and  N_9 
REMARK       I    between atoms: N_9  and  C_10 
REMARK       I    between atoms: C_10  and  N_11 
REMARK    4  A    between atoms: N_11  and  C_12 
ROOT
HETATM    1  N   UNL     1       6.479  27.627  55.111  1.00  0.00    -0.333 N 
HETATM    2  C   UNL     1       6.425  28.154  56.396  1.00  0.00     0.322 C 
HETATM    3  N   UNL     1       7.139  29.317  56.559  1.00  0.00    -0.307 N 
HETATM    4  O   UNL     1       5.746  27.624  57.274  1.00  0.00    -0.247 OA
HETATM    5  C   UNL     1       7.565  27.854  54.164  1.00  0.00     0.155 C 
HETATM    6  H   UNL     1       7.322  29.833  55.708  1.00  0.00     0.170 HD
ENDROOT
BRANCH   1   7
HETATM    7  C   UNL     1       5.460  26.662  54.723  1.00  0.00     0.185 C 
BRANCH   7   8
HETATM    8  C   UNL     1       6.069  25.352  54.396  1.00  0.00     0.047 A 
HETATM    9  N   UNL     1       6.019  24.828  53.135  1.00  0.00    -0.280 N 
HETATM   10  N   UNL     1       6.673  23.662  53.014  1.00  0.00    -0.178 NA
HETATM   11  H   UNL     1       5.556  25.227  52.321  1.00  0.00     0.189 HD
HETATM   12  C   UNL     1       7.170  23.425  54.237  1.00  0.00     0.064 A 
HETATM   13  C   UNL     1       6.810  24.461  55.139  1.00  0.00     0.058 A 
BRANCH  12  14
HETATM   14  C   UNL     1       8.045  22.213  54.517  1.00  0.00    -0.005 C 
HETATM   15  C   UNL     1       8.098  21.319  53.261  1.00  0.00     0.021 C 
HETATM   16  C   UNL     1       7.506  21.366  55.691  1.00  0.00     0.021 C 
HETATM   17  C   UNL     1       9.480  22.649  54.877  1.00  0.00     0.021 C 
ENDBRANCH  12  14
ENDBRANCH   7   8
ENDBRANCH   1   7
BRANCH   3  18
HETATM   18  C   UNL     1       7.321  30.056  57.753  1.00  0.00     0.064 A 
HETATM   19  C   UNL     1       6.485  31.163  57.995  1.00  0.00     0.099 A 
HETATM   20 CL   UNL     1       5.251  31.602  56.861  1.00  0.00    -0.079 Cl
HETATM   21  C   UNL     1       6.632  31.914  59.164  1.00  0.00     0.143 A 
HETATM   22  F   UNL     1       5.829  32.961  59.408  1.00  0.00    -0.204 F 
HETATM   23  C   UNL     1       7.607  31.594  60.098  1.00  0.00     0.086 A 
HETATM   24  C   UNL     1       8.441  30.514  59.849  1.00  0.00     0.121 A 
HETATM   25  F   UNL     1       9.394  30.206  60.738  1.00  0.00    -0.206 F 
HETATM   26  C   UNL     1       8.310  29.746  58.693  1.00  0.00     0.073 A 
ENDBRANCH   3  18
TORSDOF 4
ENDMDL
MODEL 9
REMARK VINA RESULT:      -7.9      4.547      7.370
REMARK  4 active torsions:
REMARK  status: ('A' for Active; 'I' for Inactive)
REMARK    1  A    between atoms: C_2  and  C_3 
REMARK    2  A    between atoms: C_7  and  C_8 
REMARK    3  A    between atoms: C_8  and  N_9 
REMARK       I    between atoms: N_9  and  C_10 
REMARK       I    between atoms: C_10  and  N_11 
REMARK    4  A    between atoms: N_11  and  C_12 
ROOT
HETATM    1  N   UNL     1       5.592  27.646  53.166  1.00  0.00    -0.333 N 
HETATM    2  C   UNL     1       6.694  26.969  53.673  1.00  0.00     0.322 C 
HETATM    3  N   UNL     1       6.382  25.836  54.386  1.00  0.00    -0.307 N 
HETATM    4  O   UNL     1       7.840  27.354  53.444  1.00  0.00    -0.247 OA
HETATM    5  C   UNL     1       4.249  27.592  53.732  1.00  0.00     0.155 C 
HETATM    6  H   UNL     1       5.475  25.435  54.181  1.00  0.00     0.170 HD
ENDROOT
BRANCH   1   7
HETATM    7  C   UNL     1       5.809  28.593  52.080  1.00  0.00     0.185 C 
BRANCH   7   8
HETATM    8  C   UNL     1       5.143  28.136  50.839  1.00  0.00     0.047 A 
HETATM    9  N   UNL     1       5.555  27.020  50.168  1.00  0.00    -0.280 N 
HETATM   10  N   UNL     1       4.798  26.728  49.098  1.00  0.00    -0.178 NA
HETATM   11  H   UNL     1       6.344  26.419  50.400  1.00  0.00     0.189 HD
HETATM   12  C   UNL     1       3.858  27.684  49.079  1.00  0.00     0.064 A 
HETATM   13  C   UNL     1       4.040  28.594  50.154  1.00  0.00     0.058 A 
BRANCH  12  14
HETATM   14  C   UNL     1       2.745  27.683  48.043  1.00  0.00    -0.005 C 
HETATM   15  C   UNL     1       2.879  26.431  47.151  1.00  0.00     0.021 C 
HETATM   16  C   UNL     1       2.795  28.931  47.136  1.00  0.00     0.021 C 
HETATM   17  C   UNL     1       1.364  27.659  48.728  1.00  0.00     0.021 C 
ENDBRANCH  12  14
ENDBRANCH   7   8
ENDBRANCH   1   7
BRANCH   3  18
HETATM   18  C   UNL     1       7.274  24.973  55.067  1.00  0.00     0.064 A 
HETATM   19  C   UNL     1       7.825  23.883  54.366  1.00  0.00     0.099 A 
HETATM   20 CL   UNL     1       7.431  23.615  52.701  1.00  0.00    -0.079 Cl
HETATM   21  C   UNL     1       8.713  23.012  55.003  1.00  0.00     0.143 A 
HETATM   22  F   UNL     1       9.254  21.982  54.337  1.00  0.00    -0.204 F 
HETATM   23  C   UNL     1       9.055  23.194  56.336  1.00  0.00     0.086 A 
HETATM   24  C   UNL     1       8.497  24.258  57.029  1.00  0.00     0.121 A 
HETATM   25  F   UNL     1       8.811  24.434  58.319  1.00  0.00    -0.206 F 
HETATM   26  C   UNL     1       7.614  25.144  56.413  1.00  0.00     0.073 A 
ENDBRANCH   3  18
TORSDOF 4
ENDMDL
MODEL 10
REMARK VINA RESULT:      -7.9      3.666      8.104
REMARK  4 active torsions:
REMARK  status: ('A' for Active; 'I' for Inactive)
REMARK    1  A    between atoms: C_2  and  C_3 
REMARK    2  A    between atoms: C_7  and  C_8 
REMARK    3  A    between atoms: C_8  and  N_9 
REMARK       I    between atoms: N_9  and  C_10 
REMARK       I    between atoms: C_10  and  N_11 
REMARK    4  A    between atoms: N_11  and  C_12 
ROOT
HETATM    1  N   UNL     1       6.123  27.081  53.691  1.00  0.00    -0.333 N 
HETATM    2  C   UNL     1       6.714  28.013  54.535  1.00  0.00     0.322 C 
HETATM    3  N   UNL     1       5.876  28.501  55.510  1.00  0.00    -0.307 N 
HETATM    4  O   UNL     1       7.901  28.315  54.420  1.00  0.00    -0.247 OA
HETATM    5  C   UNL     1       4.693  26.998  53.412  1.00  0.00     0.155 C 
HETATM    6  H   UNL     1       5.082  27.914  55.729  1.00  0.00     0.170 HD
ENDROOT
BRANCH   1   7
HETATM    7  C   UNL     1       6.995  26.213  52.911  1.00  0.00     0.185 C 
BRANCH   7   8
HETATM    8  C   UNL     1       7.235  24.933  53.616  1.00  0.00     0.047 A 
HETATM    9  N   UNL     1       6.663  24.659  54.827  1.00  0.00    -0.280 N 
HETATM   10  N   UNL     1       6.947  23.430  55.287  1.00  0.00    -0.178 NA
HETATM   11  H   UNL     1       6.066  25.272  55.378  1.00  0.00     0.189 HD
HETATM   12  C   UNL     1       7.726  22.887  54.341  1.00  0.00     0.064 A 
HETATM   13  C   UNL     1       7.936  23.800  53.273  1.00  0.00     0.058 A 
BRANCH  12  14
HETATM   14  C   UNL     1       8.224  21.454  54.448  1.00  0.00    -0.005 C 
HETATM   15  C   UNL     1       9.750  21.459  54.666  1.00  0.00     0.021 C 
HETATM   16  C   UNL     1       7.919  20.636  53.174  1.00  0.00     0.021 C 
HETATM   17  C   UNL     1       7.554  20.733  55.635  1.00  0.00     0.021 C 
ENDBRANCH  12  14
ENDBRANCH   7   8
ENDBRANCH   1   7
BRANCH   3  18
HETATM   18  C   UNL     1       6.167  29.495  56.476  1.00  0.00     0.064 A 
HETATM   19  C   UNL     1       7.020  29.165  57.546  1.00  0.00     0.099 A 
HETATM   20 CL   UNL     1       7.712  27.582  57.669  1.00  0.00    -0.079 Cl
HETATM   21  C   UNL     1       7.333  30.121  58.517  1.00  0.00     0.143 A 
HETATM   22  F   UNL     1       8.158  29.818  59.531  1.00  0.00    -0.204 F 
HETATM   23  C   UNL     1       6.801  31.401  58.454  1.00  0.00     0.086 A 
HETATM   24  C   UNL     1       5.947  31.717  57.408  1.00  0.00     0.121 A 
HETATM   25  F   UNL     1       5.418  32.946  57.346  1.00  0.00    -0.206 F 
HETATM   26  C   UNL     1       5.624  30.784  56.424  1.00  0.00     0.073 A 
ENDBRANCH   3  18
TORSDOF 4
ENDMDL
