MODEL 1
REMARK VINA RESULT:      -9.0      0.000      0.000
REMARK  11 active torsions:
REMARK  status: ('A' for Active; 'I' for Inactive)
REMARK    1  A    between atoms: C_1  and  C_7 
REMARK    2  A    between atoms: C_1  and  C_11 
REMARK    3  A    between atoms: C_8  and  C_13 
REMARK    4  A    between atoms: C_8  and  O_14 
REMARK       I    between atoms: C_11  and  N_12 
REMARK    5  A    between atoms: N_12  and  C_13 
REMARK    6  A    between atoms: C_18  and  N_19 
REMARK    7  A    between atoms: N_19  and  C_20 
REMARK    8  A    between atoms: C_20  and  C_21 
REMARK    9  A    between atoms: C_28  and  C_29 
REMARK   10  A    between atoms: C_29  and  O_30 
REMARK   11  A    between atoms: C_31  and  O_32 
ROOT
HETATM    1  C           1       6.677  25.205  52.464  0.00  0.00     0.012 A 
HETATM    2  C           1       5.941  24.288  55.916  0.00  0.00     0.016 C 
HETATM    3  C           1       7.306  24.480  55.204  0.00  0.00    -0.030 C 
HETATM    4  C           1       7.383  25.961  54.709  0.00  0.00     0.056 C 
HETATM    5  C           1       9.829  22.449  53.866  0.00  0.00     0.020 C 
HETATM    6  C           1       6.558  26.078  53.462  0.00  0.00     0.056 A 
HETATM    7  S           1       5.754  25.550  51.380  0.00  0.00    -0.055 SA
HETATM    8  C           1       5.218  26.735  52.066  0.00  0.00     0.167 A 
HETATM    9  N           1       5.693  26.960  53.220  0.00  0.00    -0.228 NA
HETATM   10  C           1       7.625  24.057  52.615  0.00  0.00     0.055 C 
HETATM   11  C           1       7.432  23.440  54.025  0.00  0.00     0.012 C 
HETATM   12  C           1       8.350  22.195  54.253  0.00  0.00     0.008 C 
HETATM   13  C           1       8.298  21.731  55.720  0.00  0.00     0.128 C 
HETATM   14  C           1       8.491  22.817  56.777  0.00  0.00     0.033 C 
HETATM   15  C           1       8.421  24.251  56.244  0.00  0.00     0.013 C 
ENDROOT
BRANCH   4  16
HETATM   16  C           1       7.043  27.085  55.710  0.00  0.00     0.114 C 
BRANCH  16  17
HETATM   17  C           1       8.117  28.165  55.800  0.00  0.00     0.218 C 
HETATM   18  N           1       8.659  28.309  57.048  0.00  0.00    -0.359 N 
HETATM   19  H           1       8.350  27.674  57.784  0.00  0.00     0.162 HD
HETATM   20  O           1       8.446  28.836  54.853  0.00  0.00    -0.274 OA
BRANCH  18  21
HETATM   21  C           1       9.656  29.333  57.383  0.00  0.00     0.148 C 
BRANCH  21  22
HETATM   22  C           1       8.996  30.406  58.249  0.00  0.00     0.186 C 
BRANCH  22  23
HETATM   23  O           1       8.539  29.815  59.441  0.00  0.00    -0.394 OA
HETATM   24  C           1       8.787  30.626  60.569  0.00  0.00     0.201 C 
ENDBRANCH  22  23
ENDBRANCH  21  22
ENDBRANCH  18  21
ENDBRANCH  16  17
ENDBRANCH   4  16
BRANCH  12  25
HETATM   25  C           1       7.861  21.039  53.341  0.00  0.00     0.176 C 
BRANCH  25  26
HETATM   26  O           1       8.595  19.856  53.582  0.00  0.00    -0.400 OA
HETATM   27  H           1       9.199  19.697  52.854  0.00  0.00     0.209 HD
ENDBRANCH  25  26
ENDBRANCH  12  25
BRANCH   8  28
HETATM   28  N           1       4.325  27.418  51.481  0.00  0.00    -0.365 N 
HETATM   29  H           1       3.382  27.491  51.939  0.00  0.00     0.162 HD
BRANCH  28  30
HETATM   30  C           1       4.528  28.121  50.196  0.00  0.00     0.160 C 
BRANCH  30  31
HETATM   31  C           1       3.552  27.609  49.162  0.00  0.00    -0.041 A 
HETATM   32  C           1       2.293  28.084  49.115  0.00  0.00     0.009 A 
HETATM   33  C           1       1.408  27.621  48.220  0.00  0.00     0.001 A 
HETATM   34  C           1       1.773  26.671  47.348  0.00  0.00     0.000 A 
HETATM   35  C           1       3.026  26.191  47.377  0.00  0.00     0.001 A 
HETATM   36  C           1       3.905  26.657  48.278  0.00  0.00     0.009 A 
ENDBRANCH  30  31
ENDBRANCH  28  30
ENDBRANCH   8  28
BRANCH  13  37
HETATM   37  O           1       7.083  21.053  55.946  0.00  0.00    -0.395 OA
HETATM   38  H           1       6.691  20.862  55.088  0.00  0.00     0.210 HD
ENDBRANCH  13  37
TORSDOF 11
ENDMDL
MODEL 2
REMARK VINA RESULT:      -8.5      1.338      2.319
REMARK  11 active torsions:
REMARK  status: ('A' for Active; 'I' for Inactive)
REMARK    1  A    between atoms: C_1  and  C_7 
REMARK    2  A    between atoms: C_1  and  C_11 
REMARK    3  A    between atoms: C_8  and  C_13 
REMARK    4  A    between atoms: C_8  and  O_14 
REMARK       I    between atoms: C_11  and  N_12 
REMARK    5  A    between atoms: N_12  and  C_13 
REMARK    6  A    between atoms: C_18  and  N_19 
REMARK    7  A    between atoms: N_19  and  C_20 
REMARK    8  A    between atoms: C_20  and  C_21 
REMARK    9  A    between atoms: C_28  and  C_29 
REMARK   10  A    between atoms: C_29  and  O_30 
REMARK   11  A    between atoms: C_31  and  O_32 
ROOT
HETATM    1  C           1       6.634  25.250  52.584  0.00  0.00     0.012 A 
HETATM    2  C           1       6.014  24.272  56.042  0.00  0.00     0.016 C 
HETATM    3  C           1       7.354  24.449  55.280  0.00  0.00    -0.030 C 
HETATM    4  C           1       7.446  25.939  54.815  0.00  0.00     0.056 C 
HETATM    5  C           1       9.774  22.392  53.799  0.00  0.00     0.020 C 
HETATM    6  C           1       6.575  26.102  53.605  0.00  0.00     0.056 A 
HETATM    7  S           1       5.677  25.640  51.546  0.00  0.00    -0.055 SA
HETATM    8  C           1       5.197  26.821  52.278  0.00  0.00     0.167 A 
HETATM    9  N           1       5.722  27.009  53.417  0.00  0.00    -0.228 NA
HETATM   10  C           1       7.560  24.078  52.672  0.00  0.00     0.055 C 
HETATM   11  C           1       7.409  23.433  54.074  0.00  0.00     0.012 C 
HETATM   12  C           1       8.306  22.164  54.239  0.00  0.00     0.008 C 
HETATM   13  C           1       8.301  21.667  55.697  0.00  0.00     0.128 C 
HETATM   14  C           1       8.561  22.725  56.768  0.00  0.00     0.033 C 
HETATM   15  C           1       8.503  24.171  56.269  0.00  0.00     0.013 C 
ENDROOT
BRANCH   4  16
HETATM   16  C           1       7.172  27.047  55.852  0.00  0.00     0.114 C 
BRANCH  16  17
HETATM   17  C           1       8.216  28.160  55.844  0.00  0.00     0.218 C 
HETATM   18  N           1       8.854  28.334  57.042  0.00  0.00    -0.359 N 
HETATM   19  H           1       8.625  27.699  57.807  0.00  0.00     0.162 HD
HETATM   20  O           1       8.445  28.830  54.867  0.00  0.00    -0.274 OA
BRANCH  18  21
HETATM   21  C           1       9.843  29.391  57.285  0.00  0.00     0.148 C 
BRANCH  21  22
HETATM   22  C           1       9.229  30.445  58.207  0.00  0.00     0.186 C 
BRANCH  22  23
HETATM   23  O           1       8.582  29.798  59.275  0.00  0.00    -0.394 OA
HETATM   24  C           1       8.584  30.578  60.452  0.00  0.00     0.201 C 
ENDBRANCH  22  23
ENDBRANCH  21  22
ENDBRANCH  18  21
ENDBRANCH  16  17
ENDBRANCH   4  16
BRANCH  12  25
HETATM   25  C           1       7.754  21.040  53.322  0.00  0.00     0.176 C 
BRANCH  25  26
HETATM   26  O           1       8.533  19.866  53.432  0.00  0.00    -0.400 OA
HETATM   27  H           1       8.684  19.666  54.359  0.00  0.00     0.209 HD
ENDBRANCH  25  26
ENDBRANCH  12  25
BRANCH   8  28
HETATM   28  N           1       4.298  27.537  51.744  0.00  0.00    -0.365 N 
HETATM   29  H           1       3.453  27.777  52.321  0.00  0.00     0.162 HD
BRANCH  28  30
HETATM   30  C           1       4.365  28.058  50.362  0.00  0.00     0.160 C 
BRANCH  30  31
HETATM   31  C           1       4.759  29.518  50.374  0.00  0.00    -0.041 A 
HETATM   32  C           1       5.691  29.982  49.521  0.00  0.00     0.009 A 
HETATM   33  C           1       6.068  31.269  49.537  0.00  0.00     0.001 A 
HETATM   34  C           1       5.512  32.119  50.412  0.00  0.00     0.000 A 
HETATM   35  C           1       4.578  31.673  51.265  0.00  0.00     0.001 A 
HETATM   36  C           1       4.208  30.383  51.245  0.00  0.00     0.009 A 
ENDBRANCH  30  31
ENDBRANCH  28  30
ENDBRANCH   8  28
BRANCH  13  37
HETATM   37  O           1       7.080  21.012  55.956  0.00  0.00    -0.395 OA
HETATM   38  H           1       7.256  20.303  56.582  0.00  0.00     0.210 HD
ENDBRANCH  13  37
TORSDOF 11
ENDMDL
MODEL 3
REMARK VINA RESULT:      -8.5      3.391      8.782
REMARK  11 active torsions:
REMARK  status: ('A' for Active; 'I' for Inactive)
REMARK    1  A    between atoms: C_1  and  C_7 
REMARK    2  A    between atoms: C_1  and  C_11 
REMARK    3  A    between atoms: C_8  and  C_13 
REMARK    4  A    between atoms: C_8  and  O_14 
REMARK       I    between atoms: C_11  and  N_12 
REMARK    5  A    between atoms: N_12  and  C_13 
REMARK    6  A    between atoms: C_18  and  N_19 
REMARK    7  A    between atoms: N_19  and  C_20 
REMARK    8  A    between atoms: C_20  and  C_21 
REMARK    9  A    between atoms: C_28  and  C_29 
REMARK   10  A    between atoms: C_29  and  O_30 
REMARK   11  A    between atoms: C_31  and  O_32 
ROOT
HETATM    1  C           1       8.106  28.519  55.641  0.00  0.00     0.012 A 
HETATM    2  C           1       4.953  26.770  56.189  0.00  0.00     0.016 C 
HETATM    3  C           1       6.129  26.432  55.235  0.00  0.00    -0.030 C 
HETATM    4  C           1       7.402  26.196  56.110  0.00  0.00     0.056 C 
HETATM    5  C           1       6.840  26.713  51.815  0.00  0.00     0.020 C 
HETATM    6  C           1       7.938  27.535  56.522  0.00  0.00     0.056 A 
HETATM    7  S           1       8.633  29.710  56.310  0.00  0.00    -0.055 SA
HETATM    8  C           1       8.684  29.077  57.636  0.00  0.00     0.167 A 
HETATM    9  N           1       8.269  27.880  57.686  0.00  0.00    -0.228 NA
HETATM   10  C           1       7.706  28.291  54.217  0.00  0.00     0.055 C 
HETATM   11  C           1       6.315  27.606  54.198  0.00  0.00     0.012 C 
HETATM   12  C           1       5.792  27.376  52.742  0.00  0.00     0.008 C 
HETATM   13  C           1       4.518  26.510  52.743  0.00  0.00     0.128 C 
HETATM   14  C           1       4.578  25.225  53.567  0.00  0.00     0.033 C 
HETATM   15  C           1       5.784  25.119  54.503  0.00  0.00     0.013 C 
ENDROOT
BRANCH   4  16
HETATM   16  C           1       7.293  25.244  57.319  0.00  0.00     0.114 C 
BRANCH  16  17
HETATM   17  C           1       8.269  24.073  57.262  0.00  0.00     0.218 C 
HETATM   18  N           1       7.761  22.953  56.662  0.00  0.00    -0.359 N 
HETATM   19  H           1       6.821  23.000  56.271  0.00  0.00     0.162 HD
HETATM   20  O           1       9.385  24.133  57.716  0.00  0.00    -0.274 OA
BRANCH  18  21
HETATM   21  C           1       8.497  21.686  56.559  0.00  0.00     0.148 C 
BRANCH  21  22
HETATM   22  C           1       9.070  21.557  55.148  0.00  0.00     0.186 C 
BRANCH  22  23
HETATM   23  O           1       8.020  21.645  54.217  0.00  0.00    -0.394 OA
HETATM   24  C           1       8.041  20.585  53.286  0.00  0.00     0.201 C 
ENDBRANCH  22  23
ENDBRANCH  21  22
ENDBRANCH  18  21
ENDBRANCH  16  17
ENDBRANCH   4  16
BRANCH  12  25
HETATM   25  C           1       5.465  28.753  52.105  0.00  0.00     0.176 C 
BRANCH  25  26
HETATM   26  O           1       4.970  29.655  53.073  0.00  0.00    -0.400 OA
HETATM   27  H           1       4.429  30.322  52.645  0.00  0.00     0.209 HD
ENDBRANCH  25  26
ENDBRANCH  12  25
BRANCH   8  28
HETATM   28  N           1       9.105  29.762  58.615  0.00  0.00    -0.365 N 
HETATM   29  H           1       9.492  29.247  59.446  0.00  0.00     0.162 HD
BRANCH  28  30
HETATM   30  C           1       9.090  31.240  58.661  0.00  0.00     0.160 C 
BRANCH  30  31
HETATM   31  C           1       8.552  31.715  59.992  0.00  0.00    -0.041 A 
HETATM   32  C           1       7.320  32.249  60.080  0.00  0.00     0.009 A 
HETATM   33  C           1       6.840  32.698  61.249  0.00  0.00     0.001 A 
HETATM   34  C           1       7.590  32.617  62.357  0.00  0.00     0.000 A 
HETATM   35  C           1       8.818  32.083  62.287  0.00  0.00     0.001 A 
HETATM   36  C           1       9.293  31.638  61.113  0.00  0.00     0.009 A 
ENDBRANCH  30  31
ENDBRANCH  28  30
ENDBRANCH   8  28
BRANCH  13  37
HETATM   37  O           1       3.426  27.298  53.162  0.00  0.00    -0.395 OA
HETATM   38  H           1       3.644  28.218  52.983  0.00  0.00     0.210 HD
ENDBRANCH  13  37
TORSDOF 11
ENDMDL
MODEL 4
REMARK VINA RESULT:      -8.3      2.200      6.074
REMARK  11 active torsions:
REMARK  status: ('A' for Active; 'I' for Inactive)
REMARK    1  A    between atoms: C_1  and  C_7 
REMARK    2  A    between atoms: C_1  and  C_11 
REMARK    3  A    between atoms: C_8  and  C_13 
REMARK    4  A    between atoms: C_8  and  O_14 
REMARK       I    between atoms: C_11  and  N_12 
REMARK    5  A    between atoms: N_12  and  C_13 
REMARK    6  A    between atoms: C_18  and  N_19 
REMARK    7  A    between atoms: N_19  and  C_20 
REMARK    8  A    between atoms: C_20  and  C_21 
REMARK    9  A    between atoms: C_28  and  C_29 
REMARK   10  A    between atoms: C_29  and  O_30 
REMARK   11  A    between atoms: C_31  and  O_32 
ROOT
HETATM    1  C           1       4.896  27.533  52.761  0.00  0.00     0.012 A 
HETATM    2  C           1       8.272  27.852  54.105  0.00  0.00     0.016 C 
HETATM    3  C           1       7.019  27.164  54.708  0.00  0.00    -0.030 C 
HETATM    4  C           1       6.589  26.018  53.736  0.00  0.00     0.056 C 
HETATM    5  C           1       4.612  27.869  57.155  0.00  0.00     0.020 C 
HETATM    6  C           1       5.864  26.637  52.578  0.00  0.00     0.056 A 
HETATM    7  S           1       4.368  27.975  51.469  0.00  0.00    -0.055 SA
HETATM    8  C           1       5.259  27.108  50.684  0.00  0.00     0.167 A 
HETATM    9  N           1       6.073  26.407  51.358  0.00  0.00    -0.228 NA
HETATM   10  C           1       4.561  27.961  54.155  0.00  0.00     0.055 C 
HETATM   11  C           1       5.882  28.237  54.919  0.00  0.00     0.012 C 
HETATM   12  C           1       5.626  28.743  56.376  0.00  0.00     0.008 C 
HETATM   13  C           1       6.939  28.807  57.178  0.00  0.00     0.128 C 
HETATM   14  C           1       7.822  27.561  57.125  0.00  0.00     0.033 C 
HETATM   15  C           1       7.423  26.538  56.058  0.00  0.00     0.013 C 
ENDROOT
BRANCH   4  16
HETATM   16  C           1       7.667  25.026  53.251  0.00  0.00     0.114 C 
BRANCH  16  17
HETATM   17  C           1       7.430  23.593  53.717  0.00  0.00     0.218 C 
HETATM   18  N           1       7.822  22.642  52.814  0.00  0.00    -0.359 N 
HETATM   19  H           1       8.270  22.951  51.953  0.00  0.00     0.162 HD
HETATM   20  O           1       6.930  23.329  54.783  0.00  0.00    -0.274 OA
BRANCH  18  21
HETATM   21  C           1       7.623  21.202  53.020  0.00  0.00     0.148 C 
BRANCH  21  22
HETATM   22  C           1       8.976  20.549  53.308  0.00  0.00     0.186 C 
BRANCH  22  23
HETATM   23  O           1       8.824  19.622  54.354  0.00  0.00    -0.394 OA
HETATM   24  C           1       8.711  20.251  55.613  0.00  0.00     0.201 C 
ENDBRANCH  22  23
ENDBRANCH  21  22
ENDBRANCH  18  21
ENDBRANCH  16  17
ENDBRANCH   4  16
BRANCH  12  25
HETATM   25  C           1       5.005  30.163  56.310  0.00  0.00     0.176 C 
BRANCH  25  26
HETATM   26  O           1       5.566  30.913  55.252  0.00  0.00    -0.400 OA
HETATM   27  H           1       6.291  31.448  55.584  0.00  0.00     0.209 HD
ENDBRANCH  25  26
ENDBRANCH  12  25
BRANCH   8  28
HETATM   28  N           1       5.170  27.138  49.420  0.00  0.00    -0.365 N 
HETATM   29  H           1       5.769  27.828  48.901  0.00  0.00     0.162 HD
BRANCH  28  30
HETATM   30  C           1       4.278  26.262  48.631  0.00  0.00     0.160 C 
BRANCH  30  31
HETATM   31  C           1       3.171  27.077  48.001  0.00  0.00    -0.041 A 
HETATM   32  C           1       1.936  26.559  47.860  0.00  0.00     0.009 A 
HETATM   33  C           1       0.951  27.261  47.279  0.00  0.00     0.001 A 
HETATM   34  C           1       1.187  28.501  46.830  0.00  0.00     0.000 A 
HETATM   35  C           1       2.411  29.034  46.968  0.00  0.00     0.001 A 
HETATM   36  C           1       3.392  28.325  47.548  0.00  0.00     0.009 A 
ENDBRANCH  30  31
ENDBRANCH  28  30
ENDBRANCH   8  28
BRANCH  13  37
HETATM   37  O           1       7.676  29.935  56.765  0.00  0.00    -0.395 OA
HETATM   38  H           1       7.113  30.456  56.184  0.00  0.00     0.210 HD
ENDBRANCH  13  37
TORSDOF 11
ENDMDL
MODEL 5
REMARK VINA RESULT:      -8.3      3.092      8.290
REMARK  11 active torsions:
REMARK  status: ('A' for Active; 'I' for Inactive)
REMARK    1  A    between atoms: C_1  and  C_7 
REMARK    2  A    between atoms: C_1  and  C_11 
REMARK    3  A    between atoms: C_8  and  C_13 
REMARK    4  A    between atoms: C_8  and  O_14 
REMARK       I    between atoms: C_11  and  N_12 
REMARK    5  A    between atoms: N_12  and  C_13 
REMARK    6  A    between atoms: C_18  and  N_19 
REMARK    7  A    between atoms: N_19  and  C_20 
REMARK    8  A    between atoms: C_20  and  C_21 
REMARK    9  A    between atoms: C_28  and  C_29 
REMARK   10  A    between atoms: C_29  and  O_30 
REMARK   11  A    between atoms: C_31  and  O_32 
ROOT
HETATM    1  C           1       7.934  27.030  57.085  0.00  0.00     0.012 A 
HETATM    2  C           1       4.893  29.000  57.503  0.00  0.00     0.016 C 
HETATM    3  C           1       6.260  29.392  56.881  0.00  0.00    -0.030 C 
HETATM    4  C           1       6.512  28.457  55.654  0.00  0.00     0.056 C 
HETATM    5  C           1       9.093  31.226  57.822  0.00  0.00     0.020 C 
HETATM    6  C           1       6.972  27.127  56.170  0.00  0.00     0.056 A 
HETATM    7  S           1       8.179  25.623  57.412  0.00  0.00    -0.055 SA
HETATM    8  C           1       7.169  25.115  56.471  0.00  0.00     0.167 A 
HETATM    9  N           1       6.527  26.000  55.829  0.00  0.00    -0.228 NA
HETATM   10  C           1       8.534  28.283  57.641  0.00  0.00     0.055 C 
HETATM   11  C           1       7.388  29.272  57.977  0.00  0.00     0.012 C 
HETATM   12  C           1       7.921  30.596  58.614  0.00  0.00     0.008 C 
HETATM   13  C           1       6.796  31.641  58.743  0.00  0.00     0.128 C 
HETATM   14  C           1       5.952  31.878  57.491  0.00  0.00     0.033 C 
HETATM   15  C           1       6.152  30.846  56.378  0.00  0.00     0.013 C 
ENDROOT
BRANCH   4  16
HETATM   16  C           1       5.383  28.292  54.615  0.00  0.00     0.114 C 
BRANCH  16  17
HETATM   17  C           1       5.890  27.985  53.210  0.00  0.00     0.218 C 
HETATM   18  N           1       5.625  26.709  52.789  0.00  0.00    -0.359 N 
HETATM   19  H           1       5.088  26.100  53.405  0.00  0.00     0.162 HD
HETATM   20  O           1       6.480  28.795  52.539  0.00  0.00    -0.274 OA
BRANCH  18  21
HETATM   21  C           1       6.081  26.172  51.501  0.00  0.00     0.148 C 
BRANCH  21  22
HETATM   22  C           1       4.883  26.054  50.559  0.00  0.00     0.186 C 
BRANCH  22  23
HETATM   23  O           1       4.399  27.343  50.269  0.00  0.00    -0.394 OA
HETATM   24  C           1       5.188  28.004  49.303  0.00  0.00     0.201 C 
ENDBRANCH  22  23
ENDBRANCH  21  22
ENDBRANCH  18  21
ENDBRANCH  16  17
ENDBRANCH   4  16
BRANCH  12  25
HETATM   25  C           1       8.479  30.281  60.027  0.00  0.00     0.176 C 
BRANCH  25  26
HETATM   26  O           1       8.710  31.468  60.759  0.00  0.00    -0.400 OA
HETATM   27  H           1       9.653  31.589  60.888  0.00  0.00     0.209 HD
ENDBRANCH  25  26
ENDBRANCH  12  25
BRANCH   8  28
HETATM   28  N           1       7.000  23.862  56.387  0.00  0.00    -0.365 N 
HETATM   29  H           1       6.023  23.506  56.236  0.00  0.00     0.162 HD
BRANCH  28  30
HETATM   30  C           1       8.092  22.870  56.483  0.00  0.00     0.160 C 
BRANCH  30  31
HETATM   31  C           1       8.160  22.044  55.219  0.00  0.00    -0.041 A 
HETATM   32  C           1       8.597  20.772  55.255  0.00  0.00     0.009 A 
HETATM   33  C           1       8.687  20.035  54.138  0.00  0.00     0.001 A 
HETATM   34  C           1       8.336  20.564  52.957  0.00  0.00     0.000 A 
HETATM   35  C           1       7.893  21.829  52.904  0.00  0.00     0.001 A 
HETATM   36  C           1       7.808  22.561  54.027  0.00  0.00     0.009 A 
ENDBRANCH  30  31
ENDBRANCH  28  30
ENDBRANCH   8  28
BRANCH  13  37
HETATM   37  O           1       5.963  31.289  59.824  0.00  0.00    -0.395 OA
HETATM   38  H           1       5.188  30.846  59.464  0.00  0.00     0.210 HD
ENDBRANCH  13  37
TORSDOF 11
ENDMDL
MODEL 6
REMARK VINA RESULT:      -8.1      2.756      7.441
REMARK  11 active torsions:
REMARK  status: ('A' for Active; 'I' for Inactive)
REMARK    1  A    between atoms: C_1  and  C_7 
REMARK    2  A    between atoms: C_1  and  C_11 
REMARK    3  A    between atoms: C_8  and  C_13 
REMARK    4  A    between atoms: C_8  and  O_14 
REMARK       I    between atoms: C_11  and  N_12 
REMARK    5  A    between atoms: N_12  and  C_13 
REMARK    6  A    between atoms: C_18  and  N_19 
REMARK    7  A    between atoms: N_19  and  C_20 
REMARK    8  A    between atoms: C_20  and  C_21 
REMARK    9  A    between atoms: C_28  and  C_29 
REMARK   10  A    between atoms: C_29  and  O_30 
REMARK   11  A    between atoms: C_31  and  O_32 
ROOT
HETATM    1  C           1       5.389  26.333  51.330  0.00  0.00     0.012 A 
HETATM    2  C           1       5.922  29.785  50.281  0.00  0.00     0.016 C 
HETATM    3  C           1       4.601  29.018  50.555  0.00  0.00    -0.030 C 
HETATM    4  C           1       4.612  28.566  52.051  0.00  0.00     0.056 C 
HETATM    5  C           1       2.058  27.504  48.678  0.00  0.00     0.020 C 
HETATM    6  C           1       5.499  27.362  52.167  0.00  0.00     0.056 A 
HETATM    7  S           1       6.376  25.304  51.665  0.00  0.00    -0.055 SA
HETATM    8  C           1       6.930  26.050  52.804  0.00  0.00     0.167 A 
HETATM    9  N           1       6.412  27.187  53.016  0.00  0.00    -0.228 NA
HETATM   10  C           1       4.386  26.406  50.222  0.00  0.00     0.055 C 
HETATM   11  C           1       4.485  27.802  49.556  0.00  0.00     0.012 C 
HETATM   12  C           1       3.504  27.950  48.348  0.00  0.00     0.008 C 
HETATM   13  C           1       3.468  29.403  47.839  0.00  0.00     0.128 C 
HETATM   14  C           1       3.273  30.483  48.902  0.00  0.00     0.033 C 
HETATM   15  C           1       3.430  29.998  50.346  0.00  0.00     0.013 C 
ENDROOT
BRANCH   4  16
HETATM   16  C           1       4.953  29.615  53.130  0.00  0.00     0.114 C 
BRANCH  16  17
HETATM   17  C           1       4.849  29.080  54.554  0.00  0.00     0.218 C 
HETATM   18  N           1       5.975  29.278  55.307  0.00  0.00    -0.359 N 
HETATM   19  H           1       6.750  29.792  54.890  0.00  0.00     0.162 HD
HETATM   20  O           1       3.863  28.523  54.970  0.00  0.00    -0.274 OA
BRANCH  18  21
HETATM   21  C           1       6.126  28.783  56.682  0.00  0.00     0.148 C 
BRANCH  21  22
HETATM   22  C           1       7.391  27.929  56.767  0.00  0.00     0.186 C 
BRANCH  22  23
HETATM   23  O           1       7.996  28.130  58.021  0.00  0.00    -0.394 OA
HETATM   24  C           1       7.919  29.475  58.441  0.00  0.00     0.201 C 
ENDBRANCH  22  23
ENDBRANCH  21  22
ENDBRANCH  18  21
ENDBRANCH  16  17
ENDBRANCH   4  16
BRANCH  12  25
HETATM   25  C           1       3.985  27.025  47.198  0.00  0.00     0.176 C 
BRANCH  25  26
HETATM   26  O           1       5.396  26.965  47.152  0.00  0.00    -0.400 OA
HETATM   27  H           1       5.726  26.524  47.938  0.00  0.00     0.209 HD
ENDBRANCH  25  26
ENDBRANCH  12  25
BRANCH   8  28
HETATM   28  N           1       7.878  25.527  53.463  0.00  0.00    -0.365 N 
HETATM   29  H           1       8.849  25.600  53.070  0.00  0.00     0.162 HD
BRANCH  28  30
HETATM   30  C           1       7.702  24.825  54.752  0.00  0.00     0.160 C 
BRANCH  30  31
HETATM   31  C           1       7.832  23.331  54.554  0.00  0.00    -0.041 A 
HETATM   32  C           1       7.580  22.483  55.568  0.00  0.00     0.009 A 
HETATM   33  C           1       7.716  21.157  55.414  0.00  0.00     0.001 A 
HETATM   34  C           1       8.106  20.656  54.234  0.00  0.00     0.000 A 
HETATM   35  C           1       8.356  21.488  53.212  0.00  0.00     0.001 A 
HETATM   36  C           1       8.221  22.814  53.374  0.00  0.00     0.009 A 
ENDBRANCH  30  31
ENDBRANCH  28  30
ENDBRANCH   8  28
BRANCH  13  37
HETATM   37  O           1       4.640  29.662  47.101  0.00  0.00    -0.395 OA
HETATM   38  H           1       5.372  29.716  47.724  0.00  0.00     0.210 HD
ENDBRANCH  13  37
TORSDOF 11
ENDMDL
MODEL 7
REMARK VINA RESULT:      -7.8      6.031     10.198
REMARK  11 active torsions:
REMARK  status: ('A' for Active; 'I' for Inactive)
REMARK    1  A    between atoms: C_1  and  C_7 
REMARK    2  A    between atoms: C_1  and  C_11 
REMARK    3  A    between atoms: C_8  and  C_13 
REMARK    4  A    between atoms: C_8  and  O_14 
REMARK       I    between atoms: C_11  and  N_12 
REMARK    5  A    between atoms: N_12  and  C_13 
REMARK    6  A    between atoms: C_18  and  N_19 
REMARK    7  A    between atoms: N_19  and  C_20 
REMARK    8  A    between atoms: C_20  and  C_21 
REMARK    9  A    between atoms: C_28  and  C_29 
REMARK   10  A    between atoms: C_29  and  O_30 
REMARK   11  A    between atoms: C_31  and  O_32 
ROOT
HETATM    1  C           1       7.103  31.279  59.171  0.00  0.00     0.012 A 
HETATM    2  C           1       3.462  31.480  59.226  0.00  0.00     0.016 C 
HETATM    3  C           1       4.526  32.595  59.409  0.00  0.00    -0.030 C 
HETATM    4  C           1       5.368  32.672  58.095  0.00  0.00     0.056 C 
HETATM    5  C           1       5.932  34.411  62.055  0.00  0.00     0.020 C 
HETATM    6  C           1       6.350  31.539  58.104  0.00  0.00     0.056 A 
HETATM    7  S           1       7.963  30.123  58.910  0.00  0.00    -0.055 SA
HETATM    8  C           1       7.471  29.927  57.539  0.00  0.00     0.167 A 
HETATM    9  N           1       6.568  30.734  57.162  0.00  0.00    -0.228 NA
HETATM   10  C           1       6.926  32.112  60.401  0.00  0.00     0.055 C 
HETATM   11  C           1       5.409  32.272  60.676  0.00  0.00     0.012 C 
HETATM   12  C           1       5.129  33.089  61.980  0.00  0.00     0.008 C 
HETATM   13  C           1       3.630  33.415  62.118  0.00  0.00     0.128 C 
HETATM   14  C           1       2.955  34.011  60.883  0.00  0.00     0.033 C 
HETATM   15  C           1       3.784  33.933  59.599  0.00  0.00     0.013 C 
ENDROOT
BRANCH   4  16
HETATM   16  C           1       4.617  32.748  56.749  0.00  0.00     0.114 C 
BRANCH  16  17
HETATM   17  C           1       4.906  34.023  55.962  0.00  0.00     0.218 C 
HETATM   18  N           1       4.624  33.929  54.626  0.00  0.00    -0.359 N 
HETATM   19  H           1       4.213  33.062  54.280  0.00  0.00     0.162 HD
HETATM   20  O           1       5.353  35.018  56.477  0.00  0.00    -0.274 OA
BRANCH  18  21
HETATM   21  C           1       4.889  35.007  53.666  0.00  0.00     0.148 C 
BRANCH  21  22
HETATM   22  C           1       5.981  34.553  52.697  0.00  0.00     0.186 C 
BRANCH  22  23
HETATM   23  O           1       7.217  35.070  53.126  0.00  0.00    -0.394 OA
HETATM   24  C           1       7.104  36.391  53.611  0.00  0.00     0.201 C 
ENDBRANCH  22  23
ENDBRANCH  21  22
ENDBRANCH  18  21
ENDBRANCH  16  17
ENDBRANCH   4  16
BRANCH  12  25
HETATM   25  C           1       5.576  32.245  63.203  0.00  0.00     0.176 C 
BRANCH  25  26
HETATM   26  O           1       4.892  32.646  64.373  0.00  0.00    -0.400 OA
HETATM   27  H           1       5.526  32.844  65.065  0.00  0.00     0.209 HD
ENDBRANCH  25  26
ENDBRANCH  12  25
BRANCH   8  28
HETATM   28  N           1       7.954  28.976  56.855  0.00  0.00    -0.365 N 
HETATM   29  H           1       8.989  28.803  56.914  0.00  0.00     0.162 HD
BRANCH  28  30
HETATM   30  C           1       7.153  28.092  55.982  0.00  0.00     0.160 C 
BRANCH  30  31
HETATM   31  C           1       7.603  26.657  56.138  0.00  0.00    -0.041 A 
HETATM   32  C           1       7.397  25.765  55.151  0.00  0.00     0.009 A 
HETATM   33  C           1       7.767  24.483  55.286  0.00  0.00     0.001 A 
HETATM   34  C           1       8.357  24.071  56.417  0.00  0.00     0.000 A 
HETATM   35  C           1       8.574  24.949  57.408  0.00  0.00     0.001 A 
HETATM   36  C           1       8.198  26.230  57.267  0.00  0.00     0.009 A 
ENDBRANCH  30  31
ENDBRANCH  28  30
ENDBRANCH   8  28
BRANCH  13  37
HETATM   37  O           1       2.943  32.255  62.528  0.00  0.00    -0.395 OA
HETATM   38  H           1       2.442  32.476  63.320  0.00  0.00     0.210 HD
ENDBRANCH  13  37
TORSDOF 11
ENDMDL
MODEL 8
REMARK VINA RESULT:      -7.5      4.471      7.458
REMARK  11 active torsions:
REMARK  status: ('A' for Active; 'I' for Inactive)
REMARK    1  A    between atoms: C_1  and  C_7 
REMARK    2  A    between atoms: C_1  and  C_11 
REMARK    3  A    between atoms: C_8  and  C_13 
REMARK    4  A    between atoms: C_8  and  O_14 
REMARK       I    between atoms: C_11  and  N_12 
REMARK    5  A    between atoms: N_12  and  C_13 
REMARK    6  A    between atoms: C_18  and  N_19 
REMARK    7  A    between atoms: N_19  and  C_20 
REMARK    8  A    between atoms: C_20  and  C_21 
REMARK    9  A    between atoms: C_28  and  C_29 
REMARK   10  A    between atoms: C_29  and  O_30 
REMARK   11  A    between atoms: C_31  and  O_32 
ROOT
HETATM    1  C           1       5.854  26.627  57.053  0.00  0.00     0.012 A 
HETATM    2  C           1       7.560  29.453  55.501  0.00  0.00     0.016 C 
HETATM    3  C           1       6.495  29.427  56.629  0.00  0.00    -0.030 C 
HETATM    4  C           1       7.089  28.622  57.830  0.00  0.00     0.056 C 
HETATM    5  C           1       3.061  30.046  56.950  0.00  0.00     0.020 C 
HETATM    6  C           1       6.985  27.161  57.507  0.00  0.00     0.056 A 
HETATM    7  S           1       6.033  25.193  56.816  0.00  0.00    -0.055 SA
HETATM    8  C           1       7.434  25.183  57.260  0.00  0.00     0.167 A 
HETATM    9  N           1       7.903  26.307  57.613  0.00  0.00    -0.228 NA
HETATM   10  C           1       4.676  27.520  56.816  0.00  0.00     0.055 C 
HETATM   11  C           1       5.161  28.792  56.075  0.00  0.00     0.012 C 
HETATM   12  C           1       3.983  29.763  55.738  0.00  0.00     0.008 C 
HETATM   13  C           1       4.509  31.105  55.197  0.00  0.00     0.128 C 
HETATM   14  C           1       5.618  31.771  56.010  0.00  0.00     0.033 C 
HETATM   15  C           1       6.249  30.880  57.083  0.00  0.00     0.013 C 
ENDROOT
BRANCH   4  16
HETATM   16  C           1       8.505  28.984  58.324  0.00  0.00     0.114 C 
BRANCH  16  17
HETATM   17  C           1       8.582  30.347  59.005  0.00  0.00     0.218 C 
HETATM   18  N           1       7.926  30.409  60.205  0.00  0.00    -0.359 N 
HETATM   19  H           1       7.494  29.557  60.562  0.00  0.00     0.162 HD
HETATM   20  O           1       9.162  31.286  58.518  0.00  0.00    -0.274 OA
BRANCH  18  21
HETATM   21  C           1       7.808  31.637  61.000  0.00  0.00     0.148 C 
BRANCH  21  22
HETATM   22  C           1       7.616  31.262  62.469  0.00  0.00     0.186 C 
BRANCH  22  23
HETATM   23  O           1       6.907  32.292  63.116  0.00  0.00    -0.394 OA
HETATM   24  C           1       7.694  32.956  64.081  0.00  0.00     0.201 C 
ENDBRANCH  22  23
ENDBRANCH  21  22
ENDBRANCH  18  21
ENDBRANCH  16  17
ENDBRANCH   4  16
BRANCH  12  25
HETATM   25  C           1       3.084  29.103  54.660  0.00  0.00     0.176 C 
BRANCH  25  26
HETATM   26  O           1       3.859  28.384  53.723  0.00  0.00    -0.400 OA
HETATM   27  H           1       4.474  27.810  54.186  0.00  0.00     0.209 HD
ENDBRANCH  25  26
ENDBRANCH  12  25
BRANCH   8  28
HETATM   28  N           1       8.066  24.085  57.237  0.00  0.00    -0.365 N 
HETATM   29  H           1       7.809  23.355  57.947  0.00  0.00     0.162 HD
BRANCH  28  30
HETATM   30  C           1       9.140  23.766  56.272  0.00  0.00     0.160 C 
BRANCH  30  31
HETATM   31  C           1       8.683  22.681  55.323  0.00  0.00    -0.041 A 
HETATM   32  C           1       8.423  22.965  54.033  0.00  0.00     0.009 A 
HETATM   33  C           1       7.992  22.018  53.187  0.00  0.00     0.001 A 
HETATM   34  C           1       7.817  20.762  53.620  0.00  0.00     0.000 A 
HETATM   35  C           1       8.077  20.461  54.901  0.00  0.00     0.001 A 
HETATM   36  C           1       8.505  21.415  55.743  0.00  0.00     0.009 A 
ENDBRANCH  30  31
ENDBRANCH  28  30
ENDBRANCH   8  28
BRANCH  13  37
HETATM   37  O           1       4.932  30.930  53.863  0.00  0.00    -0.395 OA
HETATM   38  H           1       5.853  30.649  53.883  0.00  0.00     0.210 HD
ENDBRANCH  13  37
TORSDOF 11
ENDMDL
MODEL 9
REMARK VINA RESULT:      -7.5      6.859     11.286
REMARK  11 active torsions:
REMARK  status: ('A' for Active; 'I' for Inactive)
REMARK    1  A    between atoms: C_1  and  C_7 
REMARK    2  A    between atoms: C_1  and  C_11 
REMARK    3  A    between atoms: C_8  and  C_13 
REMARK    4  A    between atoms: C_8  and  O_14 
REMARK       I    between atoms: C_11  and  N_12 
REMARK    5  A    between atoms: N_12  and  C_13 
REMARK    6  A    between atoms: C_18  and  N_19 
REMARK    7  A    between atoms: N_19  and  C_20 
REMARK    8  A    between atoms: C_20  and  C_21 
REMARK    9  A    between atoms: C_28  and  C_29 
REMARK   10  A    between atoms: C_29  and  O_30 
REMARK   11  A    between atoms: C_31  and  O_32 
ROOT
HETATM    1  C           1       7.180  32.401  60.458  0.00  0.00     0.012 A 
HETATM    2  C           1       3.835  31.935  61.835  0.00  0.00     0.016 C 
HETATM    3  C           1       4.622  33.241  61.544  0.00  0.00    -0.030 C 
HETATM    4  C           1       4.917  33.289  60.010  0.00  0.00     0.056 C 
HETATM    5  C           1       6.418  35.633  63.369  0.00  0.00     0.020 C 
HETATM    6  C           1       6.067  32.369  59.728  0.00  0.00     0.056 A 
HETATM    7  S           1       8.130  31.398  59.973  0.00  0.00    -0.055 SA
HETATM    8  C           1       7.251  30.927  58.893  0.00  0.00     0.167 A 
HETATM    9  N           1       6.118  31.494  58.824  0.00  0.00    -0.228 NA
HETATM   10  C           1       7.261  33.349  61.613  0.00  0.00     0.055 C 
HETATM   11  C           1       5.937  33.265  62.416  0.00  0.00     0.012 C 
HETATM   12  C           1       5.952  34.188  63.677  0.00  0.00     0.008 C 
HETATM   13  C           1       4.561  34.249  64.335  0.00  0.00     0.128 C 
HETATM   14  C           1       3.386  34.534  63.400  0.00  0.00     0.033 C 
HETATM   15  C           1       3.715  34.433  61.908  0.00  0.00     0.013 C 
ENDROOT
BRANCH   4  16
HETATM   16  C           1       3.751  33.039  59.032  0.00  0.00     0.114 C 
BRANCH  16  17
HETATM   17  C           1       3.304  34.291  58.284  0.00  0.00     0.218 C 
HETATM   18  N           1       4.318  35.170  58.013  0.00  0.00    -0.359 N 
HETATM   19  H           1       5.266  34.908  58.279  0.00  0.00     0.162 HD
HETATM   20  O           1       2.155  34.488  57.972  0.00  0.00    -0.274 OA
BRANCH  18  21
HETATM   21  C           1       4.108  36.472  57.367  0.00  0.00     0.148 C 
BRANCH  21  22
HETATM   22  C           1       4.422  36.342  55.876  0.00  0.00     0.186 C 
BRANCH  22  23
HETATM   23  O           1       5.572  35.548  55.717  0.00  0.00    -0.394 OA
HETATM   24  C           1       6.031  35.533  54.383  0.00  0.00     0.201 C 
ENDBRANCH  22  23
ENDBRANCH  21  22
ENDBRANCH  18  21
ENDBRANCH  16  17
ENDBRANCH   4  16
BRANCH  12  25
HETATM   25  C           1       6.970  33.619  64.700  0.00  0.00     0.176 C 
BRANCH  25  26
HETATM   26  O           1       6.887  34.304  65.933  0.00  0.00    -0.400 OA
HETATM   27  H           1       6.149  34.918  65.912  0.00  0.00     0.209 HD
ENDBRANCH  25  26
ENDBRANCH  12  25
BRANCH   8  28
HETATM   28  N           1       7.665  29.996  58.140  0.00  0.00    -0.365 N 
HETATM   29  H           1       8.581  29.541  58.379  0.00  0.00     0.162 HD
BRANCH  28  30
HETATM   30  C           1       6.939  29.509  56.948  0.00  0.00     0.160 C 
BRANCH  30  31
HETATM   31  C           1       6.673  28.025  57.069  0.00  0.00    -0.041 A 
HETATM   32  C           1       7.647  27.186  57.468  0.00  0.00     0.009 A 
HETATM   33  C           1       7.433  25.865  57.555  0.00  0.00     0.001 A 
HETATM   34  C           1       6.231  25.359  57.246  0.00  0.00     0.000 A 
HETATM   35  C           1       5.247  26.183  56.852  0.00  0.00     0.001 A 
HETATM   36  C           1       5.470  27.504  56.764  0.00  0.00     0.009 A 
ENDBRANCH  30  31
ENDBRANCH  28  30
ENDBRANCH   8  28
BRANCH  13  37
HETATM   37  O           1       4.333  33.050  65.041  0.00  0.00    -0.395 OA
HETATM   38  H           1       4.547  32.319  64.453  0.00  0.00     0.210 HD
ENDBRANCH  13  37
TORSDOF 11
ENDMDL
MODEL 10
REMARK VINA RESULT:      -7.5      2.450      3.646
REMARK  11 active torsions:
REMARK  status: ('A' for Active; 'I' for Inactive)
REMARK    1  A    between atoms: C_1  and  C_7 
REMARK    2  A    between atoms: C_1  and  C_11 
REMARK    3  A    between atoms: C_8  and  C_13 
REMARK    4  A    between atoms: C_8  and  O_14 
REMARK       I    between atoms: C_11  and  N_12 
REMARK    5  A    between atoms: N_12  and  C_13 
REMARK    6  A    between atoms: C_18  and  N_19 
REMARK    7  A    between atoms: N_19  and  C_20 
REMARK    8  A    between atoms: C_20  and  C_21 
REMARK    9  A    between atoms: C_28  and  C_29 
REMARK   10  A    between atoms: C_29  and  O_30 
REMARK   11  A    between atoms: C_31  and  O_32 
ROOT
HETATM    1  C           1       6.103  25.372  53.205  0.00  0.00     0.012 A 
HETATM    2  C           1       6.342  23.995  56.574  0.00  0.00     0.016 C 
HETATM    3  C           1       7.457  24.291  55.535  0.00  0.00    -0.030 C 
HETATM    4  C           1       7.436  25.825  55.237  0.00  0.00     0.056 C 
HETATM    5  C           1       9.436  22.476  53.284  0.00  0.00     0.020 C 
HETATM    6  C           1       6.297  26.102  54.302  0.00  0.00     0.056 A 
HETATM    7  S           1       4.923  25.852  52.483  0.00  0.00    -0.055 SA
HETATM    8  C           1       4.639  26.930  53.441  0.00  0.00     0.167 A 
HETATM    9  N           1       5.427  27.002  54.432  0.00  0.00    -0.228 NA
HETATM   10  C           1       7.020  24.222  52.931  0.00  0.00     0.055 C 
HETATM   11  C           1       7.213  23.419  54.243  0.00  0.00     0.012 C 
HETATM   12  C           1       8.119  22.162  54.037  0.00  0.00     0.008 C 
HETATM   13  C           1       8.469  21.505  55.386  0.00  0.00     0.128 C 
HETATM   14  C           1       8.985  22.441  56.477  0.00  0.00     0.033 C 
HETATM   15  C           1       8.812  23.933  56.177  0.00  0.00     0.013 C 
ENDROOT
BRANCH   4  16
HETATM   16  C           1       7.427  26.803  56.431  0.00  0.00     0.114 C 
BRANCH  16  17
HETATM   17  C           1       8.290  28.041  56.211  0.00  0.00     0.218 C 
HETATM   18  N           1       9.035  28.402  57.301  0.00  0.00    -0.359 N 
HETATM   19  H           1       8.994  27.810  58.130  0.00  0.00     0.162 HD
HETATM   20  O           1       8.302  28.649  55.169  0.00  0.00    -0.274 OA
BRANCH  18  21
HETATM   21  C           1       9.883  29.600  57.340  0.00  0.00     0.148 C 
BRANCH  21  22
HETATM   22  C           1       9.294  30.594  58.341  0.00  0.00     0.186 C 
BRANCH  22  23
HETATM   23  O           1       8.766  29.884  59.434  0.00  0.00    -0.394 OA
HETATM   24  C           1       8.463  30.730  60.523  0.00  0.00     0.201 C 
ENDBRANCH  22  23
ENDBRANCH  21  22
ENDBRANCH  18  21
ENDBRANCH  16  17
ENDBRANCH   4  16
BRANCH  12  25
HETATM   25  C           1       7.357  21.136  53.158  0.00  0.00     0.176 C 
BRANCH  25  26
HETATM   26  O           1       8.160  20.004  52.888  0.00  0.00    -0.400 OA
HETATM   27  H           1       8.566  19.696  53.701  0.00  0.00     0.209 HD
ENDBRANCH  25  26
ENDBRANCH  12  25
BRANCH   8  28
HETATM   28  N           1       3.639  27.679  53.228  0.00  0.00    -0.365 N 
HETATM   29  H           1       2.691  27.229  53.172  0.00  0.00     0.162 HD
BRANCH  28  30
HETATM   30  C           1       3.723  29.145  53.055  0.00  0.00     0.160 C 
BRANCH  30  31
HETATM   31  C           1       3.967  29.814  54.390  0.00  0.00    -0.041 A 
HETATM   32  C           1       2.952  30.017  55.249  0.00  0.00     0.009 A 
HETATM   33  C           1       3.149  30.632  56.424  0.00  0.00     0.001 A 
HETATM   34  C           1       4.376  31.053  56.762  0.00  0.00     0.000 A 
HETATM   35  C           1       5.400  30.853  55.919  0.00  0.00     0.001 A 
HETATM   36  C           1       5.194  30.240  54.743  0.00  0.00     0.009 A 
ENDBRANCH  30  31
ENDBRANCH  28  30
ENDBRANCH   8  28
BRANCH  13  37
HETATM   37  O           1       7.346  20.793  55.855  0.00  0.00    -0.395 OA
HETATM   38  H           1       7.667  20.023  56.334  0.00  0.00     0.210 HD
ENDBRANCH  13  37
TORSDOF 11
ENDMDL
