MODEL 1
REMARK VINA RESULT:      -8.0      0.000      0.000
REMARK  5 active torsions:
REMARK  status: ('A' for Active; 'I' for Inactive)
REMARK    1  A    between atoms: C_2  and  C_3 
REMARK    2  A    between atoms: C_7  and  N_8 
REMARK       I    between atoms: N_8  and  C_9 
REMARK    3  A    between atoms: C_9  and  C_10 
REMARK    4  A    between atoms: C_10  and  N_11 
REMARK    5  A    between atoms: N_11  and  C_14 
ROOT
HETATM    1  C   UNL     1       7.495  26.252  55.816  1.00  0.00     0.043 C 
HETATM    2  N   UNL     1       7.804  24.979  56.145  1.00  0.00    -0.252 NA
HETATM    3  C   UNL     1       7.927  24.050  55.194  1.00  0.00     0.069 A 
HETATM    4  C   UNL     1       7.682  24.310  53.832  1.00  0.00     0.020 A 
HETATM    5  C   UNL     1       7.211  25.618  53.508  1.00  0.00     0.055 C 
HETATM    6  C   UNL     1       7.208  26.634  54.500  1.00  0.00    -0.010 C 
HETATM    7  C   UNL     1       6.850  28.061  54.169  1.00  0.00     0.052 C 
HETATM    8  C   UNL     1       8.344  22.787  55.596  1.00  0.00     0.032 A 
HETATM    9  C   UNL     1       8.581  21.762  54.684  1.00  0.00     0.002 A 
HETATM   10  C   UNL     1       8.421  22.010  53.332  1.00  0.00     0.001 A 
HETATM   11  C   UNL     1       7.991  23.270  52.913  1.00  0.00     0.016 A 
ENDROOT
BRANCH   5  12
HETATM   12  N   UNL     1       6.725  25.985  52.210  1.00  0.00    -0.324 N 
HETATM   13  C   UNL     1       5.506  25.616  51.664  1.00  0.00     0.248 C 
HETATM   14  O   UNL     1       4.669  24.858  52.145  1.00  0.00    -0.271 OA
HETATM   15  H   UNL     1       7.149  26.819  51.821  1.00  0.00     0.169 HD
BRANCH  13  16
HETATM   16  C   UNL     1       5.215  26.275  50.311  1.00  0.00     0.335 C 
BRANCH  16  17
HETATM   17  N   UNL     1       3.943  25.767  49.666  1.00  0.00    -0.063 N 
HETATM   18  H   UNL     1       3.945  24.741  49.647  1.00  0.00     0.278 HD
HETATM   19  H   UNL     1       3.181  26.051  50.300  1.00  0.00     0.278 HD
BRANCH  17  20
HETATM   20  C   UNL     1       3.568  26.303  48.306  1.00  0.00     0.178 C 
HETATM   21  C   UNL     1       4.778  26.928  47.624  1.00  0.00     0.039 C 
HETATM   22  C   UNL     1       3.029  25.128  47.493  1.00  0.00     0.039 C 
ENDBRANCH  17  20
ENDBRANCH  16  17
ENDBRANCH  13  16
ENDBRANCH   5  12
BRANCH   1  23
HETATM   23  C   UNL     1       7.452  27.192  56.997  1.00  0.00     0.055 C 
HETATM   24  C   UNL     1       8.757  27.952  57.181  1.00  0.00     0.011 C 
ENDBRANCH   1  23
TORSDOF 5
ENDMDL
MODEL 2
REMARK VINA RESULT:      -7.9      1.093      3.722
REMARK  5 active torsions:
REMARK  status: ('A' for Active; 'I' for Inactive)
REMARK    1  A    between atoms: C_2  and  C_3 
REMARK    2  A    between atoms: C_7  and  N_8 
REMARK       I    between atoms: N_8  and  C_9 
REMARK    3  A    between atoms: C_9  and  C_10 
REMARK    4  A    between atoms: C_10  and  N_11 
REMARK    5  A    between atoms: N_11  and  C_14 
ROOT
HETATM    1  C   UNL     1       8.440  22.867  55.323  1.00  0.00     0.043 C 
HETATM    2  N   UNL     1       8.561  23.653  56.414  1.00  0.00    -0.252 NA
HETATM    3  C   UNL     1       8.051  24.888  56.412  1.00  0.00     0.069 A 
HETATM    4  C   UNL     1       7.434  25.460  55.284  1.00  0.00     0.020 A 
HETATM    5  C   UNL     1       7.441  24.679  54.089  1.00  0.00     0.055 C 
HETATM    6  C   UNL     1       7.865  23.325  54.132  1.00  0.00    -0.010 C 
HETATM    7  C   UNL     1       7.761  22.425  52.927  1.00  0.00     0.052 C 
HETATM    8  C   UNL     1       8.126  25.602  57.601  1.00  0.00     0.032 A 
HETATM    9  C   UNL     1       7.560  26.867  57.740  1.00  0.00     0.002 A 
HETATM   10  C   UNL     1       6.881  27.424  56.671  1.00  0.00     0.001 A 
HETATM   11  C   UNL     1       6.808  26.724  55.466  1.00  0.00     0.016 A 
ENDROOT
BRANCH   5  12
HETATM   12  N   UNL     1       7.039  25.187  52.810  1.00  0.00    -0.324 N 
HETATM   13  C   UNL     1       5.736  25.299  52.352  1.00  0.00     0.248 C 
HETATM   14  O   UNL     1       4.711  24.920  52.911  1.00  0.00    -0.271 OA
HETATM   15  H   UNL     1       7.717  25.794  52.365  1.00  0.00     0.169 HD
BRANCH  13  16
HETATM   16  C   UNL     1       5.621  26.003  50.996  1.00  0.00     0.335 C 
BRANCH  16  17
HETATM   17  N   UNL     1       4.325  25.692  50.275  1.00  0.00    -0.063 N 
HETATM   18  H   UNL     1       4.170  24.678  50.256  1.00  0.00     0.278 HD
HETATM   19  H   UNL     1       3.580  26.095  50.863  1.00  0.00     0.278 HD
BRANCH  17  20
HETATM   20  C   UNL     1       4.119  26.268  48.895  1.00  0.00     0.178 C 
HETATM   21  C   UNL     1       3.176  25.390  48.084  1.00  0.00     0.039 C 
HETATM   22  C   UNL     1       3.539  27.669  49.077  1.00  0.00     0.039 C 
ENDBRANCH  17  20
ENDBRANCH  16  17
ENDBRANCH  13  16
ENDBRANCH   5  12
BRANCH   1  23
HETATM   23  C   UNL     1       9.016  21.482  55.506  1.00  0.00     0.055 C 
HETATM   24  C   UNL     1       8.047  20.540  56.205  1.00  0.00     0.011 C 
ENDBRANCH   1  23
TORSDOF 5
ENDMDL
MODEL 3
REMARK VINA RESULT:      -7.3      2.243      6.319
REMARK  5 active torsions:
REMARK  status: ('A' for Active; 'I' for Inactive)
REMARK    1  A    between atoms: C_2  and  C_3 
REMARK    2  A    between atoms: C_7  and  N_8 
REMARK       I    between atoms: N_8  and  C_9 
REMARK    3  A    between atoms: C_9  and  C_10 
REMARK    4  A    between atoms: C_10  and  N_11 
REMARK    5  A    between atoms: N_11  and  C_14 
ROOT
HETATM    1  C   UNL     1       5.736  24.944  52.761  1.00  0.00     0.043 C 
HETATM    2  N   UNL     1       6.454  23.830  52.505  1.00  0.00    -0.252 NA
HETATM    3  C   UNL     1       7.408  23.435  53.353  1.00  0.00     0.069 A 
HETATM    4  C   UNL     1       7.765  24.169  54.499  1.00  0.00     0.020 A 
HETATM    5  C   UNL     1       7.105  25.422  54.686  1.00  0.00     0.055 C 
HETATM    6  C   UNL     1       6.006  25.772  53.857  1.00  0.00    -0.010 C 
HETATM    7  C   UNL     1       5.196  27.018  54.105  1.00  0.00     0.052 C 
HETATM    8  C   UNL     1       8.037  22.228  53.076  1.00  0.00     0.032 A 
HETATM    9  C   UNL     1       8.991  21.679  53.929  1.00  0.00     0.002 A 
HETATM   10  C   UNL     1       9.308  22.341  55.102  1.00  0.00     0.001 A 
HETATM   11  C   UNL     1       8.694  23.561  55.389  1.00  0.00     0.016 A 
ENDROOT
BRANCH   5  12
HETATM   12  N   UNL     1       7.491  26.379  55.681  1.00  0.00    -0.324 N 
HETATM   13  C   UNL     1       7.139  26.345  57.021  1.00  0.00     0.248 C 
HETATM   14  O   UNL     1       6.385  25.553  57.578  1.00  0.00    -0.271 OA
HETATM   15  H   UNL     1       8.324  26.908  55.457  1.00  0.00     0.169 HD
BRANCH  13  16
HETATM   16  C   UNL     1       7.816  27.434  57.860  1.00  0.00     0.335 C 
BRANCH  16  17
HETATM   17  N   UNL     1       8.865  28.210  57.090  1.00  0.00    -0.063 N 
HETATM   18  H   UNL     1       9.765  27.717  57.132  1.00  0.00     0.278 HD
HETATM   19  H   UNL     1       8.558  28.185  56.106  1.00  0.00     0.278 HD
BRANCH  17  20
HETATM   20  C   UNL     1       9.064  29.668  57.423  1.00  0.00     0.178 C 
HETATM   21  C   UNL     1       8.547  29.973  58.823  1.00  0.00     0.039 C 
HETATM   22  C   UNL     1      10.561  29.952  57.320  1.00  0.00     0.039 C 
ENDBRANCH  17  20
ENDBRANCH  16  17
ENDBRANCH  13  16
ENDBRANCH   5  12
BRANCH   1  23
HETATM   23  C   UNL     1       4.658  25.221  51.739  1.00  0.00     0.055 C 
HETATM   24  C   UNL     1       5.161  26.073  50.583  1.00  0.00     0.011 C 
ENDBRANCH   1  23
TORSDOF 5
ENDMDL
MODEL 4
REMARK VINA RESULT:      -7.2      2.145      4.401
REMARK  5 active torsions:
REMARK  status: ('A' for Active; 'I' for Inactive)
REMARK    1  A    between atoms: C_2  and  C_3 
REMARK    2  A    between atoms: C_7  and  N_8 
REMARK       I    between atoms: N_8  and  C_9 
REMARK    3  A    between atoms: C_9  and  C_10 
REMARK    4  A    between atoms: C_10  and  N_11 
REMARK    5  A    between atoms: N_11  and  C_14 
ROOT
HETATM    1  C   UNL     1       6.079  25.016  54.193  1.00  0.00     0.043 C 
HETATM    2  N   UNL     1       6.369  25.701  55.321  1.00  0.00    -0.252 NA
HETATM    3  C   UNL     1       5.782  26.876  55.563  1.00  0.00     0.069 A 
HETATM    4  C   UNL     1       4.901  27.494  54.655  1.00  0.00     0.020 A 
HETATM    5  C   UNL     1       4.713  26.836  53.402  1.00  0.00     0.055 C 
HETATM    6  C   UNL     1       5.234  25.530  53.203  1.00  0.00    -0.010 C 
HETATM    7  C   UNL     1       4.944  24.746  51.949  1.00  0.00     0.052 C 
HETATM    8  C   UNL     1       6.052  27.476  56.786  1.00  0.00     0.032 A 
HETATM    9  C   UNL     1       5.438  28.662  57.180  1.00  0.00     0.002 A 
HETATM   10  C   UNL     1       4.510  29.253  56.341  1.00  0.00     0.001 A 
HETATM   11  C   UNL     1       4.236  28.669  55.103  1.00  0.00     0.016 A 
ENDROOT
BRANCH   5  12
HETATM   12  N   UNL     1       4.015  27.425  52.296  1.00  0.00    -0.324 N 
HETATM   13  C   UNL     1       4.554  28.300  51.367  1.00  0.00     0.248 C 
HETATM   14  O   UNL     1       5.682  28.785  51.361  1.00  0.00    -0.271 OA
HETATM   15  H   UNL     1       3.192  26.916  51.998  1.00  0.00     0.169 HD
BRANCH  13  16
HETATM   16  C   UNL     1       3.593  28.652  50.226  1.00  0.00     0.335 C 
BRANCH  16  17
HETATM   17  N   UNL     1       3.041  27.431  49.518  1.00  0.00    -0.063 N 
HETATM   18  H   UNL     1       2.467  26.880  50.167  1.00  0.00     0.278 HD
HETATM   19  H   UNL     1       2.402  27.798  48.796  1.00  0.00     0.278 HD
BRANCH  17  20
HETATM   20  C   UNL     1       4.007  26.527  48.793  1.00  0.00     0.178 C 
HETATM   21  C   UNL     1       3.262  25.396  48.096  1.00  0.00     0.039 C 
HETATM   22  C   UNL     1       4.757  27.391  47.782  1.00  0.00     0.039 C 
ENDBRANCH  17  20
ENDBRANCH  16  17
ENDBRANCH  13  16
ENDBRANCH   5  12
BRANCH   1  23
HETATM   23  C   UNL     1       6.779  23.681  54.097  1.00  0.00     0.055 C 
HETATM   24  C   UNL     1       8.056  23.755  53.272  1.00  0.00     0.011 C 
ENDBRANCH   1  23
TORSDOF 5
ENDMDL
MODEL 5
REMARK VINA RESULT:      -7.1      1.735      2.077
REMARK  5 active torsions:
REMARK  status: ('A' for Active; 'I' for Inactive)
REMARK    1  A    between atoms: C_2  and  C_3 
REMARK    2  A    between atoms: C_7  and  N_8 
REMARK       I    between atoms: N_8  and  C_9 
REMARK    3  A    between atoms: C_9  and  C_10 
REMARK    4  A    between atoms: C_10  and  N_11 
REMARK    5  A    between atoms: N_11  and  C_14 
ROOT
HETATM    1  C   UNL     1       5.887  27.015  55.801  1.00  0.00     0.043 C 
HETATM    2  N   UNL     1       6.674  25.920  55.871  1.00  0.00    -0.252 NA
HETATM    3  C   UNL     1       6.934  25.210  54.770  1.00  0.00     0.069 A 
HETATM    4  C   UNL     1       6.368  25.504  53.516  1.00  0.00     0.020 A 
HETATM    5  C   UNL     1       5.421  26.572  53.479  1.00  0.00     0.055 C 
HETATM    6  C   UNL     1       5.248  27.403  54.618  1.00  0.00    -0.010 C 
HETATM    7  C   UNL     1       4.363  28.622  54.579  1.00  0.00     0.052 C 
HETATM    8  C   UNL     1       7.830  24.155  54.898  1.00  0.00     0.032 A 
HETATM    9  C   UNL     1       8.236  23.394  53.805  1.00  0.00     0.002 A 
HETATM   10  C   UNL     1       7.755  23.708  52.547  1.00  0.00     0.001 A 
HETATM   11  C   UNL     1       6.844  24.757  52.403  1.00  0.00     0.016 A 
ENDROOT
BRANCH   5  12
HETATM   12  N   UNL     1       4.608  26.870  52.336  1.00  0.00    -0.324 N 
HETATM   13  C   UNL     1       4.912  27.781  51.337  1.00  0.00     0.248 C 
HETATM   14  O   UNL     1       5.873  28.542  51.284  1.00  0.00    -0.271 OA
HETATM   15  H   UNL     1       3.951  26.142  52.085  1.00  0.00     0.169 HD
BRANCH  13  16
HETATM   16  C   UNL     1       3.908  27.779  50.179  1.00  0.00     0.335 C 
BRANCH  16  17
HETATM   17  N   UNL     1       3.778  26.426  49.509  1.00  0.00    -0.063 N 
HETATM   18  H   UNL     1       4.677  25.931  49.543  1.00  0.00     0.278 HD
HETATM   19  H   UNL     1       3.122  25.890  50.097  1.00  0.00     0.278 HD
BRANCH  17  20
HETATM   20  C   UNL     1       3.215  26.373  48.110  1.00  0.00     0.178 C 
HETATM   21  C   UNL     1       2.997  24.930  47.676  1.00  0.00     0.039 C 
HETATM   22  C   UNL     1       1.897  27.144  48.127  1.00  0.00     0.039 C 
ENDBRANCH  17  20
ENDBRANCH  16  17
ENDBRANCH  13  16
ENDBRANCH   5  12
BRANCH   1  23
HETATM   23  C   UNL     1       5.738  27.741  57.118  1.00  0.00     0.055 C 
HETATM   24  C   UNL     1       7.045  28.365  57.586  1.00  0.00     0.011 C 
ENDBRANCH   1  23
TORSDOF 5
ENDMDL
MODEL 6
REMARK VINA RESULT:      -7.1      7.599     11.389
REMARK  5 active torsions:
REMARK  status: ('A' for Active; 'I' for Inactive)
REMARK    1  A    between atoms: C_2  and  C_3 
REMARK    2  A    between atoms: C_7  and  N_8 
REMARK       I    between atoms: N_8  and  C_9 
REMARK    3  A    between atoms: C_9  and  C_10 
REMARK    4  A    between atoms: C_10  and  N_11 
REMARK    5  A    between atoms: N_11  and  C_14 
ROOT
HETATM    1  C   UNL     1       4.390  33.812  60.739  1.00  0.00     0.043 C 
HETATM    2  N   UNL     1       4.511  34.105  62.052  1.00  0.00    -0.252 NA
HETATM    3  C   UNL     1       5.576  33.683  62.739  1.00  0.00     0.069 A 
HETATM    4  C   UNL     1       6.578  32.871  62.175  1.00  0.00     0.020 A 
HETATM    5  C   UNL     1       6.370  32.442  60.830  1.00  0.00     0.055 C 
HETATM    6  C   UNL     1       5.308  32.997  60.067  1.00  0.00    -0.010 C 
HETATM    7  C   UNL     1       5.134  32.676  58.605  1.00  0.00     0.052 C 
HETATM    8  C   UNL     1       5.683  34.105  64.058  1.00  0.00     0.032 A 
HETATM    9  C   UNL     1       6.787  33.792  64.847  1.00  0.00     0.002 A 
HETATM   10  C   UNL     1       7.824  33.059  64.297  1.00  0.00     0.001 A 
HETATM   11  C   UNL     1       7.726  32.617  62.977  1.00  0.00     0.016 A 
ENDROOT
BRANCH   5  12
HETATM   12  N   UNL     1       7.183  31.457  60.178  1.00  0.00    -0.324 N 
HETATM   13  C   UNL     1       8.446  31.667  59.648  1.00  0.00     0.248 C 
HETATM   14  O   UNL     1       9.058  32.728  59.568  1.00  0.00    -0.271 OA
HETATM   15  H   UNL     1       6.958  30.499  60.417  1.00  0.00     0.169 HD
BRANCH  13  16
HETATM   16  C   UNL     1       9.116  30.388  59.135  1.00  0.00     0.335 C 
BRANCH  16  17
HETATM   17  N   UNL     1       8.457  29.832  57.890  1.00  0.00    -0.063 N 
HETATM   18  H   UNL     1       7.619  29.296  58.147  1.00  0.00     0.278 HD
HETATM   19  H   UNL     1       8.132  30.655  57.360  1.00  0.00     0.278 HD
BRANCH  17  20
HETATM   20  C   UNL     1       9.303  29.031  56.931  1.00  0.00     0.178 C 
HETATM   21  C   UNL     1       8.644  28.968  55.560  1.00  0.00     0.039 C 
HETATM   22  C   UNL     1      10.664  29.719  56.851  1.00  0.00     0.039 C 
ENDBRANCH  17  20
ENDBRANCH  16  17
ENDBRANCH  13  16
ENDBRANCH   5  12
BRANCH   1  23
HETATM   23  C   UNL     1       3.162  34.411  60.094  1.00  0.00     0.055 C 
HETATM   24  C   UNL     1       3.366  35.867  59.701  1.00  0.00     0.011 C 
ENDBRANCH   1  23
TORSDOF 5
ENDMDL
MODEL 7
REMARK VINA RESULT:      -7.1      7.508     11.262
REMARK  5 active torsions:
REMARK  status: ('A' for Active; 'I' for Inactive)
REMARK    1  A    between atoms: C_2  and  C_3 
REMARK    2  A    between atoms: C_7  and  N_8 
REMARK       I    between atoms: N_8  and  C_9 
REMARK    3  A    between atoms: C_9  and  C_10 
REMARK    4  A    between atoms: C_10  and  N_11 
REMARK    5  A    between atoms: N_11  and  C_14 
ROOT
HETATM    1  C   UNL     1       6.993  33.258  63.241  1.00  0.00     0.043 C 
HETATM    2  N   UNL     1       6.150  34.268  62.938  1.00  0.00    -0.252 NA
HETATM    3  C   UNL     1       5.491  34.267  61.776  1.00  0.00     0.069 A 
HETATM    4  C   UNL     1       5.678  33.281  60.789  1.00  0.00     0.020 A 
HETATM    5  C   UNL     1       6.679  32.298  61.053  1.00  0.00     0.055 C 
HETATM    6  C   UNL     1       7.280  32.228  62.338  1.00  0.00    -0.010 C 
HETATM    7  C   UNL     1       8.239  31.123  62.702  1.00  0.00     0.052 C 
HETATM    8  C   UNL     1       4.567  35.285  61.574  1.00  0.00     0.032 A 
HETATM    9  C   UNL     1       3.767  35.343  60.436  1.00  0.00     0.002 A 
HETATM   10  C   UNL     1       3.875  34.345  59.484  1.00  0.00     0.001 A 
HETATM   11  C   UNL     1       4.807  33.322  59.665  1.00  0.00     0.016 A 
ENDROOT
BRANCH   5  12
HETATM   12  N   UNL     1       7.134  31.350  60.078  1.00  0.00    -0.324 N 
HETATM   13  C   UNL     1       8.235  31.501  59.250  1.00  0.00     0.248 C 
HETATM   14  O   UNL     1       8.963  32.483  59.142  1.00  0.00    -0.271 OA
HETATM   15  H   UNL     1       6.832  30.398  60.242  1.00  0.00     0.169 HD
BRANCH  13  16
HETATM   16  C   UNL     1       8.543  30.258  58.408  1.00  0.00     0.335 C 
BRANCH  16  17
HETATM   17  N   UNL     1       7.629  29.090  58.717  1.00  0.00    -0.063 N 
HETATM   18  H   UNL     1       7.881  28.679  59.624  1.00  0.00     0.278 HD
HETATM   19  H   UNL     1       6.689  29.499  58.829  1.00  0.00     0.278 HD
BRANCH  17  20
HETATM   20  C   UNL     1       7.484  28.001  57.683  1.00  0.00     0.178 C 
HETATM   21  C   UNL     1       6.073  27.990  57.110  1.00  0.00     0.039 C 
HETATM   22  C   UNL     1       8.514  28.281  56.591  1.00  0.00     0.039 C 
ENDBRANCH  17  20
ENDBRANCH  16  17
ENDBRANCH  13  16
ENDBRANCH   5  12
BRANCH   1  23
HETATM   23  C   UNL     1       7.613  33.375  64.613  1.00  0.00     0.055 C 
HETATM   24  C   UNL     1       6.609  33.822  65.666  1.00  0.00     0.011 C 
ENDBRANCH   1  23
TORSDOF 5
ENDMDL
MODEL 8
REMARK VINA RESULT:      -7.1      2.433      6.658
REMARK  5 active torsions:
REMARK  status: ('A' for Active; 'I' for Inactive)
REMARK    1  A    between atoms: C_2  and  C_3 
REMARK    2  A    between atoms: C_7  and  N_8 
REMARK       I    between atoms: N_8  and  C_9 
REMARK    3  A    between atoms: C_9  and  C_10 
REMARK    4  A    between atoms: C_10  and  N_11 
REMARK    5  A    between atoms: N_11  and  C_14 
ROOT
HETATM    1  C   UNL     1       5.738  26.783  51.939  1.00  0.00     0.043 C 
HETATM    2  N   UNL     1       6.507  25.685  51.772  1.00  0.00    -0.252 NA
HETATM    3  C   UNL     1       6.996  25.040  52.834  1.00  0.00     0.069 A 
HETATM    4  C   UNL     1       6.806  25.486  54.156  1.00  0.00     0.020 A 
HETATM    5  C   UNL     1       6.119  26.727  54.318  1.00  0.00     0.055 C 
HETATM    6  C   UNL     1       5.492  27.338  53.200  1.00  0.00    -0.010 C 
HETATM    7  C   UNL     1       4.642  28.574  53.350  1.00  0.00     0.052 C 
HETATM    8  C   UNL     1       7.694  23.864  52.591  1.00  0.00     0.032 A 
HETATM    9  C   UNL     1       8.183  23.067  53.623  1.00  0.00     0.002 A 
HETATM   10  C   UNL     1       7.946  23.440  54.934  1.00  0.00     0.001 A 
HETATM   11  C   UNL     1       7.256  24.625  55.196  1.00  0.00     0.016 A 
ENDROOT
BRANCH   5  12
HETATM   12  N   UNL     1       6.020  27.418  55.570  1.00  0.00    -0.324 N 
HETATM   13  C   UNL     1       6.934  28.332  56.069  1.00  0.00     0.248 C 
HETATM   14  O   UNL     1       8.015  28.652  55.583  1.00  0.00    -0.271 OA
HETATM   15  H   UNL     1       5.080  27.488  55.939  1.00  0.00     0.169 HD
BRANCH  13  16
HETATM   16  C   UNL     1       6.483  29.002  57.372  1.00  0.00     0.335 C 
BRANCH  16  17
HETATM   17  N   UNL     1       7.486  28.847  58.497  1.00  0.00    -0.063 N 
HETATM   18  H   UNL     1       7.070  28.306  59.264  1.00  0.00     0.278 HD
HETATM   19  H   UNL     1       8.248  28.272  58.108  1.00  0.00     0.278 HD
BRANCH  17  20
HETATM   20  C   UNL     1       8.144  30.090  59.044  1.00  0.00     0.178 C 
HETATM   21  C   UNL     1       9.452  30.367  58.316  1.00  0.00     0.039 C 
HETATM   22  C   UNL     1       7.158  31.240  58.853  1.00  0.00     0.039 C 
ENDBRANCH  17  20
ENDBRANCH  16  17
ENDBRANCH  13  16
ENDBRANCH   5  12
BRANCH   1  23
HETATM   23  C   UNL     1       5.216  27.361  50.645  1.00  0.00     0.055 C 
HETATM   24  C   UNL     1       4.679  26.290  49.707  1.00  0.00     0.011 C 
ENDBRANCH   1  23
TORSDOF 5
ENDMDL
MODEL 9
REMARK VINA RESULT:      -7.0      2.899      5.838
REMARK  5 active torsions:
REMARK  status: ('A' for Active; 'I' for Inactive)
REMARK    1  A    between atoms: C_2  and  C_3 
REMARK    2  A    between atoms: C_7  and  N_8 
REMARK       I    between atoms: N_8  and  C_9 
REMARK    3  A    between atoms: C_9  and  C_10 
REMARK    4  A    between atoms: C_10  and  N_11 
REMARK    5  A    between atoms: N_11  and  C_14 
ROOT
HETATM    1  C   UNL     1       5.411  26.574  51.656  1.00  0.00     0.043 C 
HETATM    2  N   UNL     1       6.324  25.585  51.545  1.00  0.00    -0.252 NA
HETATM    3  C   UNL     1       6.735  24.926  52.632  1.00  0.00     0.069 A 
HETATM    4  C   UNL     1       6.312  25.254  53.934  1.00  0.00     0.020 A 
HETATM    5  C   UNL     1       5.462  26.395  54.059  1.00  0.00     0.055 C 
HETATM    6  C   UNL     1       4.926  27.008  52.895  1.00  0.00    -0.010 C 
HETATM    7  C   UNL     1       3.919  28.126  52.985  1.00  0.00     0.052 C 
HETATM    8  C   UNL     1       7.600  23.858  52.431  1.00  0.00     0.032 A 
HETATM    9  C   UNL     1       8.034  23.051  53.480  1.00  0.00     0.002 A 
HETATM   10  C   UNL     1       7.574  23.302  54.760  1.00  0.00     0.001 A 
HETATM   11  C   UNL     1       6.715  24.380  54.981  1.00  0.00     0.016 A 
ENDROOT
BRANCH   5  12
HETATM   12  N   UNL     1       5.106  26.982  55.318  1.00  0.00    -0.324 N 
HETATM   13  C   UNL     1       5.881  27.865  56.052  1.00  0.00     0.248 C 
HETATM   14  O   UNL     1       7.024  28.240  55.808  1.00  0.00    -0.271 OA
HETATM   15  H   UNL     1       4.111  27.008  55.504  1.00  0.00     0.169 HD
BRANCH  13  16
HETATM   16  C   UNL     1       5.171  28.421  57.291  1.00  0.00     0.335 C 
BRANCH  16  17
HETATM   17  N   UNL     1       4.060  29.393  56.951  1.00  0.00    -0.063 N 
HETATM   18  H   UNL     1       3.222  28.877  56.658  1.00  0.00     0.278 HD
HETATM   19  H   UNL     1       3.824  29.861  57.839  1.00  0.00     0.278 HD
BRANCH  17  20
HETATM   20  C   UNL     1       4.353  30.498  55.966  1.00  0.00     0.178 C 
HETATM   21  C   UNL     1       3.058  31.109  55.447  1.00  0.00     0.039 C 
HETATM   22  C   UNL     1       5.193  31.541  56.700  1.00  0.00     0.039 C 
ENDBRANCH  17  20
ENDBRANCH  16  17
ENDBRANCH  13  16
ENDBRANCH   5  12
BRANCH   1  23
HETATM   23  C   UNL     1       5.006  27.178  50.332  1.00  0.00     0.055 C 
HETATM   24  C   UNL     1       4.391  26.152  49.391  1.00  0.00     0.011 C 
ENDBRANCH   1  23
TORSDOF 5
ENDMDL
MODEL 10
REMARK VINA RESULT:      -7.0     11.580     13.991
REMARK  5 active torsions:
REMARK  status: ('A' for Active; 'I' for Inactive)
REMARK    1  A    between atoms: C_2  and  C_3 
REMARK    2  A    between atoms: C_7  and  N_8 
REMARK       I    between atoms: N_8  and  C_9 
REMARK    3  A    between atoms: C_9  and  C_10 
REMARK    4  A    between atoms: C_10  and  N_11 
REMARK    5  A    between atoms: N_11  and  C_14 
ROOT
HETATM    1  C   UNL     1       7.109  32.839  63.384  1.00  0.00     0.043 C 
HETATM    2  N   UNL     1       7.479  33.316  64.593  1.00  0.00    -0.252 NA
HETATM    3  C   UNL     1       6.553  33.710  65.471  1.00  0.00     0.069 A 
HETATM    4  C   UNL     1       5.176  33.721  65.180  1.00  0.00     0.020 A 
HETATM    5  C   UNL     1       4.803  33.358  63.850  1.00  0.00     0.055 C 
HETATM    6  C   UNL     1       5.774  32.817  62.966  1.00  0.00    -0.010 C 
HETATM    7  C   UNL     1       5.397  32.294  61.604  1.00  0.00     0.052 C 
HETATM    8  C   UNL     1       7.000  34.094  66.729  1.00  0.00     0.032 A 
HETATM    9  C   UNL     1       6.122  34.450  67.749  1.00  0.00     0.002 A 
HETATM   10  C   UNL     1       4.759  34.399  67.516  1.00  0.00     0.001 A 
HETATM   11  C   UNL     1       4.294  34.026  66.253  1.00  0.00     0.016 A 
ENDROOT
BRANCH   5  12
HETATM   12  N   UNL     1       3.474  33.509  63.332  1.00  0.00    -0.324 N 
HETATM   13  C   UNL     1       2.862  34.708  63.002  1.00  0.00     0.248 C 
HETATM   14  O   UNL     1       3.301  35.843  63.162  1.00  0.00    -0.271 OA
HETATM   15  H   UNL     1       3.102  32.684  62.879  1.00  0.00     0.169 HD
BRANCH  13  16
HETATM   16  C   UNL     1       1.487  34.534  62.347  1.00  0.00     0.335 C 
BRANCH  16  17
HETATM   17  N   UNL     1       1.571  34.053  60.913  1.00  0.00    -0.063 N 
HETATM   18  H   UNL     1       1.928  33.091  60.886  1.00  0.00     0.278 HD
HETATM   19  H   UNL     1       0.595  34.016  60.579  1.00  0.00     0.278 HD
BRANCH  17  20
HETATM   20  C   UNL     1       2.316  34.905  59.915  1.00  0.00     0.178 C 
HETATM   21  C   UNL     1       3.228  34.044  59.052  1.00  0.00     0.039 C 
HETATM   22  C   UNL     1       1.269  35.617  59.062  1.00  0.00     0.039 C 
ENDBRANCH  17  20
ENDBRANCH  16  17
ENDBRANCH  13  16
ENDBRANCH   5  12
BRANCH   1  23
HETATM   23  C   UNL     1       8.269  32.380  62.532  1.00  0.00     0.055 C 
HETATM   24  C   UNL     1       8.470  30.873  62.591  1.00  0.00     0.011 C 
ENDBRANCH   1  23
TORSDOF 5
ENDMDL
