MODEL 1
REMARK VINA RESULT:      -8.0      0.000      0.000
REMARK  6 active torsions:
REMARK  status: ('A' for Active; 'I' for Inactive)
REMARK    1  A    between atoms: C_2  and  C_3 
REMARK    2  A    between atoms: C_3  and  N_4 
REMARK    3  A    between atoms: C_3  and  C_15 
REMARK       I    between atoms: N_4  and  C_5 
REMARK    4  A    between atoms: C_5  and  C_6 
REMARK    5  A    between atoms: C_6  and  C_7 
REMARK    6  A    between atoms: C_16  and  O_17 
ROOT
HETATM    1  C   UNL     1       7.754  27.921  57.137  1.00  0.00     0.128 C 
ENDROOT
BRANCH   1   2
HETATM    2  C   UNL     1       6.814  28.157  55.894  1.00  0.00    -0.026 C 
HETATM    3  C   UNL     1       5.365  27.768  56.272  1.00  0.00     0.016 C 
HETATM    4  C   UNL     1       7.223  27.332  54.659  1.00  0.00     0.016 C 
HETATM    5  C   UNL     1       6.796  29.647  55.493  1.00  0.00     0.016 C 
ENDBRANCH   1   2
BRANCH   1   6
HETATM    6  N   UNL     1       8.457  26.633  57.036  1.00  0.00    -0.351 N 
HETATM    7  C   UNL     1       7.893  25.445  57.444  1.00  0.00     0.222 C 
HETATM    8  O   UNL     1       6.732  25.330  57.824  1.00  0.00    -0.273 OA
HETATM    9  H   UNL     1       9.427  26.647  56.763  1.00  0.00     0.163 HD
BRANCH   7  10
HETATM   10  C   UNL     1       8.823  24.246  57.352  1.00  0.00     0.142 C 
BRANCH  10  11
HETATM   11  C   UNL     1       8.521  23.313  56.207  1.00  0.00    -0.032 A 
HETATM   12  C   UNL     1       8.506  21.928  56.365  1.00  0.00     0.126 A 
HETATM   13  N   UNL     1       8.293  21.050  55.356  1.00  0.00    -0.248 NA
HETATM   14  C   UNL     1       8.105  21.576  54.132  1.00  0.00     0.125 A 
HETATM   15 CL   UNL     1       7.856  20.425  52.885  1.00  0.00    -0.063 Cl
HETATM   16  C   UNL     1       8.115  22.931  53.855  1.00  0.00     0.045 A 
HETATM   17  C   UNL     1       8.331  23.811  54.912  1.00  0.00     0.012 A 
ENDBRANCH  10  11
ENDBRANCH   7  10
ENDBRANCH   1   6
BRANCH   1  18
HETATM   18  C   UNL     1       8.755  29.047  57.420  1.00  0.00    -0.001 A 
HETATM   19  C   UNL     1       8.406  30.137  58.251  1.00  0.00     0.076 A 
HETATM   20  C   UNL     1       9.339  31.151  58.504  1.00  0.00     0.037 A 
HETATM   21  C   UNL     1      10.611  31.106  57.932  1.00  0.00     0.003 A 
HETATM   22  C   UNL     1      10.963  30.048  57.103  1.00  0.00     0.001 A 
HETATM   23  C   UNL     1      10.045  29.029  56.851  1.00  0.00     0.012 A 
BRANCH  19  24
HETATM   24  O   UNL     1       7.137  30.122  58.767  1.00  0.00    -0.355 OA
HETATM   25  C   UNL     1       6.388  31.328  58.720  1.00  0.00     0.210 C 
ENDBRANCH  19  24
ENDBRANCH   1  18
TORSDOF 6
ENDMDL
MODEL 2
REMARK VINA RESULT:      -7.9      3.772      7.527
REMARK  6 active torsions:
REMARK  status: ('A' for Active; 'I' for Inactive)
REMARK    1  A    between atoms: C_2  and  C_3 
REMARK    2  A    between atoms: C_3  and  N_4 
REMARK    3  A    between atoms: C_3  and  C_15 
REMARK       I    between atoms: N_4  and  C_5 
REMARK    4  A    between atoms: C_5  and  C_6 
REMARK    5  A    between atoms: C_6  and  C_7 
REMARK    6  A    between atoms: C_16  and  O_17 
ROOT
HETATM    1  C   UNL     1       7.327  26.757  55.819  1.00  0.00     0.128 C 
ENDROOT
BRANCH   1   2
HETATM    2  C   UNL     1       5.841  27.068  56.240  1.00  0.00    -0.026 C 
HETATM    3  C   UNL     1       5.034  27.481  54.986  1.00  0.00     0.016 C 
HETATM    4  C   UNL     1       5.728  28.203  57.275  1.00  0.00     0.016 C 
HETATM    5  C   UNL     1       5.160  25.813  56.826  1.00  0.00     0.016 C 
ENDBRANCH   1   2
BRANCH   1   6
HETATM    6  N   UNL     1       8.283  27.501  56.653  1.00  0.00    -0.351 N 
HETATM    7  C   UNL     1       8.924  28.638  56.214  1.00  0.00     0.222 C 
HETATM    8  O   UNL     1       8.685  29.192  55.145  1.00  0.00    -0.273 OA
HETATM    9  H   UNL     1       8.558  27.093  57.533  1.00  0.00     0.163 HD
BRANCH   7  10
HETATM   10  C   UNL     1       9.949  29.196  57.187  1.00  0.00     0.142 C 
BRANCH  10  11
HETATM   11  C   UNL     1       9.395  30.203  58.163  1.00  0.00    -0.032 A 
HETATM   12  C   UNL     1       9.995  31.446  58.365  1.00  0.00     0.126 A 
HETATM   13  N   UNL     1       9.565  32.359  59.268  1.00  0.00    -0.248 NA
HETATM   14  C   UNL     1       8.501  32.011  60.015  1.00  0.00     0.125 A 
HETATM   15 CL   UNL     1       8.004  33.192  61.154  1.00  0.00    -0.063 Cl
HETATM   16  C   UNL     1       7.838  30.801  59.913  1.00  0.00     0.045 A 
HETATM   17  C   UNL     1       8.298  29.882  58.972  1.00  0.00     0.012 A 
ENDBRANCH  10  11
ENDBRANCH   7  10
ENDBRANCH   1   6
BRANCH   1  18
HETATM   18  C   UNL     1       7.699  25.270  55.792  1.00  0.00    -0.001 A 
HETATM   19  C   UNL     1       7.600  24.519  54.597  1.00  0.00     0.076 A 
HETATM   20  C   UNL     1       7.953  23.164  54.592  1.00  0.00     0.037 A 
HETATM   21  C   UNL     1       8.391  22.538  55.759  1.00  0.00     0.003 A 
HETATM   22  C   UNL     1       8.481  23.259  56.943  1.00  0.00     0.001 A 
HETATM   23  C   UNL     1       8.139  24.612  56.958  1.00  0.00     0.012 A 
BRANCH  19  24
HETATM   24  O   UNL     1       7.151  25.195  53.493  1.00  0.00    -0.355 OA
HETATM   25  C   UNL     1       7.934  25.126  52.310  1.00  0.00     0.210 C 
ENDBRANCH  19  24
ENDBRANCH   1  18
TORSDOF 6
ENDMDL
MODEL 3
REMARK VINA RESULT:      -7.8      1.097      1.861
REMARK  6 active torsions:
REMARK  status: ('A' for Active; 'I' for Inactive)
REMARK    1  A    between atoms: C_2  and  C_3 
REMARK    2  A    between atoms: C_3  and  N_4 
REMARK    3  A    between atoms: C_3  and  C_15 
REMARK       I    between atoms: N_4  and  C_5 
REMARK    4  A    between atoms: C_5  and  C_6 
REMARK    5  A    between atoms: C_6  and  C_7 
REMARK    6  A    between atoms: C_16  and  O_17 
ROOT
HETATM    1  C   UNL     1       7.224  28.342  57.597  1.00  0.00     0.128 C 
ENDROOT
BRANCH   1   2
HETATM    2  C   UNL     1       6.323  28.684  56.351  1.00  0.00    -0.026 C 
HETATM    3  C   UNL     1       4.896  28.135  56.590  1.00  0.00     0.016 C 
HETATM    4  C   UNL     1       6.851  28.082  55.035  1.00  0.00     0.016 C 
HETATM    5  C   UNL     1       6.196  30.212  56.165  1.00  0.00     0.016 C 
ENDBRANCH   1   2
BRANCH   1   6
HETATM    6  N   UNL     1       8.106  27.199  57.318  1.00  0.00    -0.351 N 
HETATM    7  C   UNL     1       7.703  25.892  57.479  1.00  0.00     0.222 C 
HETATM    8  O   UNL     1       6.557  25.557  57.763  1.00  0.00    -0.273 OA
HETATM    9  H   UNL     1       9.074  27.391  57.111  1.00  0.00     0.163 HD
BRANCH   7  10
HETATM   10  C   UNL     1       8.797  24.865  57.238  1.00  0.00     0.142 C 
BRANCH  10  11
HETATM   11  C   UNL     1       8.461  23.836  56.188  1.00  0.00    -0.032 A 
HETATM   12  C   UNL     1       8.527  22.467  56.444  1.00  0.00     0.126 A 
HETATM   13  N   UNL     1       8.287  21.509  55.519  1.00  0.00    -0.248 NA
HETATM   14  C   UNL     1       7.986  21.933  54.278  1.00  0.00     0.125 A 
HETATM   15 CL   UNL     1       7.707  20.683  53.138  1.00  0.00    -0.063 Cl
HETATM   16  C   UNL     1       7.909  23.262  53.905  1.00  0.00     0.045 A 
HETATM   17  C   UNL     1       8.155  24.228  54.879  1.00  0.00     0.012 A 
ENDBRANCH  10  11
ENDBRANCH   7  10
ENDBRANCH   1   6
BRANCH   1  18
HETATM   18  C   UNL     1       8.041  29.515  58.152  1.00  0.00    -0.001 A 
HETATM   19  C   UNL     1       9.329  29.805  57.646  1.00  0.00     0.076 A 
HETATM   20  C   UNL     1      10.055  30.887  58.161  1.00  0.00     0.037 A 
HETATM   21  C   UNL     1       9.527  31.677  59.182  1.00  0.00     0.003 A 
HETATM   22  C   UNL     1       8.268  31.396  59.697  1.00  0.00     0.001 A 
HETATM   23  C   UNL     1       7.532  30.326  59.187  1.00  0.00     0.012 A 
BRANCH  19  24
HETATM   24  O   UNL     1       9.790  28.980  56.654  1.00  0.00    -0.355 OA
HETATM   25  C   UNL     1      10.141  29.570  55.410  1.00  0.00     0.210 C 
ENDBRANCH  19  24
ENDBRANCH   1  18
TORSDOF 6
ENDMDL
MODEL 4
REMARK VINA RESULT:      -7.7      5.045      6.681
REMARK  6 active torsions:
REMARK  status: ('A' for Active; 'I' for Inactive)
REMARK    1  A    between atoms: C_2  and  C_3 
REMARK    2  A    between atoms: C_3  and  N_4 
REMARK    3  A    between atoms: C_3  and  C_15 
REMARK       I    between atoms: N_4  and  C_5 
REMARK    4  A    between atoms: C_5  and  C_6 
REMARK    5  A    between atoms: C_6  and  C_7 
REMARK    6  A    between atoms: C_16  and  O_17 
ROOT
HETATM    1  C   UNL     1       4.621  27.151  50.194  1.00  0.00     0.128 C 
ENDROOT
BRANCH   1   2
HETATM    2  C   UNL     1       4.027  26.699  48.807  1.00  0.00    -0.026 C 
HETATM    3  C   UNL     1       2.802  27.581  48.466  1.00  0.00     0.016 C 
HETATM    4  C   UNL     1       3.574  25.227  48.791  1.00  0.00     0.016 C 
HETATM    5  C   UNL     1       5.058  26.897  47.675  1.00  0.00     0.016 C 
ENDBRANCH   1   2
BRANCH   1   6
HETATM    6  N   UNL     1       5.875  26.445  50.492  1.00  0.00    -0.351 N 
HETATM    7  C   UNL     1       6.020  25.613  51.580  1.00  0.00     0.222 C 
HETATM    8  O   UNL     1       5.102  25.301  52.332  1.00  0.00    -0.273 OA
HETATM    9  H   UNL     1       6.687  26.673  49.939  1.00  0.00     0.163 HD
BRANCH   7  10
HETATM   10  C   UNL     1       7.424  25.064  51.767  1.00  0.00     0.142 C 
BRANCH  10  11
HETATM   11  C   UNL     1       7.594  24.198  52.990  1.00  0.00    -0.032 A 
HETATM   12  C   UNL     1       7.821  24.739  54.255  1.00  0.00     0.126 A 
HETATM   13  N   UNL     1       8.032  24.001  55.370  1.00  0.00    -0.248 NA
HETATM   14  C   UNL     1       8.035  22.664  55.215  1.00  0.00     0.125 A 
HETATM   15 CL   UNL     1       8.322  21.774  56.652  1.00  0.00    -0.063 Cl
HETATM   16  C   UNL     1       7.838  22.019  54.008  1.00  0.00     0.045 A 
HETATM   17  C   UNL     1       7.617  22.802  52.877  1.00  0.00     0.012 A 
ENDBRANCH  10  11
ENDBRANCH   7  10
ENDBRANCH   1   6
BRANCH   1  18
HETATM   18  C   UNL     1       4.816  28.663  50.357  1.00  0.00    -0.001 A 
HETATM   19  C   UNL     1       4.124  29.381  51.361  1.00  0.00     0.076 A 
HETATM   20  C   UNL     1       4.324  30.760  51.498  1.00  0.00     0.037 A 
HETATM   21  C   UNL     1       5.191  31.442  50.645  1.00  0.00     0.003 A 
HETATM   22  C   UNL     1       5.868  30.753  49.647  1.00  0.00     0.001 A 
HETATM   23  C   UNL     1       5.684  29.378  49.506  1.00  0.00     0.012 A 
BRANCH  19  24
HETATM   24  O   UNL     1       3.279  28.649  52.153  1.00  0.00    -0.355 OA
HETATM   25  C   UNL     1       3.688  28.379  53.486  1.00  0.00     0.210 C 
ENDBRANCH  19  24
ENDBRANCH   1  18
TORSDOF 6
ENDMDL
MODEL 5
REMARK VINA RESULT:      -7.3      1.726      2.889
REMARK  6 active torsions:
REMARK  status: ('A' for Active; 'I' for Inactive)
REMARK    1  A    between atoms: C_2  and  C_3 
REMARK    2  A    between atoms: C_3  and  N_4 
REMARK    3  A    between atoms: C_3  and  C_15 
REMARK       I    between atoms: N_4  and  C_5 
REMARK    4  A    between atoms: C_5  and  C_6 
REMARK    5  A    between atoms: C_6  and  C_7 
REMARK    6  A    between atoms: C_16  and  O_17 
ROOT
HETATM    1  C   UNL     1       5.359  27.716  55.538  1.00  0.00     0.128 C 
ENDROOT
BRANCH   1   2
HETATM    2  C   UNL     1       5.297  28.076  54.006  1.00  0.00    -0.026 C 
HETATM    3  C   UNL     1       4.337  27.096  53.292  1.00  0.00     0.016 C 
HETATM    4  C   UNL     1       6.668  27.995  53.307  1.00  0.00     0.016 C 
HETATM    5  C   UNL     1       4.734  29.498  53.796  1.00  0.00     0.016 C 
ENDBRANCH   1   2
BRANCH   1   6
HETATM    6  N   UNL     1       6.358  26.670  55.800  1.00  0.00    -0.351 N 
HETATM    7  C   UNL     1       6.058  25.508  56.474  1.00  0.00     0.222 C 
HETATM    8  O   UNL     1       4.926  25.189  56.824  1.00  0.00    -0.273 OA
HETATM    9  H   UNL     1       7.320  26.870  55.572  1.00  0.00     0.163 HD
BRANCH   7  10
HETATM   10  C   UNL     1       7.254  24.605  56.731  1.00  0.00     0.142 C 
BRANCH  10  11
HETATM   11  C   UNL     1       7.470  23.547  55.679  1.00  0.00    -0.032 A 
HETATM   12  C   UNL     1       7.875  22.253  56.002  1.00  0.00     0.126 A 
HETATM   13  N   UNL     1       8.132  21.287  55.089  1.00  0.00    -0.248 NA
HETATM   14  C   UNL     1       7.998  21.631  53.796  1.00  0.00     0.125 A 
HETATM   15 CL   UNL     1       8.351  20.380  52.678  1.00  0.00    -0.063 Cl
HETATM   16  C   UNL     1       7.619  22.887  53.358  1.00  0.00     0.045 A 
HETATM   17  C   UNL     1       7.354  23.861  54.319  1.00  0.00     0.012 A 
ENDBRANCH  10  11
ENDBRANCH   7  10
ENDBRANCH   1   6
BRANCH   1  18
HETATM   18  C   UNL     1       5.584  28.906  56.479  1.00  0.00    -0.001 A 
HETATM   19  C   UNL     1       6.892  29.324  56.819  1.00  0.00     0.076 A 
HETATM   20  C   UNL     1       7.076  30.420  57.673  1.00  0.00     0.037 A 
HETATM   21  C   UNL     1       5.980  31.098  58.205  1.00  0.00     0.003 A 
HETATM   22  C   UNL     1       4.690  30.691  57.890  1.00  0.00     0.001 A 
HETATM   23  C   UNL     1       4.495  29.607  57.035  1.00  0.00     0.012 A 
BRANCH  19  24
HETATM   24  O   UNL     1       7.920  28.604  56.270  1.00  0.00    -0.355 OA
HETATM   25  C   UNL     1       9.082  29.312  55.863  1.00  0.00     0.210 C 
ENDBRANCH  19  24
ENDBRANCH   1  18
TORSDOF 6
ENDMDL
MODEL 6
REMARK VINA RESULT:      -7.3      3.706      7.289
REMARK  6 active torsions:
REMARK  status: ('A' for Active; 'I' for Inactive)
REMARK    1  A    between atoms: C_2  and  C_3 
REMARK    2  A    between atoms: C_3  and  N_4 
REMARK    3  A    between atoms: C_3  and  C_15 
REMARK       I    between atoms: N_4  and  C_5 
REMARK    4  A    between atoms: C_5  and  C_6 
REMARK    5  A    between atoms: C_6  and  C_7 
REMARK    6  A    between atoms: C_16  and  O_17 
ROOT
HETATM    1  C   UNL     1       7.167  26.866  54.292  1.00  0.00     0.128 C 
ENDROOT
BRANCH   1   2
HETATM    2  C   UNL     1       5.757  27.371  53.804  1.00  0.00    -0.026 C 
HETATM    3  C   UNL     1       4.936  26.164  53.290  1.00  0.00     0.016 C 
HETATM    4  C   UNL     1       5.843  28.409  52.669  1.00  0.00     0.016 C 
HETATM    5  C   UNL     1       4.962  27.998  54.970  1.00  0.00     0.016 C 
ENDBRANCH   1   2
BRANCH   1   6
HETATM    6  N   UNL     1       7.499  27.412  55.617  1.00  0.00    -0.351 N 
HETATM    7  C   UNL     1       8.397  28.440  55.794  1.00  0.00     0.222 C 
HETATM    8  O   UNL     1       8.918  29.062  54.873  1.00  0.00    -0.273 OA
HETATM    9  H   UNL     1       7.136  26.933  56.427  1.00  0.00     0.163 HD
BRANCH   7  10
HETATM   10  C   UNL     1       8.678  28.785  57.247  1.00  0.00     0.142 C 
BRANCH  10  11
HETATM   11  C   UNL     1       7.849  29.924  57.785  1.00  0.00    -0.032 A 
HETATM   12  C   UNL     1       8.403  30.940  58.564  1.00  0.00     0.126 A 
HETATM   13  N   UNL     1       7.690  31.951  59.113  1.00  0.00    -0.248 NA
HETATM   14  C   UNL     1       6.363  31.941  58.890  1.00  0.00     0.125 A 
HETATM   15 CL   UNL     1       5.502  33.232  59.618  1.00  0.00    -0.063 Cl
HETATM   16  C   UNL     1       5.704  30.978  58.149  1.00  0.00     0.045 A 
HETATM   17  C   UNL     1       6.463  29.951  57.591  1.00  0.00     0.012 A 
ENDBRANCH  10  11
ENDBRANCH   7  10
ENDBRANCH   1   6
BRANCH   1  18
HETATM   18  C   UNL     1       7.352  25.344  54.289  1.00  0.00    -0.001 A 
HETATM   19  C   UNL     1       7.069  24.576  55.442  1.00  0.00     0.076 A 
HETATM   20  C   UNL     1       7.236  23.185  55.415  1.00  0.00     0.037 A 
HETATM   21  C   UNL     1       7.692  22.546  54.262  1.00  0.00     0.003 A 
HETATM   22  C   UNL     1       7.986  23.289  53.126  1.00  0.00     0.001 A 
HETATM   23  C   UNL     1       7.816  24.673  53.139  1.00  0.00     0.012 A 
BRANCH  19  24
HETATM   24  O   UNL     1       6.637  25.271  56.541  1.00  0.00    -0.355 OA
HETATM   25  C   UNL     1       5.321  25.016  57.012  1.00  0.00     0.210 C 
ENDBRANCH  19  24
ENDBRANCH   1  18
TORSDOF 6
ENDMDL
MODEL 7
REMARK VINA RESULT:      -7.2      4.605      7.022
REMARK  6 active torsions:
REMARK  status: ('A' for Active; 'I' for Inactive)
REMARK    1  A    between atoms: C_2  and  C_3 
REMARK    2  A    between atoms: C_3  and  N_4 
REMARK    3  A    between atoms: C_3  and  C_15 
REMARK       I    between atoms: N_4  and  C_5 
REMARK    4  A    between atoms: C_5  and  C_6 
REMARK    5  A    between atoms: C_6  and  C_7 
REMARK    6  A    between atoms: C_16  and  O_17 
ROOT
HETATM    1  C   UNL     1       6.482  27.635  54.605  1.00  0.00     0.128 C 
ENDROOT
BRANCH   1   2
HETATM    2  C   UNL     1       7.587  28.368  55.455  1.00  0.00    -0.026 C 
HETATM    3  C   UNL     1       6.963  29.609  56.138  1.00  0.00     0.016 C 
HETATM    4  C   UNL     1       8.788  28.839  54.613  1.00  0.00     0.016 C 
HETATM    5  C   UNL     1       8.118  27.451  56.578  1.00  0.00     0.016 C 
ENDBRANCH   1   2
BRANCH   1   6
HETATM    6  N   UNL     1       6.074  28.447  53.449  1.00  0.00    -0.351 N 
HETATM    7  C   UNL     1       4.773  28.500  53.000  1.00  0.00     0.222 C 
HETATM    8  O   UNL     1       3.827  27.970  53.574  1.00  0.00    -0.273 OA
HETATM    9  H   UNL     1       6.799  28.887  52.904  1.00  0.00     0.163 HD
BRANCH   7  10
HETATM   10  C   UNL     1       4.581  29.313  51.731  1.00  0.00     0.142 C 
BRANCH  10  11
HETATM   11  C   UNL     1       4.201  28.495  50.522  1.00  0.00    -0.032 A 
HETATM   12  C   UNL     1       3.091  28.804  49.737  1.00  0.00     0.126 A 
HETATM   13  N   UNL     1       2.681  28.069  48.677  1.00  0.00    -0.248 NA
HETATM   14  C   UNL     1       3.399  26.967  48.396  1.00  0.00     0.125 A 
HETATM   15 CL   UNL     1       2.832  26.060  47.056  1.00  0.00    -0.063 Cl
HETATM   16  C   UNL     1       4.507  26.554  49.114  1.00  0.00     0.045 A 
HETATM   17  C   UNL     1       4.910  27.332  50.197  1.00  0.00     0.012 A 
ENDBRANCH  10  11
ENDBRANCH   7  10
ENDBRANCH   1   6
BRANCH   1  18
HETATM   18  C   UNL     1       6.844  26.216  54.151  1.00  0.00    -0.001 A 
HETATM   19  C   UNL     1       6.267  25.085  54.774  1.00  0.00     0.076 A 
HETATM   20  C   UNL     1       6.605  23.797  54.337  1.00  0.00     0.037 A 
HETATM   21  C   UNL     1       7.519  23.615  53.299  1.00  0.00     0.003 A 
HETATM   22  C   UNL     1       8.103  24.716  52.687  1.00  0.00     0.001 A 
HETATM   23  C   UNL     1       7.769  26.003  53.107  1.00  0.00     0.012 A 
BRANCH  19  24
HETATM   24  O   UNL     1       5.389  25.339  55.794  1.00  0.00    -0.355 OA
HETATM   25  C   UNL     1       5.784  24.983  57.112  1.00  0.00     0.210 C 
ENDBRANCH  19  24
ENDBRANCH   1  18
TORSDOF 6
ENDMDL
MODEL 8
REMARK VINA RESULT:      -7.2      3.620      7.389
REMARK  6 active torsions:
REMARK  status: ('A' for Active; 'I' for Inactive)
REMARK    1  A    between atoms: C_2  and  C_3 
REMARK    2  A    between atoms: C_3  and  N_4 
REMARK    3  A    between atoms: C_3  and  C_15 
REMARK       I    between atoms: N_4  and  C_5 
REMARK    4  A    between atoms: C_5  and  C_6 
REMARK    5  A    between atoms: C_6  and  C_7 
REMARK    6  A    between atoms: C_16  and  O_17 
ROOT
HETATM    1  C   UNL     1       7.032  26.860  54.837  1.00  0.00     0.128 C 
ENDROOT
BRANCH   1   2
HETATM    2  C   UNL     1       5.577  26.868  55.441  1.00  0.00    -0.026 C 
HETATM    3  C   UNL     1       4.858  25.553  55.052  1.00  0.00     0.016 C 
HETATM    4  C   UNL     1       4.719  28.046  54.941  1.00  0.00     0.016 C 
HETATM    5  C   UNL     1       5.619  26.924  56.983  1.00  0.00     0.016 C 
ENDBRANCH   1   2
BRANCH   1   6
HETATM    6  N   UNL     1       8.026  27.270  55.840  1.00  0.00    -0.351 N 
HETATM    7  C   UNL     1       8.407  28.581  56.017  1.00  0.00     0.222 C 
HETATM    8  O   UNL     1       7.886  29.531  55.441  1.00  0.00    -0.273 OA
HETATM    9  H   UNL     1       8.524  26.544  56.333  1.00  0.00     0.163 HD
BRANCH   7  10
HETATM   10  C   UNL     1       9.522  28.779  57.031  1.00  0.00     0.142 C 
BRANCH  10  11
HETATM   11  C   UNL     1       9.228  29.822  58.080  1.00  0.00    -0.032 A 
HETATM   12  C   UNL     1       8.075  29.780  58.863  1.00  0.00     0.126 A 
HETATM   13  N   UNL     1       7.745  30.722  59.778  1.00  0.00    -0.248 NA
HETATM   14  C   UNL     1       8.591  31.760  59.906  1.00  0.00     0.125 A 
HETATM   15 CL   UNL     1       8.121  32.933  61.064  1.00  0.00    -0.063 Cl
HETATM   16  C   UNL     1       9.753  31.914  59.172  1.00  0.00     0.045 A 
HETATM   17  C   UNL     1      10.072  30.927  58.241  1.00  0.00     0.012 A 
ENDBRANCH  10  11
ENDBRANCH   7  10
ENDBRANCH   1   6
BRANCH   1  18
HETATM   18  C   UNL     1       7.458  25.541  54.181  1.00  0.00    -0.001 A 
HETATM   19  C   UNL     1       7.901  24.451  54.966  1.00  0.00     0.076 A 
HETATM   20  C   UNL     1       8.278  23.252  54.347  1.00  0.00     0.037 A 
HETATM   21  C   UNL     1       8.234  23.123  52.959  1.00  0.00     0.003 A 
HETATM   22  C   UNL     1       7.813  24.190  52.175  1.00  0.00     0.001 A 
HETATM   23  C   UNL     1       7.428  25.386  52.780  1.00  0.00     0.012 A 
BRANCH  19  24
HETATM   24  O   UNL     1       7.931  24.653  56.320  1.00  0.00    -0.355 OA
HETATM   25  C   UNL     1       8.564  23.666  57.123  1.00  0.00     0.210 C 
ENDBRANCH  19  24
ENDBRANCH   1  18
TORSDOF 6
ENDMDL
MODEL 9
REMARK VINA RESULT:      -7.0      4.993      8.244
REMARK  6 active torsions:
REMARK  status: ('A' for Active; 'I' for Inactive)
REMARK    1  A    between atoms: C_2  and  C_3 
REMARK    2  A    between atoms: C_3  and  N_4 
REMARK    3  A    between atoms: C_3  and  C_15 
REMARK       I    between atoms: N_4  and  C_5 
REMARK    4  A    between atoms: C_5  and  C_6 
REMARK    5  A    between atoms: C_6  and  C_7 
REMARK    6  A    between atoms: C_16  and  O_17 
ROOT
HETATM    1  C   UNL     1       4.478  33.934  61.470  1.00  0.00     0.128 C 
ENDROOT
BRANCH   1   2
HETATM    2  C   UNL     1       4.227  35.487  61.558  1.00  0.00    -0.026 C 
HETATM    3  C   UNL     1       4.022  36.050  60.131  1.00  0.00     0.016 C 
HETATM    4  C   UNL     1       5.393  36.254  62.210  1.00  0.00     0.016 C 
HETATM    5  C   UNL     1       2.942  35.794  62.357  1.00  0.00     0.016 C 
ENDBRANCH   1   2
BRANCH   1   6
HETATM    6  N   UNL     1       4.493  33.475  60.074  1.00  0.00    -0.351 N 
HETATM    7  C   UNL     1       3.896  32.302  59.671  1.00  0.00     0.222 C 
HETATM    8  O   UNL     1       3.214  31.591  60.403  1.00  0.00    -0.273 OA
HETATM    9  H   UNL     1       5.060  33.987  59.416  1.00  0.00     0.163 HD
BRANCH   7  10
HETATM   10  C   UNL     1       4.115  31.957  58.207  1.00  0.00     0.142 C 
BRANCH  10  11
HETATM   11  C   UNL     1       5.178  30.914  57.967  1.00  0.00    -0.032 A 
HETATM   12  C   UNL     1       4.878  29.661  57.433  1.00  0.00     0.126 A 
HETATM   13  N   UNL     1       5.789  28.676  57.251  1.00  0.00    -0.248 NA
HETATM   14  C   UNL     1       7.050  28.945  57.634  1.00  0.00     0.125 A 
HETATM   15 CL   UNL     1       8.163  27.662  57.399  1.00  0.00    -0.063 Cl
HETATM   16  C   UNL     1       7.458  30.144  58.190  1.00  0.00     0.045 A 
HETATM   17  C   UNL     1       6.502  31.142  58.361  1.00  0.00     0.012 A 
ENDBRANCH  10  11
ENDBRANCH   7  10
ENDBRANCH   1   6
BRANCH   1  18
HETATM   18  C   UNL     1       5.729  33.434  62.202  1.00  0.00    -0.001 A 
HETATM   19  C   UNL     1       5.705  33.187  63.595  1.00  0.00     0.076 A 
HETATM   20  C   UNL     1       6.856  32.721  64.243  1.00  0.00     0.037 A 
HETATM   21  C   UNL     1       8.037  32.511  63.531  1.00  0.00     0.003 A 
HETATM   22  C   UNL     1       8.079  32.762  62.165  1.00  0.00     0.001 A 
HETATM   23  C   UNL     1       6.937  33.217  61.508  1.00  0.00     0.012 A 
BRANCH  19  24
HETATM   24  O   UNL     1       4.516  33.428  64.232  1.00  0.00    -0.355 OA
HETATM   25  C   UNL     1       4.563  33.837  65.592  1.00  0.00     0.210 C 
ENDBRANCH  19  24
ENDBRANCH   1  18
TORSDOF 6
ENDMDL
MODEL 10
REMARK VINA RESULT:      -6.9      3.703      5.138
REMARK  6 active torsions:
REMARK  status: ('A' for Active; 'I' for Inactive)
REMARK    1  A    between atoms: C_2  and  C_3 
REMARK    2  A    between atoms: C_3  and  N_4 
REMARK    3  A    between atoms: C_3  and  C_15 
REMARK       I    between atoms: N_4  and  C_5 
REMARK    4  A    between atoms: C_5  and  C_6 
REMARK    5  A    between atoms: C_6  and  C_7 
REMARK    6  A    between atoms: C_16  and  O_17 
ROOT
HETATM    1  C   UNL     1       7.455  26.937  55.820  1.00  0.00     0.128 C 
ENDROOT
BRANCH   1   2
HETATM    2  C   UNL     1       7.211  25.576  56.573  1.00  0.00    -0.026 C 
HETATM    3  C   UNL     1       7.736  24.411  55.700  1.00  0.00     0.016 C 
HETATM    4  C   UNL     1       5.724  25.309  56.880  1.00  0.00     0.016 C 
HETATM    5  C   UNL     1       7.991  25.534  57.904  1.00  0.00     0.016 C 
ENDBRANCH   1   2
BRANCH   1   6
HETATM    6  N   UNL     1       6.270  27.338  55.046  1.00  0.00    -0.351 N 
HETATM    7  C   UNL     1       6.355  28.067  53.881  1.00  0.00     0.222 C 
HETATM    8  O   UNL     1       7.411  28.358  53.328  1.00  0.00    -0.273 OA
HETATM    9  H   UNL     1       5.363  27.164  55.451  1.00  0.00     0.163 HD
BRANCH   7  10
HETATM   10  C   UNL     1       5.012  28.467  53.293  1.00  0.00     0.142 C 
BRANCH  10  11
HETATM   11  C   UNL     1       4.742  27.899  51.922  1.00  0.00    -0.032 A 
HETATM   12  C   UNL     1       5.153  26.618  51.556  1.00  0.00     0.126 A 
HETATM   13  N   UNL     1       4.980  26.088  50.323  1.00  0.00    -0.248 NA
HETATM   14  C   UNL     1       4.388  26.876  49.407  1.00  0.00     0.125 A 
HETATM   15 CL   UNL     1       4.206  26.167  47.856  1.00  0.00    -0.063 Cl
HETATM   16  C   UNL     1       3.955  28.167  49.652  1.00  0.00     0.045 A 
HETATM   17  C   UNL     1       4.140  28.685  50.932  1.00  0.00     0.012 A 
ENDBRANCH  10  11
ENDBRANCH   7  10
ENDBRANCH   1   6
BRANCH   1  18
HETATM   18  C   UNL     1       7.921  28.098  56.707  1.00  0.00    -0.001 A 
HETATM   19  C   UNL     1       7.000  28.818  57.503  1.00  0.00     0.076 A 
HETATM   20  C   UNL     1       7.449  29.869  58.313  1.00  0.00     0.037 A 
HETATM   21  C   UNL     1       8.797  30.226  58.334  1.00  0.00     0.003 A 
HETATM   22  C   UNL     1       9.710  29.537  57.547  1.00  0.00     0.001 A 
HETATM   23  C   UNL     1       9.277  28.483  56.743  1.00  0.00     0.012 A 
BRANCH  19  24
HETATM   24  O   UNL     1       5.691  28.421  57.423  1.00  0.00    -0.355 OA
HETATM   25  C   UNL     1       4.699  29.431  57.308  1.00  0.00     0.210 C 
ENDBRANCH  19  24
ENDBRANCH   1  18
TORSDOF 6
ENDMDL
