MODEL 1
REMARK VINA RESULT:      -9.9      0.000      0.000
REMARK  9 active torsions:
REMARK  status: ('A' for Active; 'I' for Inactive)
REMARK    1  A    between atoms: C_4  and  C_5 
REMARK    2  A    between atoms: C_11  and  C_12 
REMARK    3  A    between atoms: C_15  and  C_16 
REMARK    4  A    between atoms: C_16  and  N_17 
REMARK    5  A    between atoms: N_17  and  C_18 
REMARK    6  A    between atoms: C_18  and  N_19 
REMARK    7  A    between atoms: N_19  and  C_20 
REMARK    8  A    between atoms: C_22  and  C_23 
REMARK    9  A    between atoms: C_23  and  O_24 
ROOT
HETATM    1  C   UNL     1       5.530  26.759  55.588  1.00  0.00     0.067 C 
HETATM    2  C   UNL     1       5.966  27.910  54.640  1.00  0.00     0.001 C 
HETATM    3  C   UNL     1       7.208  28.646  55.195  1.00  0.00     0.040 C 
HETATM    4  C   UNL     1       6.881  29.325  56.534  1.00  0.00     0.206 C 
HETATM    5  N   UNL     1       5.494  28.840  56.971  1.00  0.00    -0.065 N 
HETATM    6  H   UNL     1       5.311  29.196  57.920  1.00  0.00     0.280 HD
HETATM    7  C   UNL     1       5.377  27.326  57.017  1.00  0.00     0.246 C 
HETATM    8  C   UNL     1       4.808  28.934  54.601  1.00  0.00     0.033 C 
HETATM    9  C   UNL     1       4.452  29.400  56.018  1.00  0.00     0.236 C 
ENDROOT
BRANCH   4  10
HETATM   10  C   UNL     1       7.943  29.172  57.642  1.00  0.00     0.155 C 
BRANCH  10  11
HETATM   11  N   UNL     1       7.557  29.710  58.941  1.00  0.00    -0.365 N 
HETATM   12  H   UNL     1       6.879  29.177  59.473  1.00  0.00     0.161 HD
BRANCH  11  13
HETATM   13  C   UNL     1       8.335  30.515  59.731  1.00  0.00     0.172 C 
HETATM   14  S   UNL     1       9.420  31.632  59.134  1.00  0.00    -0.041 SA
BRANCH  13  15
HETATM   15  N   UNL     1       8.090  30.463  61.077  1.00  0.00    -0.333 N 
HETATM   16  H   UNL     1       8.223  29.543  61.490  1.00  0.00     0.168 HD
BRANCH  15  17
HETATM   17  C   UNL     1       7.565  31.450  61.942  1.00  0.00     0.035 A 
HETATM   18  C   UNL     1       6.254  31.923  61.850  1.00  0.00     0.047 A 
HETATM   19  C   UNL     1       5.790  32.943  62.690  1.00  0.00     0.041 A 
HETATM   20  C   UNL     1       6.625  33.454  63.682  1.00  0.00     0.018 A 
HETATM   21  C   UNL     1       7.917  32.941  63.825  1.00  0.00     0.003 A 
HETATM   22  C   UNL     1       8.382  31.942  62.961  1.00  0.00     0.029 A 
BRANCH  19  23
HETATM   23  C   UNL     1       4.420  33.454  62.433  1.00  0.00     0.293 C 
HETATM   24  O   UNL     1       3.418  32.804  62.699  1.00  0.00    -0.259 OA
BRANCH  23  25
HETATM   25  O   UNL     1       4.463  34.697  61.903  1.00  0.00    -0.323 OA
HETATM   26  C   UNL     1       3.856  34.800  60.613  1.00  0.00     0.213 C 
ENDBRANCH  23  25
ENDBRANCH  19  23
ENDBRANCH  15  17
ENDBRANCH  13  15
ENDBRANCH  11  13
ENDBRANCH  10  11
ENDBRANCH   4  10
BRANCH   1  27
HETATM   27  C   UNL     1       6.394  25.528  55.538  1.00  0.00     0.038 A 
HETATM   28  N   UNL     1       7.272  25.177  56.545  1.00  0.00    -0.277 N 
HETATM   29  C   UNL     1       7.530  25.855  57.796  1.00  0.00     0.179 C 
HETATM   30  N   UNL     1       7.951  24.052  56.294  1.00  0.00    -0.172 NA
HETATM   31  C   UNL     1       7.435  23.584  55.154  1.00  0.00     0.096 A 
HETATM   32  C   UNL     1       6.475  24.482  54.633  1.00  0.00     0.062 A 
BRANCH  31  33
HETATM   33  C   UNL     1       7.848  22.263  54.579  1.00  0.00     0.035 A 
HETATM   34  S   UNL     1       8.437  20.948  55.498  1.00  0.00    -0.100 SA
HETATM   35  C   UNL     1       8.678  19.995  54.097  1.00  0.00     0.050 A 
HETATM   36  C   UNL     1       8.309  20.663  52.949  1.00  0.00     0.008 A 
HETATM   37  C   UNL     1       7.821  21.973  53.230  1.00  0.00     0.022 A 
ENDBRANCH  31  33
ENDBRANCH   1  27
TORSDOF 9
ENDMDL
MODEL 2
REMARK VINA RESULT:      -9.8      1.399      1.772
REMARK  9 active torsions:
REMARK  status: ('A' for Active; 'I' for Inactive)
REMARK    1  A    between atoms: C_4  and  C_5 
REMARK    2  A    between atoms: C_11  and  C_12 
REMARK    3  A    between atoms: C_15  and  C_16 
REMARK    4  A    between atoms: C_16  and  N_17 
REMARK    5  A    between atoms: N_17  and  C_18 
REMARK    6  A    between atoms: C_18  and  N_19 
REMARK    7  A    between atoms: N_19  and  C_20 
REMARK    8  A    between atoms: C_22  and  C_23 
REMARK    9  A    between atoms: C_23  and  O_24 
ROOT
HETATM    1  C   UNL     1       5.117  27.063  54.916  1.00  0.00     0.067 C 
HETATM    2  C   UNL     1       5.894  28.279  54.340  1.00  0.00     0.001 C 
HETATM    3  C   UNL     1       7.152  28.586  55.185  1.00  0.00     0.040 C 
HETATM    4  C   UNL     1       6.758  28.995  56.613  1.00  0.00     0.206 C 
HETATM    5  N   UNL     1       5.256  28.731  56.772  1.00  0.00    -0.065 N 
HETATM    6  H   UNL     1       5.001  28.891  57.757  1.00  0.00     0.280 HD
HETATM    7  C   UNL     1       4.858  27.307  56.419  1.00  0.00     0.246 C 
HETATM    8  C   UNL     1       4.962  29.510  54.447  1.00  0.00     0.033 C 
HETATM    9  C   UNL     1       4.489  29.704  55.893  1.00  0.00     0.236 C 
ENDROOT
BRANCH   4  10
HETATM   10  C   UNL     1       7.596  28.368  57.747  1.00  0.00     0.155 C 
BRANCH  10  11
HETATM   11  N   UNL     1       7.835  29.242  58.889  1.00  0.00    -0.365 N 
HETATM   12  H   UNL     1       7.902  28.798  59.798  1.00  0.00     0.161 HD
BRANCH  11  13
HETATM   13  C   UNL     1       8.474  30.453  58.844  1.00  0.00     0.172 C 
HETATM   14  S   UNL     1       9.950  30.697  58.106  1.00  0.00    -0.041 SA
BRANCH  13  15
HETATM   15  N   UNL     1       7.774  31.526  59.328  1.00  0.00    -0.333 N 
HETATM   16  H   UNL     1       7.461  32.177  58.612  1.00  0.00     0.168 HD
BRANCH  15  17
HETATM   17  C   UNL     1       7.534  31.925  60.663  1.00  0.00     0.035 A 
HETATM   18  C   UNL     1       6.295  32.396  61.104  1.00  0.00     0.047 A 
HETATM   19  C   UNL     1       6.114  32.836  62.422  1.00  0.00     0.041 A 
HETATM   20  C   UNL     1       7.166  32.742  63.332  1.00  0.00     0.018 A 
HETATM   21  C   UNL     1       8.390  32.211  62.916  1.00  0.00     0.003 A 
HETATM   22  C   UNL     1       8.570  31.801  61.589  1.00  0.00     0.029 A 
BRANCH  19  23
HETATM   23  C   UNL     1       4.795  33.427  62.758  1.00  0.00     0.293 C 
HETATM   24  O   UNL     1       3.828  32.740  63.063  1.00  0.00    -0.259 OA
BRANCH  23  25
HETATM   25  O   UNL     1       4.842  34.776  62.693  1.00  0.00    -0.323 OA
HETATM   26  C   UNL     1       4.660  35.425  63.953  1.00  0.00     0.213 C 
ENDBRANCH  23  25
ENDBRANCH  19  23
ENDBRANCH  15  17
ENDBRANCH  13  15
ENDBRANCH  11  13
ENDBRANCH  10  11
ENDBRANCH   4  10
BRANCH   1  27
HETATM   27  C   UNL     1       5.739  25.720  54.641  1.00  0.00     0.038 A 
HETATM   28  N   UNL     1       5.810  25.161  53.381  1.00  0.00    -0.277 N 
HETATM   29  C   UNL     1       5.349  25.706  52.123  1.00  0.00     0.179 C 
HETATM   30  N   UNL     1       6.392  23.957  53.362  1.00  0.00    -0.172 NA
HETATM   31  C   UNL     1       6.819  23.761  54.612  1.00  0.00     0.096 A 
HETATM   32  C   UNL     1       6.417  24.824  55.452  1.00  0.00     0.062 A 
BRANCH  31  33
HETATM   33  C   UNL     1       7.635  22.562  54.993  1.00  0.00     0.035 A 
HETATM   34  S   UNL     1       8.390  22.346  56.511  1.00  0.00    -0.100 SA
HETATM   35  C   UNL     1       9.074  20.853  56.029  1.00  0.00     0.050 A 
HETATM   36  C   UNL     1       8.727  20.519  54.738  1.00  0.00     0.008 A 
HETATM   37  C   UNL     1       7.887  21.505  54.142  1.00  0.00     0.022 A 
ENDBRANCH  31  33
ENDBRANCH   1  27
TORSDOF 9
ENDMDL
MODEL 3
REMARK VINA RESULT:      -9.7      3.914      5.633
REMARK  9 active torsions:
REMARK  status: ('A' for Active; 'I' for Inactive)
REMARK    1  A    between atoms: C_4  and  C_5 
REMARK    2  A    between atoms: C_11  and  C_12 
REMARK    3  A    between atoms: C_15  and  C_16 
REMARK    4  A    between atoms: C_16  and  N_17 
REMARK    5  A    between atoms: N_17  and  C_18 
REMARK    6  A    between atoms: C_18  and  N_19 
REMARK    7  A    between atoms: N_19  and  C_20 
REMARK    8  A    between atoms: C_22  and  C_23 
REMARK    9  A    between atoms: C_23  and  O_24 
ROOT
HETATM    1  C   UNL     1       7.373  26.511  54.767  1.00  0.00     0.067 C 
HETATM    2  C   UNL     1       6.638  25.644  55.827  1.00  0.00     0.001 C 
HETATM    3  C   UNL     1       5.372  26.361  56.351  1.00  0.00     0.040 C 
HETATM    4  C   UNL     1       5.748  27.661  57.079  1.00  0.00     0.206 C 
HETATM    5  N   UNL     1       7.239  27.915  56.830  1.00  0.00    -0.065 N 
HETATM    6  H   UNL     1       7.479  28.840  57.214  1.00  0.00     0.280 HD
HETATM    7  C   UNL     1       7.608  27.920  55.356  1.00  0.00     0.246 C 
HETATM    8  C   UNL     1       7.599  25.480  57.028  1.00  0.00     0.033 C 
HETATM    9  C   UNL     1       8.048  26.850  57.551  1.00  0.00     0.236 C 
ENDROOT
BRANCH   4  10
HETATM   10  C   UNL     1       4.873  28.889  56.756  1.00  0.00     0.155 C 
BRANCH  10  11
HETATM   11  N   UNL     1       4.452  29.666  57.917  1.00  0.00    -0.365 N 
HETATM   12  H   UNL     1       4.548  29.222  58.823  1.00  0.00     0.161 HD
BRANCH  11  13
HETATM   13  C   UNL     1       4.439  31.033  57.996  1.00  0.00     0.172 C 
HETATM   14  S   UNL     1       3.764  32.024  56.836  1.00  0.00    -0.041 SA
BRANCH  13  15
HETATM   15  N   UNL     1       4.900  31.576  59.166  1.00  0.00    -0.333 N 
HETATM   16  H   UNL     1       4.170  31.959  59.763  1.00  0.00     0.168 HD
BRANCH  15  17
HETATM   17  C   UNL     1       6.226  31.796  59.604  1.00  0.00     0.035 A 
HETATM   18  C   UNL     1       7.343  31.515  58.815  1.00  0.00     0.047 A 
HETATM   19  C   UNL     1       8.642  31.694  59.308  1.00  0.00     0.041 A 
HETATM   20  C   UNL     1       8.830  32.223  60.584  1.00  0.00     0.018 A 
HETATM   21  C   UNL     1       7.718  32.568  61.356  1.00  0.00     0.003 A 
HETATM   22  C   UNL     1       6.422  32.359  60.866  1.00  0.00     0.029 A 
BRANCH  19  23
HETATM   23  C   UNL     1       9.759  31.256  58.434  1.00  0.00     0.293 C 
HETATM   24  O   UNL     1      10.712  31.980  58.177  1.00  0.00    -0.259 OA
BRANCH  23  25
HETATM   25  O   UNL     1       9.567  29.988  58.008  1.00  0.00    -0.323 OA
HETATM   26  C   UNL     1      10.519  29.551  57.035  1.00  0.00     0.213 C 
ENDBRANCH  23  25
ENDBRANCH  19  23
ENDBRANCH  15  17
ENDBRANCH  13  15
ENDBRANCH  11  13
ENDBRANCH  10  11
ENDBRANCH   4  10
BRANCH   1  27
HETATM   27  C   UNL     1       6.722  26.548  53.410  1.00  0.00     0.038 A 
HETATM   28  N   UNL     1       6.884  25.554  52.465  1.00  0.00    -0.277 N 
HETATM   29  C   UNL     1       7.647  24.329  52.563  1.00  0.00     0.179 C 
HETATM   30  N   UNL     1       6.227  25.789  51.324  1.00  0.00    -0.172 NA
HETATM   31  C   UNL     1       5.525  26.902  51.553  1.00  0.00     0.096 A 
HETATM   32  C   UNL     1       5.817  27.424  52.834  1.00  0.00     0.062 A 
BRANCH  31  33
HETATM   33  C   UNL     1       4.555  27.449  50.549  1.00  0.00     0.035 A 
HETATM   34  S   UNL     1       3.562  28.816  50.806  1.00  0.00    -0.100 SA
HETATM   35  C   UNL     1       2.826  28.648  49.270  1.00  0.00     0.050 A 
HETATM   36  C   UNL     1       3.333  27.576  48.569  1.00  0.00     0.008 A 
HETATM   37  C   UNL     1       4.340  26.887  49.307  1.00  0.00     0.022 A 
ENDBRANCH  31  33
ENDBRANCH   1  27
TORSDOF 9
ENDMDL
MODEL 4
REMARK VINA RESULT:      -9.5      5.774     10.132
REMARK  9 active torsions:
REMARK  status: ('A' for Active; 'I' for Inactive)
REMARK    1  A    between atoms: C_4  and  C_5 
REMARK    2  A    between atoms: C_11  and  C_12 
REMARK    3  A    between atoms: C_15  and  C_16 
REMARK    4  A    between atoms: C_16  and  N_17 
REMARK    5  A    between atoms: N_17  and  C_18 
REMARK    6  A    between atoms: C_18  and  N_19 
REMARK    7  A    between atoms: N_19  and  C_20 
REMARK    8  A    between atoms: C_22  and  C_23 
REMARK    9  A    between atoms: C_23  and  O_24 
ROOT
HETATM    1  C   UNL     1       6.718  25.782  54.357  1.00  0.00     0.067 C 
HETATM    2  C   UNL     1       6.976  26.327  52.925  1.00  0.00     0.001 C 
HETATM    3  C   UNL     1       6.138  27.598  52.654  1.00  0.00     0.040 C 
HETATM    4  C   UNL     1       4.637  27.277  52.702  1.00  0.00     0.206 C 
HETATM    5  N   UNL     1       4.486  25.847  53.234  1.00  0.00    -0.065 N 
HETATM    6  H   UNL     1       3.484  25.659  53.380  1.00  0.00     0.280 HD
HETATM    7  C   UNL     1       5.195  25.624  54.560  1.00  0.00     0.246 C 
HETATM    8  C   UNL     1       6.496  25.244  51.930  1.00  0.00     0.033 C 
HETATM    9  C   UNL     1       5.031  24.876  52.199  1.00  0.00     0.236 C 
ENDROOT
BRANCH   4  10
HETATM   10  C   UNL     1       3.757  28.290  53.462  1.00  0.00     0.155 C 
BRANCH  10  11
HETATM   11  N   UNL     1       2.870  29.086  52.622  1.00  0.00    -0.365 N 
HETATM   12  H   UNL     1       1.875  28.921  52.723  1.00  0.00     0.161 HD
BRANCH  11  13
HETATM   13  C   UNL     1       3.151  30.331  52.123  1.00  0.00     0.172 C 
HETATM   14  S   UNL     1       3.384  31.680  53.076  1.00  0.00    -0.041 SA
BRANCH  13  15
HETATM   15  N   UNL     1       3.374  30.407  50.775  1.00  0.00    -0.333 N 
HETATM   16  H   UNL     1       3.119  31.300  50.360  1.00  0.00     0.168 HD
BRANCH  15  17
HETATM   17  C   UNL     1       3.782  29.405  49.864  1.00  0.00     0.035 A 
HETATM   18  C   UNL     1       2.890  28.507  49.274  1.00  0.00     0.047 A 
HETATM   19  C   UNL     1       3.342  27.492  48.420  1.00  0.00     0.041 A 
HETATM   20  C   UNL     1       4.696  27.413  48.098  1.00  0.00     0.018 A 
HETATM   21  C   UNL     1       5.586  28.349  48.631  1.00  0.00     0.003 A 
HETATM   22  C   UNL     1       5.129  29.342  49.507  1.00  0.00     0.029 A 
BRANCH  19  23
HETATM   23  C   UNL     1       2.330  26.518  47.940  1.00  0.00     0.293 C 
HETATM   24  O   UNL     1       2.624  25.378  47.608  1.00  0.00    -0.259 OA
BRANCH  23  25
HETATM   25  O   UNL     1       1.094  27.066  47.948  1.00  0.00    -0.323 OA
HETATM   26  C   UNL     1       0.584  27.370  46.648  1.00  0.00     0.213 C 
ENDBRANCH  23  25
ENDBRANCH  19  23
ENDBRANCH  15  17
ENDBRANCH  13  15
ENDBRANCH  11  13
ENDBRANCH  10  11
ENDBRANCH   4  10
BRANCH   1  27
HETATM   27  C   UNL     1       7.376  26.561  55.465  1.00  0.00     0.038 A 
HETATM   28  N   UNL     1       7.838  25.980  56.629  1.00  0.00    -0.277 N 
HETATM   29  C   UNL     1       7.813  24.586  57.016  1.00  0.00     0.179 C 
HETATM   30  N   UNL     1       8.379  26.854  57.485  1.00  0.00    -0.172 NA
HETATM   31  C   UNL     1       8.380  28.020  56.832  1.00  0.00     0.096 A 
HETATM   32  C   UNL     1       7.745  27.891  55.576  1.00  0.00     0.062 A 
BRANCH  31  33
HETATM   33  C   UNL     1       9.013  29.250  57.408  1.00  0.00     0.035 A 
HETATM   34  S   UNL     1      10.449  29.967  56.820  1.00  0.00    -0.100 SA
HETATM   35  C   UNL     1      10.420  31.172  58.036  1.00  0.00     0.050 A 
HETATM   36  C   UNL     1       9.333  31.036  58.871  1.00  0.00     0.008 A 
HETATM   37  C   UNL     1       8.514  29.929  58.501  1.00  0.00     0.022 A 
ENDBRANCH  31  33
ENDBRANCH   1  27
TORSDOF 9
ENDMDL
MODEL 5
REMARK VINA RESULT:      -9.2      4.420     10.560
REMARK  9 active torsions:
REMARK  status: ('A' for Active; 'I' for Inactive)
REMARK    1  A    between atoms: C_4  and  C_5 
REMARK    2  A    between atoms: C_11  and  C_12 
REMARK    3  A    between atoms: C_15  and  C_16 
REMARK    4  A    between atoms: C_16  and  N_17 
REMARK    5  A    between atoms: N_17  and  C_18 
REMARK    6  A    between atoms: C_18  and  N_19 
REMARK    7  A    between atoms: N_19  and  C_20 
REMARK    8  A    between atoms: C_22  and  C_23 
REMARK    9  A    between atoms: C_23  and  O_24 
ROOT
HETATM    1  C   UNL     1       4.127  32.560  57.241  1.00  0.00     0.067 C 
HETATM    2  C   UNL     1       3.374  31.203  57.158  1.00  0.00     0.001 C 
HETATM    3  C   UNL     1       4.361  30.014  57.230  1.00  0.00     0.040 C 
HETATM    4  C   UNL     1       5.312  30.026  56.023  1.00  0.00     0.206 C 
HETATM    5  N   UNL     1       5.102  31.351  55.282  1.00  0.00    -0.065 N 
HETATM    6  H   UNL     1       5.811  31.423  54.539  1.00  0.00     0.280 HD
HETATM    7  C   UNL     1       5.250  32.569  56.180  1.00  0.00     0.246 C 
HETATM    8  C   UNL     1       2.690  31.143  55.772  1.00  0.00     0.033 C 
HETATM    9  C   UNL     1       3.718  31.351  54.653  1.00  0.00     0.236 C 
ENDROOT
BRANCH   4  10
HETATM   10  C   UNL     1       6.796  29.746  56.333  1.00  0.00     0.155 C 
BRANCH  10  11
HETATM   11  N   UNL     1       7.381  28.635  55.591  1.00  0.00    -0.365 N 
HETATM   12  H   UNL     1       8.167  28.851  54.990  1.00  0.00     0.161 HD
BRANCH  11  13
HETATM   13  C   UNL     1       7.355  27.320  55.976  1.00  0.00     0.172 C 
HETATM   14  S   UNL     1       8.001  26.760  57.409  1.00  0.00    -0.041 SA
BRANCH  13  15
HETATM   15  N   UNL     1       6.637  26.469  55.179  1.00  0.00    -0.333 N 
HETATM   16  H   UNL     1       5.628  26.559  55.275  1.00  0.00     0.168 HD
BRANCH  15  17
HETATM   17  C   UNL     1       7.080  25.414  54.349  1.00  0.00     0.035 A 
HETATM   18  C   UNL     1       7.245  24.105  54.807  1.00  0.00     0.047 A 
HETATM   19  C   UNL     1       7.741  23.100  53.966  1.00  0.00     0.041 A 
HETATM   20  C   UNL     1       8.014  23.390  52.630  1.00  0.00     0.018 A 
HETATM   21  C   UNL     1       7.790  24.682  52.146  1.00  0.00     0.003 A 
HETATM   22  C   UNL     1       7.322  25.687  53.001  1.00  0.00     0.029 A 
BRANCH  19  23
HETATM   23  C   UNL     1       7.989  21.772  54.580  1.00  0.00     0.293 C 
HETATM   24  O   UNL     1       7.628  20.728  54.053  1.00  0.00    -0.259 OA
BRANCH  23  25
HETATM   25  O   UNL     1       8.662  21.900  55.746  1.00  0.00    -0.323 OA
HETATM   26  C   UNL     1       8.307  20.928  56.731  1.00  0.00     0.213 C 
ENDBRANCH  23  25
ENDBRANCH  19  23
ENDBRANCH  15  17
ENDBRANCH  13  15
ENDBRANCH  11  13
ENDBRANCH  10  11
ENDBRANCH   4  10
BRANCH   1  27
HETATM   27  C   UNL     1       4.619  32.934  58.613  1.00  0.00     0.038 A 
HETATM   28  N   UNL     1       3.987  33.860  59.418  1.00  0.00    -0.277 N 
HETATM   29  C   UNL     1       2.783  34.617  59.153  1.00  0.00     0.179 C 
HETATM   30  N   UNL     1       4.596  34.052  60.594  1.00  0.00    -0.172 NA
HETATM   31  C   UNL     1       5.586  33.156  60.619  1.00  0.00     0.096 A 
HETATM   32  C   UNL     1       5.654  32.449  59.396  1.00  0.00     0.062 A 
BRANCH  31  33
HETATM   33  C   UNL     1       6.451  32.963  61.828  1.00  0.00     0.035 A 
HETATM   34  S   UNL     1       5.993  33.373  63.423  1.00  0.00    -0.100 SA
HETATM   35  C   UNL     1       7.511  32.890  64.050  1.00  0.00     0.050 A 
HETATM   36  C   UNL     1       8.350  32.418  63.064  1.00  0.00     0.008 A 
HETATM   37  C   UNL     1       7.732  32.452  61.780  1.00  0.00     0.022 A 
ENDBRANCH  31  33
ENDBRANCH   1  27
TORSDOF 9
ENDMDL
MODEL 6
REMARK VINA RESULT:      -9.1      2.055      2.783
REMARK  9 active torsions:
REMARK  status: ('A' for Active; 'I' for Inactive)
REMARK    1  A    between atoms: C_4  and  C_5 
REMARK    2  A    between atoms: C_11  and  C_12 
REMARK    3  A    between atoms: C_15  and  C_16 
REMARK    4  A    between atoms: C_16  and  N_17 
REMARK    5  A    between atoms: N_17  and  C_18 
REMARK    6  A    between atoms: C_18  and  N_19 
REMARK    7  A    between atoms: N_19  and  C_20 
REMARK    8  A    between atoms: C_22  and  C_23 
REMARK    9  A    between atoms: C_23  and  O_24 
ROOT
HETATM    1  C   UNL     1       4.062  28.960  56.098  1.00  0.00     0.067 C 
HETATM    2  C   UNL     1       4.323  30.430  55.669  1.00  0.00     0.001 C 
HETATM    3  C   UNL     1       5.796  30.829  55.919  1.00  0.00     0.040 C 
HETATM    4  C   UNL     1       6.123  30.780  57.419  1.00  0.00     0.206 C 
HETATM    5  N   UNL     1       4.933  30.125  58.130  1.00  0.00    -0.065 N 
HETATM    6  H   UNL     1       5.185  29.980  59.118  1.00  0.00     0.280 HD
HETATM    7  C   UNL     1       4.559  28.771  57.548  1.00  0.00     0.246 C 
HETATM    8  C   UNL     1       3.448  31.332  56.570  1.00  0.00     0.033 C 
HETATM    9  C   UNL     1       3.737  31.058  58.051  1.00  0.00     0.236 C 
ENDROOT
BRANCH   4  10
HETATM   10  C   UNL     1       7.471  30.130  57.792  1.00  0.00     0.155 C 
BRANCH  10  11
HETATM   11  N   UNL     1       7.663  29.886  59.218  1.00  0.00    -0.365 N 
HETATM   12  H   UNL     1       7.744  28.919  59.509  1.00  0.00     0.161 HD
BRANCH  11  13
HETATM   13  C   UNL     1       8.246  30.755  60.101  1.00  0.00     0.172 C 
HETATM   14  S   UNL     1       9.289  31.977  59.650  1.00  0.00    -0.041 SA
BRANCH  13  15
HETATM   15  N   UNL     1       7.827  30.669  61.402  1.00  0.00    -0.333 N 
HETATM   16  H   UNL     1       7.793  29.720  61.767  1.00  0.00     0.168 HD
BRANCH  15  17
HETATM   17  C   UNL     1       7.322  31.673  62.261  1.00  0.00     0.035 A 
HETATM   18  C   UNL     1       6.006  32.136  62.196  1.00  0.00     0.047 A 
HETATM   19  C   UNL     1       5.562  33.172  63.028  1.00  0.00     0.041 A 
HETATM   20  C   UNL     1       6.423  33.709  63.984  1.00  0.00     0.018 A 
HETATM   21  C   UNL     1       7.721  33.206  64.100  1.00  0.00     0.003 A 
HETATM   22  C   UNL     1       8.167  32.190  63.245  1.00  0.00     0.029 A 
BRANCH  19  23
HETATM   23  C   UNL     1       4.182  33.671  62.800  1.00  0.00     0.293 C 
HETATM   24  O   UNL     1       3.484  33.268  61.879  1.00  0.00    -0.259 OA
BRANCH  23  25
HETATM   25  O   UNL     1       3.839  34.580  63.740  1.00  0.00    -0.323 OA
HETATM   26  C   UNL     1       3.406  35.833  63.206  1.00  0.00     0.213 C 
ENDBRANCH  23  25
ENDBRANCH  19  23
ENDBRANCH  15  17
ENDBRANCH  13  15
ENDBRANCH  11  13
ENDBRANCH  10  11
ENDBRANCH   4  10
BRANCH   1  27
HETATM   27  C   UNL     1       4.599  27.915  55.157  1.00  0.00     0.038 A 
HETATM   28  N   UNL     1       4.321  27.899  53.805  1.00  0.00    -0.277 N 
HETATM   29  C   UNL     1       3.522  28.826  53.035  1.00  0.00     0.179 C 
HETATM   30  N   UNL     1       4.890  26.877  53.154  1.00  0.00    -0.172 NA
HETATM   31  C   UNL     1       5.651  26.268  54.067  1.00  0.00     0.096 A 
HETATM   32  C   UNL     1       5.486  26.866  55.337  1.00  0.00     0.062 A 
BRANCH  31  33
HETATM   33  C   UNL     1       6.555  25.126  53.712  1.00  0.00     0.035 A 
HETATM   34  S   UNL     1       7.382  24.971  52.225  1.00  0.00    -0.100 SA
HETATM   35  C   UNL     1       8.050  23.463  52.681  1.00  0.00     0.050 A 
HETATM   36  C   UNL     1       7.658  23.087  53.947  1.00  0.00     0.008 A 
HETATM   37  C   UNL     1       6.799  24.054  54.547  1.00  0.00     0.022 A 
ENDBRANCH  31  33
ENDBRANCH   1  27
TORSDOF 9
ENDMDL
MODEL 7
REMARK VINA RESULT:      -9.0      5.879      9.284
REMARK  9 active torsions:
REMARK  status: ('A' for Active; 'I' for Inactive)
REMARK    1  A    between atoms: C_4  and  C_5 
REMARK    2  A    between atoms: C_11  and  C_12 
REMARK    3  A    between atoms: C_15  and  C_16 
REMARK    4  A    between atoms: C_16  and  N_17 
REMARK    5  A    between atoms: N_17  and  C_18 
REMARK    6  A    between atoms: C_18  and  N_19 
REMARK    7  A    between atoms: N_19  and  C_20 
REMARK    8  A    between atoms: C_22  and  C_23 
REMARK    9  A    between atoms: C_23  and  O_24 
ROOT
HETATM    1  C   UNL     1       6.445  27.146  54.818  1.00  0.00     0.067 C 
HETATM    2  C   UNL     1       4.895  27.162  54.712  1.00  0.00     0.001 C 
HETATM    3  C   UNL     1       4.427  26.647  53.331  1.00  0.00     0.040 C 
HETATM    4  C   UNL     1       4.921  27.576  52.211  1.00  0.00     0.206 C 
HETATM    5  N   UNL     1       5.907  28.570  52.835  1.00  0.00    -0.065 N 
HETATM    6  H   UNL     1       6.332  29.123  52.078  1.00  0.00     0.280 HD
HETATM    7  C   UNL     1       7.033  27.894  53.600  1.00  0.00     0.246 C 
HETATM    8  C   UNL     1       4.444  28.638  54.824  1.00  0.00     0.033 C 
HETATM    9  C   UNL     1       5.147  29.499  53.767  1.00  0.00     0.236 C 
ENDROOT
BRANCH   4  10
HETATM   10  C   UNL     1       5.491  26.877  50.961  1.00  0.00     0.155 C 
BRANCH  10  11
HETATM   11  N   UNL     1       4.523  26.101  50.194  1.00  0.00    -0.365 N 
HETATM   12  H   UNL     1       3.723  25.739  50.702  1.00  0.00     0.161 HD
BRANCH  11  13
HETATM   13  C   UNL     1       4.282  26.232  48.852  1.00  0.00     0.172 C 
HETATM   14  S   UNL     1       3.108  25.378  48.032  1.00  0.00    -0.041 SA
BRANCH  13  15
HETATM   15  N   UNL     1       4.974  27.222  48.206  1.00  0.00    -0.333 N 
HETATM   16  H   UNL     1       5.909  26.952  47.910  1.00  0.00     0.168 HD
BRANCH  15  17
HETATM   17  C   UNL     1       4.638  28.580  48.004  1.00  0.00     0.035 A 
HETATM   18  C   UNL     1       5.379  29.634  48.543  1.00  0.00     0.047 A 
HETATM   19  C   UNL     1       4.980  30.966  48.366  1.00  0.00     0.041 A 
HETATM   20  C   UNL     1       3.862  31.253  47.585  1.00  0.00     0.018 A 
HETATM   21  C   UNL     1       3.153  30.208  46.987  1.00  0.00     0.003 A 
HETATM   22  C   UNL     1       3.542  28.879  47.193  1.00  0.00     0.029 A 
BRANCH  19  23
HETATM   23  C   UNL     1       5.768  32.003  49.077  1.00  0.00     0.293 C 
HETATM   24  O   UNL     1       6.236  31.821  50.193  1.00  0.00    -0.259 OA
BRANCH  23  25
HETATM   25  O   UNL     1       5.894  33.115  48.318  1.00  0.00    -0.323 OA
HETATM   26  C   UNL     1       6.548  34.199  48.980  1.00  0.00     0.213 C 
ENDBRANCH  23  25
ENDBRANCH  19  23
ENDBRANCH  15  17
ENDBRANCH  13  15
ENDBRANCH  11  13
ENDBRANCH  10  11
ENDBRANCH   4  10
BRANCH   1  27
HETATM   27  C   UNL     1       7.057  25.786  55.017  1.00  0.00     0.038 A 
HETATM   28  N   UNL     1       7.516  25.332  56.238  1.00  0.00    -0.277 N 
HETATM   29  C   UNL     1       7.498  26.007  57.517  1.00  0.00     0.179 C 
HETATM   30  N   UNL     1       8.033  24.099  56.191  1.00  0.00    -0.172 NA
HETATM   31  C   UNL     1       7.812  23.680  54.943  1.00  0.00     0.096 A 
HETATM   32  C   UNL     1       7.225  24.705  54.166  1.00  0.00     0.062 A 
BRANCH  31  33
HETATM   33  C   UNL     1       8.143  22.286  54.504  1.00  0.00     0.035 A 
HETATM   34  S   UNL     1       8.723  21.055  55.538  1.00  0.00    -0.100 SA
HETATM   35  C   UNL     1       8.856  19.943  54.245  1.00  0.00     0.050 A 
HETATM   36  C   UNL     1       8.458  20.494  53.046  1.00  0.00     0.008 A 
HETATM   37  C   UNL     1       8.037  21.848  53.199  1.00  0.00     0.022 A 
ENDBRANCH  31  33
ENDBRANCH   1  27
TORSDOF 9
ENDMDL
MODEL 8
REMARK VINA RESULT:      -9.0      6.809     10.429
REMARK  9 active torsions:
REMARK  status: ('A' for Active; 'I' for Inactive)
REMARK    1  A    between atoms: C_4  and  C_5 
REMARK    2  A    between atoms: C_11  and  C_12 
REMARK    3  A    between atoms: C_15  and  C_16 
REMARK    4  A    between atoms: C_16  and  N_17 
REMARK    5  A    between atoms: N_17  and  C_18 
REMARK    6  A    between atoms: C_18  and  N_19 
REMARK    7  A    between atoms: N_19  and  C_20 
REMARK    8  A    between atoms: C_22  and  C_23 
REMARK    9  A    between atoms: C_23  and  O_24 
ROOT
HETATM    1  C   UNL     1       6.396  27.393  54.613  1.00  0.00     0.067 C 
HETATM    2  C   UNL     1       4.844  27.361  54.541  1.00  0.00     0.001 C 
HETATM    3  C   UNL     1       4.362  26.821  53.174  1.00  0.00     0.040 C 
HETATM    4  C   UNL     1       4.803  27.756  52.037  1.00  0.00     0.206 C 
HETATM    5  N   UNL     1       5.772  28.784  52.633  1.00  0.00    -0.065 N 
HETATM    6  H   UNL     1       6.165  29.344  51.863  1.00  0.00     0.280 HD
HETATM    7  C   UNL     1       6.934  28.148  53.378  1.00  0.00     0.246 C 
HETATM    8  C   UNL     1       4.351  28.823  54.653  1.00  0.00     0.033 C 
HETATM    9  C   UNL     1       5.005  29.697  53.574  1.00  0.00     0.236 C 
ENDROOT
BRANCH   4  10
HETATM   10  C   UNL     1       5.368  27.064  50.780  1.00  0.00     0.155 C 
BRANCH  10  11
HETATM   11  N   UNL     1       4.459  26.123  50.135  1.00  0.00    -0.365 N 
HETATM   12  H   UNL     1       4.106  25.365  50.707  1.00  0.00     0.161 HD
BRANCH  11  13
HETATM   13  C   UNL     1       3.645  26.407  49.071  1.00  0.00     0.172 C 
HETATM   14  S   UNL     1       3.505  25.433  47.724  1.00  0.00    -0.041 SA
BRANCH  13  15
HETATM   15  N   UNL     1       2.819  27.490  49.211  1.00  0.00    -0.333 N 
HETATM   16  H   UNL     1       2.454  27.617  50.152  1.00  0.00     0.168 HD
BRANCH  15  17
HETATM   17  C   UNL     1       2.303  28.371  48.233  1.00  0.00     0.035 A 
HETATM   18  C   UNL     1       0.987  28.308  47.772  1.00  0.00     0.047 A 
HETATM   19  C   UNL     1       0.532  29.163  46.760  1.00  0.00     0.041 A 
HETATM   20  C   UNL     1       1.383  30.140  46.246  1.00  0.00     0.018 A 
HETATM   21  C   UNL     1       2.683  30.253  46.747  1.00  0.00     0.003 A 
HETATM   22  C   UNL     1       3.138  29.375  47.739  1.00  0.00     0.029 A 
BRANCH  19  23
HETATM   23  C   UNL     1      -0.848  28.938  46.259  1.00  0.00     0.293 C 
HETATM   24  O   UNL     1      -1.254  27.829  45.936  1.00  0.00    -0.259 OA
BRANCH  23  25
HETATM   25  O   UNL     1      -1.547  30.094  46.241  1.00  0.00    -0.323 OA
HETATM   26  C   UNL     1      -2.964  29.915  46.180  1.00  0.00     0.213 C 
ENDBRANCH  23  25
ENDBRANCH  19  23
ENDBRANCH  15  17
ENDBRANCH  13  15
ENDBRANCH  11  13
ENDBRANCH  10  11
ENDBRANCH   4  10
BRANCH   1  27
HETATM   27  C   UNL     1       7.053  26.053  54.810  1.00  0.00     0.038 A 
HETATM   28  N   UNL     1       7.708  25.692  55.970  1.00  0.00    -0.277 N 
HETATM   29  C   UNL     1       7.885  26.459  57.184  1.00  0.00     0.179 C 
HETATM   30  N   UNL     1       8.229  24.461  55.930  1.00  0.00    -0.172 NA
HETATM   31  C   UNL     1       7.818  23.950  54.766  1.00  0.00     0.096 A 
HETATM   32  C   UNL     1       7.099  24.913  54.023  1.00  0.00     0.062 A 
BRANCH  31  33
HETATM   33  C   UNL     1       8.096  22.528  54.382  1.00  0.00     0.035 A 
HETATM   34  S   UNL     1       8.766  21.354  55.427  1.00  0.00    -0.100 SA
HETATM   35  C   UNL     1       8.767  20.166  54.195  1.00  0.00     0.050 A 
HETATM   36  C   UNL     1       8.258  20.651  53.010  1.00  0.00     0.008 A 
HETATM   37  C   UNL     1       7.862  22.016  53.121  1.00  0.00     0.022 A 
ENDBRANCH  31  33
ENDBRANCH   1  27
TORSDOF 9
ENDMDL
MODEL 9
REMARK VINA RESULT:      -8.9      3.224      4.820
REMARK  9 active torsions:
REMARK  status: ('A' for Active; 'I' for Inactive)
REMARK    1  A    between atoms: C_4  and  C_5 
REMARK    2  A    between atoms: C_11  and  C_12 
REMARK    3  A    between atoms: C_15  and  C_16 
REMARK    4  A    between atoms: C_16  and  N_17 
REMARK    5  A    between atoms: N_17  and  C_18 
REMARK    6  A    between atoms: C_18  and  N_19 
REMARK    7  A    between atoms: N_19  and  C_20 
REMARK    8  A    between atoms: C_22  and  C_23 
REMARK    9  A    between atoms: C_23  and  O_24 
ROOT
HETATM    1  C   UNL     1       6.997  26.342  54.889  1.00  0.00     0.067 C 
HETATM    2  C   UNL     1       6.035  25.714  55.936  1.00  0.00     0.001 C 
HETATM    3  C   UNL     1       5.096  26.784  56.540  1.00  0.00     0.040 C 
HETATM    4  C   UNL     1       5.904  27.839  57.312  1.00  0.00     0.206 C 
HETATM    5  N   UNL     1       7.388  27.592  57.018  1.00  0.00    -0.065 N 
HETATM    6  H   UNL     1       7.933  28.360  57.435  1.00  0.00     0.280 HD
HETATM    7  C   UNL     1       7.706  27.554  55.532  1.00  0.00     0.246 C 
HETATM    8  C   UNL     1       6.909  25.170  57.091  1.00  0.00     0.033 C 
HETATM    9  C   UNL     1       7.805  26.278  57.658  1.00  0.00     0.236 C 
ENDROOT
BRANCH   4  10
HETATM   10  C   UNL     1       5.488  29.306  57.080  1.00  0.00     0.155 C 
BRANCH  10  11
HETATM   11  N   UNL     1       5.583  30.166  58.254  1.00  0.00    -0.365 N 
HETATM   12  H   UNL     1       5.760  29.709  59.141  1.00  0.00     0.161 HD
BRANCH  11  13
HETATM   13  C   UNL     1       5.973  31.479  58.248  1.00  0.00     0.172 C 
HETATM   14  S   UNL     1       5.056  32.716  57.606  1.00  0.00    -0.041 SA
BRANCH  13  15
HETATM   15  N   UNL     1       7.123  31.773  58.930  1.00  0.00    -0.333 N 
HETATM   16  H   UNL     1       7.965  31.745  58.359  1.00  0.00     0.168 HD
BRANCH  15  17
HETATM   17  C   UNL     1       7.330  31.981  60.313  1.00  0.00     0.035 A 
HETATM   18  C   UNL     1       6.306  32.353  61.187  1.00  0.00     0.047 A 
HETATM   19  C   UNL     1       6.565  32.606  62.540  1.00  0.00     0.041 A 
HETATM   20  C   UNL     1       7.852  32.421  63.044  1.00  0.00     0.018 A 
HETATM   21  C   UNL     1       8.869  31.985  62.190  1.00  0.00     0.003 A 
HETATM   22  C   UNL     1       8.607  31.763  60.832  1.00  0.00     0.029 A 
BRANCH  19  23
HETATM   23  C   UNL     1       5.433  33.108  63.358  1.00  0.00     0.293 C 
HETATM   24  O   UNL     1       4.848  32.403  64.170  1.00  0.00    -0.259 OA
BRANCH  23  25
HETATM   25  O   UNL     1       5.182  34.408  63.085  1.00  0.00    -0.323 OA
HETATM   26  C   UNL     1       4.382  35.065  64.070  1.00  0.00     0.213 C 
ENDBRANCH  23  25
ENDBRANCH  19  23
ENDBRANCH  15  17
ENDBRANCH  13  15
ENDBRANCH  11  13
ENDBRANCH  10  11
ENDBRANCH   4  10
BRANCH   1  27
HETATM   27  C   UNL     1       6.369  26.670  53.562  1.00  0.00     0.038 A 
HETATM   28  N   UNL     1       6.703  26.029  52.386  1.00  0.00    -0.277 N 
HETATM   29  C   UNL     1       7.655  24.960  52.178  1.00  0.00     0.179 C 
HETATM   30  N   UNL     1       6.033  26.482  51.320  1.00  0.00    -0.172 NA
HETATM   31  C   UNL     1       5.156  27.361  51.812  1.00  0.00     0.096 A 
HETATM   32  C   UNL     1       5.341  27.528  53.204  1.00  0.00     0.062 A 
BRANCH  31  33
HETATM   33  C   UNL     1       4.124  28.021  50.948  1.00  0.00     0.035 A 
HETATM   34  S   UNL     1       3.044  29.232  51.482  1.00  0.00    -0.100 SA
HETATM   35  C   UNL     1       2.282  29.316  49.951  1.00  0.00     0.050 A 
HETATM   36  C   UNL     1       2.846  28.443  49.046  1.00  0.00     0.008 A 
HETATM   37  C   UNL     1       3.917  27.700  49.621  1.00  0.00     0.022 A 
ENDBRANCH  31  33
ENDBRANCH   1  27
TORSDOF 9
ENDMDL
MODEL 10
REMARK VINA RESULT:      -8.7      7.312     11.552
REMARK  9 active torsions:
REMARK  status: ('A' for Active; 'I' for Inactive)
REMARK    1  A    between atoms: C_4  and  C_5 
REMARK    2  A    between atoms: C_11  and  C_12 
REMARK    3  A    between atoms: C_15  and  C_16 
REMARK    4  A    between atoms: C_16  and  N_17 
REMARK    5  A    between atoms: N_17  and  C_18 
REMARK    6  A    between atoms: C_18  and  N_19 
REMARK    7  A    between atoms: N_19  and  C_20 
REMARK    8  A    between atoms: C_22  and  C_23 
REMARK    9  A    between atoms: C_23  and  O_24 
ROOT
HETATM    1  C   UNL     1       3.715  29.497  47.455  1.00  0.00     0.067 C 
HETATM    2  C   UNL     1       2.217  29.625  47.848  1.00  0.00     0.001 C 
HETATM    3  C   UNL     1       2.060  29.879  49.365  1.00  0.00     0.040 C 
HETATM    4  C   UNL     1       2.591  28.684  50.172  1.00  0.00     0.206 C 
HETATM    5  N   UNL     1       3.308  27.748  49.193  1.00  0.00    -0.065 N 
HETATM    6  H   UNL     1       3.767  27.002  49.735  1.00  0.00     0.280 HD
HETATM    7  C   UNL     1       4.379  28.447  48.372  1.00  0.00     0.246 C 
HETATM    8  C   UNL     1       1.546  28.266  47.542  1.00  0.00     0.033 C 
HETATM    9  C   UNL     1       2.280  27.128  48.261  1.00  0.00     0.236 C 
ENDROOT
BRANCH   4  10
HETATM   10  C   UNL     1       3.453  29.033  51.402  1.00  0.00     0.155 C 
BRANCH  10  11
HETATM   11  N   UNL     1       3.099  28.318  52.623  1.00  0.00    -0.365 N 
HETATM   12  H   UNL     1       2.155  27.955  52.683  1.00  0.00     0.161 HD
BRANCH  11  13
HETATM   13  C   UNL     1       3.976  27.648  53.434  1.00  0.00     0.172 C 
HETATM   14  S   UNL     1       4.635  28.293  54.824  1.00  0.00    -0.041 SA
BRANCH  13  15
HETATM   15  N   UNL     1       4.201  26.332  53.127  1.00  0.00    -0.333 N 
HETATM   16  H   UNL     1       3.354  25.785  52.991  1.00  0.00     0.168 HD
BRANCH  15  17
HETATM   17  C   UNL     1       5.412  25.602  53.094  1.00  0.00     0.035 A 
HETATM   18  C   UNL     1       5.790  24.713  54.102  1.00  0.00     0.047 A 
HETATM   19  C   UNL     1       7.024  24.052  54.060  1.00  0.00     0.041 A 
HETATM   20  C   UNL     1       7.865  24.229  52.962  1.00  0.00     0.018 A 
HETATM   21  C   UNL     1       7.466  25.067  51.918  1.00  0.00     0.003 A 
HETATM   22  C   UNL     1       6.243  25.746  51.982  1.00  0.00     0.029 A 
BRANCH  19  23
HETATM   23  C   UNL     1       7.381  23.220  55.236  1.00  0.00     0.293 C 
HETATM   24  O   UNL     1       7.483  23.687  56.363  1.00  0.00    -0.259 OA
BRANCH  23  25
HETATM   25  O   UNL     1       7.547  21.927  54.878  1.00  0.00    -0.323 OA
HETATM   26  C   UNL     1       8.480  21.213  55.692  1.00  0.00     0.213 C 
ENDBRANCH  23  25
ENDBRANCH  19  23
ENDBRANCH  15  17
ENDBRANCH  13  15
ENDBRANCH  11  13
ENDBRANCH  10  11
ENDBRANCH   4  10
BRANCH   1  27
HETATM   27  C   UNL     1       4.476  30.795  47.408  1.00  0.00     0.038 A 
HETATM   28  N   UNL     1       4.510  31.614  46.298  1.00  0.00    -0.277 N 
HETATM   29  C   UNL     1       3.854  31.434  45.021  1.00  0.00     0.179 C 
HETATM   30  N   UNL     1       5.254  32.713  46.466  1.00  0.00    -0.172 NA
HETATM   31  C   UNL     1       5.629  32.683  47.747  1.00  0.00     0.096 A 
HETATM   32  C   UNL     1       5.186  31.494  48.371  1.00  0.00     0.062 A 
BRANCH  31  33
HETATM   33  C   UNL     1       6.393  33.808  48.377  1.00  0.00     0.035 A 
HETATM   34  S   UNL     1       5.898  34.652  49.778  1.00  0.00    -0.100 SA
HETATM   35  C   UNL     1       7.251  35.697  49.704  1.00  0.00     0.050 A 
HETATM   36  C   UNL     1       8.072  35.404  48.636  1.00  0.00     0.008 A 
HETATM   37  C   UNL     1       7.579  34.305  47.874  1.00  0.00     0.022 A 
ENDBRANCH  31  33
ENDBRANCH   1  27
TORSDOF 9
ENDMDL
