MODEL 1
REMARK VINA RESULT:     -10.6      0.000      0.000
REMARK  3 active torsions:
REMARK  status: ('A' for Active; 'I' for Inactive)
REMARK    1  A    between atoms: C_3  and  C_4 
REMARK       I    between atoms: C_4  and  N_5 
REMARK    2  A    between atoms: N_5  and  C_6 
REMARK    3  A    between atoms: C_13  and  C_14 
REMARK       I    between atoms: C_14  and  N_15 
ROOT
HETATM    1  C   UNL     1       6.729  25.707  56.216  1.00  0.00     0.262 C 
HETATM    2  N   UNL     1       7.461  26.877  56.192  1.00  0.00    -0.323 N 
HETATM    3  O   UNL     1       5.562  25.622  56.587  1.00  0.00    -0.267 OA
HETATM    4  H   UNL     1       8.452  26.787  55.967  1.00  0.00     0.169 HD
ENDROOT
BRANCH   2   5
HETATM    5  C   UNL     1       7.059  28.165  56.611  1.00  0.00     0.036 A 
HETATM    6  C   UNL     1       7.527  28.795  57.771  1.00  0.00     0.046 A 
HETATM    7  C   UNL     1       7.099  30.107  58.075  1.00  0.00     0.030 A 
HETATM    8  C   UNL     1       6.205  30.736  57.218  1.00  0.00     0.063 A 
HETATM    9  C   UNL     1       7.358  31.062  59.105  1.00  0.00     0.156 A 
HETATM   10  N   UNL     1       5.991  31.972  57.759  1.00  0.00    -0.277 N 
HETATM   11  C   UNL     1       5.700  30.131  56.066  1.00  0.00     0.034 A 
HETATM   12  H   UNL     1       5.395  32.705  57.395  1.00  0.00     0.189 HD
HETATM   13  N   UNL     1       6.670  32.208  58.894  1.00  0.00    -0.168 NA
HETATM   14  C   UNL     1       6.148  28.836  55.782  1.00  0.00     0.032 A 
BRANCH   9  15
HETATM   15  C   UNL     1       8.243  30.910  60.268  1.00  0.00     0.270 C 
HETATM   16  N   UNL     1       7.586  30.875  61.467  1.00  0.00    -0.365 N 
HETATM   17  H   UNL     1       6.577  30.959  61.470  1.00  0.00     0.159 HD
HETATM   18  H   UNL     1       8.111  30.788  62.323  1.00  0.00     0.159 HD
HETATM   19  O   UNL     1       9.465  30.824  60.212  1.00  0.00    -0.266 OA
ENDBRANCH   9  15
ENDBRANCH   2   5
BRANCH   1  20
HETATM   20  C   UNL     1       7.489  24.459  55.814  1.00  0.00     0.114 C 
HETATM   21  C   UNL     1       7.332  23.934  54.572  1.00  0.00    -0.027 C 
HETATM   22  C   UNL     1       6.631  24.636  53.431  1.00  0.00     0.050 C 
HETATM   23  C   UNL     1       7.869  22.585  54.292  1.00  0.00     0.005 A 
HETATM   24  C   UNL     1       8.622  21.940  55.269  1.00  0.00     0.090 A 
HETATM   25  C   UNL     1       7.618  21.871  53.109  1.00  0.00     0.015 A 
HETATM   26  O   UNL     1       8.897  22.555  56.495  1.00  0.00    -0.274 OA
HETATM   27  C   UNL     1       9.136  20.653  55.098  1.00  0.00     0.038 A 
HETATM   28  C   UNL     1       8.370  23.793  56.806  1.00  0.00     0.304 C 
HETATM   29  O   UNL     1       8.671  24.338  57.868  1.00  0.00    -0.259 OA
HETATM   30  C   UNL     1       8.883  19.968  53.915  1.00  0.00     0.003 A 
HETATM   31  C   UNL     1       8.123  20.577  52.921  1.00  0.00     0.001 A 
ENDBRANCH   1  20
TORSDOF 3
ENDMDL
MODEL 2
REMARK VINA RESULT:     -10.4      1.985      2.935
REMARK  3 active torsions:
REMARK  status: ('A' for Active; 'I' for Inactive)
REMARK    1  A    between atoms: C_3  and  C_4 
REMARK       I    between atoms: C_4  and  N_5 
REMARK    2  A    between atoms: N_5  and  C_6 
REMARK    3  A    between atoms: C_13  and  C_14 
REMARK       I    between atoms: C_14  and  N_15 
ROOT
HETATM    1  C   UNL     1       7.884  26.520  56.987  1.00  0.00     0.262 C 
HETATM    2  N   UNL     1       8.371  27.687  56.436  1.00  0.00    -0.323 N 
HETATM    3  O   UNL     1       7.711  26.334  58.189  1.00  0.00    -0.267 OA
HETATM    4  H   UNL     1       8.571  27.667  55.435  1.00  0.00     0.169 HD
ENDROOT
BRANCH   2   5
HETATM    5  C   UNL     1       8.800  28.854  57.106  1.00  0.00     0.036 A 
HETATM    6  C   UNL     1       7.970  29.649  57.907  1.00  0.00     0.046 A 
HETATM    7  C   UNL     1       8.510  30.771  58.575  1.00  0.00     0.030 A 
HETATM    8  C   UNL     1       9.856  31.068  58.405  1.00  0.00     0.063 A 
HETATM    9  C   UNL     1       8.020  31.773  59.466  1.00  0.00     0.156 A 
HETATM   10  N   UNL     1      10.083  32.178  59.169  1.00  0.00    -0.277 N 
HETATM   11  C   UNL     1      10.708  30.312  57.598  1.00  0.00     0.034 A 
HETATM   12  H   UNL     1      10.959  32.672  59.288  1.00  0.00     0.189 HD
HETATM   13  N   UNL     1       9.002  32.632  59.826  1.00  0.00    -0.168 NA
HETATM   14  C   UNL     1      10.151  29.201  56.956  1.00  0.00     0.032 A 
BRANCH   9  15
HETATM   15  C   UNL     1       6.653  31.924  59.983  1.00  0.00     0.270 C 
HETATM   16  N   UNL     1       6.540  31.713  61.330  1.00  0.00    -0.365 N 
HETATM   17  H   UNL     1       7.373  31.470  61.854  1.00  0.00     0.159 HD
HETATM   18  H   UNL     1       5.638  31.781  61.773  1.00  0.00     0.159 HD
HETATM   19  O   UNL     1       5.673  32.209  59.303  1.00  0.00    -0.266 OA
ENDBRANCH   9  15
ENDBRANCH   2   5
BRANCH   1  20
HETATM   20  C   UNL     1       7.627  25.396  56.003  1.00  0.00     0.114 C 
HETATM   21  C   UNL     1       8.127  24.156  56.236  1.00  0.00    -0.027 C 
HETATM   22  C   UNL     1       8.730  23.712  57.549  1.00  0.00     0.050 C 
HETATM   23  C   UNL     1       8.093  23.153  55.149  1.00  0.00     0.005 A 
HETATM   24  C   UNL     1       7.446  23.469  53.958  1.00  0.00     0.090 A 
HETATM   25  C   UNL     1       8.730  21.903  55.215  1.00  0.00     0.015 A 
HETATM   26  O   UNL     1       6.811  24.703  53.784  1.00  0.00    -0.274 OA
HETATM   27  C   UNL     1       7.398  22.594  52.871  1.00  0.00     0.038 A 
HETATM   28  C   UNL     1       6.865  25.678  54.759  1.00  0.00     0.304 C 
HETATM   29  O   UNL     1       6.253  26.734  54.606  1.00  0.00    -0.259 OA
HETATM   30  C   UNL     1       8.028  21.358  52.961  1.00  0.00     0.003 A 
HETATM   31  C   UNL     1       8.696  21.013  54.133  1.00  0.00     0.001 A 
ENDBRANCH   1  20
TORSDOF 3
ENDMDL
MODEL 3
REMARK VINA RESULT:     -10.2      2.516      2.832
REMARK  3 active torsions:
REMARK  status: ('A' for Active; 'I' for Inactive)
REMARK    1  A    between atoms: C_3  and  C_4 
REMARK       I    between atoms: C_4  and  N_5 
REMARK    2  A    between atoms: N_5  and  C_6 
REMARK    3  A    between atoms: C_13  and  C_14 
REMARK       I    between atoms: C_14  and  N_15 
ROOT
HETATM    1  C   UNL     1       7.097  26.509  54.762  1.00  0.00     0.262 C 
HETATM    2  N   UNL     1       5.847  26.699  55.314  1.00  0.00    -0.323 N 
HETATM    3  O   UNL     1       7.730  27.370  54.156  1.00  0.00    -0.267 OA
HETATM    4  H   UNL     1       5.388  25.870  55.692  1.00  0.00     0.169 HD
ENDROOT
BRANCH   2   5
HETATM    5  C   UNL     1       5.041  27.858  55.268  1.00  0.00     0.036 A 
HETATM    6  C   UNL     1       4.810  28.698  56.365  1.00  0.00     0.046 A 
HETATM    7  C   UNL     1       4.027  29.863  56.200  1.00  0.00     0.030 A 
HETATM    8  C   UNL     1       3.488  30.137  54.949  1.00  0.00     0.063 A 
HETATM    9  C   UNL     1       3.600  30.943  57.031  1.00  0.00     0.156 A 
HETATM   10  N   UNL     1       2.804  31.310  55.097  1.00  0.00    -0.277 N 
HETATM   11  C   UNL     1       3.679  29.311  53.840  1.00  0.00     0.034 A 
HETATM   12  H   UNL     1       2.287  31.812  54.385  1.00  0.00     0.189 HD
HETATM   13  N   UNL     1       2.850  31.829  56.336  1.00  0.00    -0.168 NA
HETATM   14  C   UNL     1       4.467  28.171  54.027  1.00  0.00     0.032 A 
BRANCH   9  15
HETATM   15  C   UNL     1       3.896  31.152  58.455  1.00  0.00     0.270 C 
HETATM   16  N   UNL     1       3.111  30.418  59.301  1.00  0.00    -0.365 N 
HETATM   17  H   UNL     1       2.403  29.812  58.902  1.00  0.00     0.159 HD
HETATM   18  H   UNL     1       3.231  30.505  60.297  1.00  0.00     0.159 HD
HETATM   19  O   UNL     1       4.759  31.908  58.888  1.00  0.00    -0.266 OA
ENDBRANCH   9  15
ENDBRANCH   2   5
BRANCH   1  20
HETATM   20  C   UNL     1       7.650  25.103  54.878  1.00  0.00     0.114 C 
HETATM   21  C   UNL     1       7.733  24.309  53.780  1.00  0.00    -0.027 C 
HETATM   22  C   UNL     1       7.547  24.793  52.360  1.00  0.00     0.050 C 
HETATM   23  C   UNL     1       8.022  22.869  53.958  1.00  0.00     0.005 A 
HETATM   24  C   UNL     1       8.316  22.390  55.231  1.00  0.00     0.090 A 
HETATM   25  C   UNL     1       7.961  21.923  52.921  1.00  0.00     0.015 A 
HETATM   26  O   UNL     1       8.366  23.249  56.334  1.00  0.00    -0.274 OA
HETATM   27  C   UNL     1       8.565  21.041  55.490  1.00  0.00     0.038 A 
HETATM   28  C   UNL     1       8.055  24.588  56.211  1.00  0.00     0.304 C 
HETATM   29  O   UNL     1       8.159  25.334  57.184  1.00  0.00    -0.259 OA
HETATM   30  C   UNL     1       8.509  20.123  54.448  1.00  0.00     0.003 A 
HETATM   31  C   UNL     1       8.205  20.564  53.163  1.00  0.00     0.001 A 
ENDBRANCH   1  20
TORSDOF 3
ENDMDL
MODEL 4
REMARK VINA RESULT:     -10.2      4.570      6.856
REMARK  3 active torsions:
REMARK  status: ('A' for Active; 'I' for Inactive)
REMARK    1  A    between atoms: C_3  and  C_4 
REMARK       I    between atoms: C_4  and  N_5 
REMARK    2  A    between atoms: N_5  and  C_6 
REMARK    3  A    between atoms: C_13  and  C_14 
REMARK       I    between atoms: C_14  and  N_15 
ROOT
HETATM    1  C   UNL     1       7.008  26.136  53.804  1.00  0.00     0.262 C 
HETATM    2  N   UNL     1       5.767  25.974  53.223  1.00  0.00    -0.323 N 
HETATM    3  O   UNL     1       7.715  27.131  53.675  1.00  0.00    -0.267 OA
HETATM    4  H   UNL     1       5.336  25.055  53.321  1.00  0.00     0.169 HD
ENDROOT
BRANCH   2   5
HETATM    5  C   UNL     1       5.090  26.860  52.355  1.00  0.00     0.036 A 
HETATM    6  C   UNL     1       5.137  26.779  50.957  1.00  0.00     0.046 A 
HETATM    7  C   UNL     1       4.382  27.686  50.179  1.00  0.00     0.030 A 
HETATM    8  C   UNL     1       3.621  28.651  50.825  1.00  0.00     0.063 A 
HETATM    9  C   UNL     1       4.151  27.904  48.787  1.00  0.00     0.156 A 
HETATM   10  N   UNL     1       3.008  29.357  49.830  1.00  0.00    -0.277 N 
HETATM   11  C   UNL     1       3.567  28.776  52.215  1.00  0.00     0.034 A 
HETATM   12  H   UNL     1       2.370  30.138  49.934  1.00  0.00     0.189 HD
HETATM   13  N   UNL     1       3.299  28.936  48.587  1.00  0.00    -0.168 NA
HETATM   14  C   UNL     1       4.315  27.860  52.961  1.00  0.00     0.032 A 
BRANCH   9  15
HETATM   15  C   UNL     1       4.712  27.153  47.655  1.00  0.00     0.270 C 
HETATM   16  N   UNL     1       5.895  27.654  47.185  1.00  0.00    -0.365 N 
HETATM   17  H   UNL     1       6.282  28.480  47.627  1.00  0.00     0.159 HD
HETATM   18  H   UNL     1       6.348  27.214  46.401  1.00  0.00     0.159 HD
HETATM   19  O   UNL     1       4.197  26.163  47.147  1.00  0.00    -0.266 OA
ENDBRANCH   9  15
ENDBRANCH   2   5
BRANCH   1  20
HETATM   20  C   UNL     1       7.515  24.942  54.589  1.00  0.00     0.114 C 
HETATM   21  C   UNL     1       7.868  23.801  53.945  1.00  0.00    -0.027 C 
HETATM   22  C   UNL     1       8.039  23.684  52.448  1.00  0.00     0.050 C 
HETATM   23  C   UNL     1       8.104  22.574  54.738  1.00  0.00     0.005 A 
HETATM   24  C   UNL     1       8.073  22.651  56.127  1.00  0.00     0.090 A 
HETATM   25  C   UNL     1       8.302  21.303  54.175  1.00  0.00     0.015 A 
HETATM   26  O   UNL     1       7.848  23.867  56.781  1.00  0.00    -0.274 OA
HETATM   27  C   UNL     1       8.251  21.536  56.948  1.00  0.00     0.038 A 
HETATM   28  C   UNL     1       7.577  25.020  56.071  1.00  0.00     0.304 C 
HETATM   29  O   UNL     1       7.437  26.088  56.666  1.00  0.00    -0.259 OA
HETATM   30  C   UNL     1       8.455  20.288  56.370  1.00  0.00     0.003 A 
HETATM   31  C   UNL     1       8.479  20.172  54.983  1.00  0.00     0.001 A 
ENDBRANCH   1  20
TORSDOF 3
ENDMDL
MODEL 5
REMARK VINA RESULT:      -9.9      4.794     10.118
REMARK  3 active torsions:
REMARK  status: ('A' for Active; 'I' for Inactive)
REMARK    1  A    between atoms: C_3  and  C_4 
REMARK       I    between atoms: C_4  and  N_5 
REMARK    2  A    between atoms: N_5  and  C_6 
REMARK    3  A    between atoms: C_13  and  C_14 
REMARK       I    between atoms: C_14  and  N_15 
ROOT
HETATM    1  C   UNL     1       7.035  31.829  60.033  1.00  0.00     0.262 C 
HETATM    2  N   UNL     1       7.445  30.555  59.701  1.00  0.00    -0.323 N 
HETATM    3  O   UNL     1       6.745  32.703  59.221  1.00  0.00    -0.267 OA
HETATM    4  H   UNL     1       7.762  29.965  60.471  1.00  0.00     0.169 HD
ENDROOT
BRANCH   2   5
HETATM    5  C   UNL     1       7.655  30.015  58.412  1.00  0.00     0.036 A 
HETATM    6  C   UNL     1       6.638  29.482  57.610  1.00  0.00     0.046 A 
HETATM    7  C   UNL     1       6.946  29.012  56.313  1.00  0.00     0.030 A 
HETATM    8  C   UNL     1       8.261  29.076  55.871  1.00  0.00     0.063 A 
HETATM    9  C   UNL     1       6.217  28.446  55.223  1.00  0.00     0.156 A 
HETATM   10  N   UNL     1       8.243  28.570  54.603  1.00  0.00    -0.277 N 
HETATM   11  C   UNL     1       9.303  29.581  56.651  1.00  0.00     0.034 A 
HETATM   12  H   UNL     1       9.030  28.467  53.972  1.00  0.00     0.189 HD
HETATM   13  N   UNL     1       7.030  28.182  54.175  1.00  0.00    -0.168 NA
HETATM   14  C   UNL     1       8.970  30.049  57.926  1.00  0.00     0.032 A 
BRANCH   9  15
HETATM   15  C   UNL     1       4.777  28.162  55.157  1.00  0.00     0.270 C 
HETATM   16  N   UNL     1       4.299  27.448  56.221  1.00  0.00    -0.365 N 
HETATM   17  H   UNL     1       4.948  27.169  56.948  1.00  0.00     0.159 HD
HETATM   18  H   UNL     1       3.325  27.194  56.257  1.00  0.00     0.159 HD
HETATM   19  O   UNL     1       4.034  28.513  54.246  1.00  0.00    -0.266 OA
ENDBRANCH   9  15
ENDBRANCH   2   5
BRANCH   1  20
HETATM   20  C   UNL     1       7.027  32.141  61.517  1.00  0.00     0.114 C 
HETATM   21  C   UNL     1       5.855  32.382  62.157  1.00  0.00    -0.027 C 
HETATM   22  C   UNL     1       4.489  32.122  61.565  1.00  0.00     0.050 C 
HETATM   23  C   UNL     1       5.889  32.939  63.528  1.00  0.00     0.005 A 
HETATM   24  C   UNL     1       7.117  33.091  64.165  1.00  0.00     0.090 A 
HETATM   25  C   UNL     1       4.753  33.389  64.220  1.00  0.00     0.015 A 
HETATM   26  O   UNL     1       8.309  32.704  63.544  1.00  0.00    -0.274 OA
HETATM   27  C   UNL     1       7.240  33.641  65.443  1.00  0.00     0.038 A 
HETATM   28  C   UNL     1       8.316  32.226  62.249  1.00  0.00     0.304 C 
HETATM   29  O   UNL     1       9.370  31.841  61.743  1.00  0.00    -0.259 OA
HETATM   30  C   UNL     1       6.101  34.071  66.115  1.00  0.00     0.003 A 
HETATM   31  C   UNL     1       4.857  33.947  65.501  1.00  0.00     0.001 A 
ENDBRANCH   1  20
TORSDOF 3
ENDMDL
MODEL 6
REMARK VINA RESULT:      -9.9      2.812      3.588
REMARK  3 active torsions:
REMARK  status: ('A' for Active; 'I' for Inactive)
REMARK    1  A    between atoms: C_3  and  C_4 
REMARK       I    between atoms: C_4  and  N_5 
REMARK    2  A    between atoms: N_5  and  C_6 
REMARK    3  A    between atoms: C_13  and  C_14 
REMARK       I    between atoms: C_14  and  N_15 
ROOT
HETATM    1  C   UNL     1       6.379  26.455  54.612  1.00  0.00     0.262 C 
HETATM    2  N   UNL     1       5.043  26.776  54.728  1.00  0.00    -0.323 N 
HETATM    3  O   UNL     1       7.297  27.271  54.625  1.00  0.00    -0.267 OA
HETATM    4  H   UNL     1       4.379  26.014  54.589  1.00  0.00     0.169 HD
ENDROOT
BRANCH   2   5
HETATM    5  C   UNL     1       4.461  28.059  54.838  1.00  0.00     0.036 A 
HETATM    6  C   UNL     1       4.330  28.760  56.044  1.00  0.00     0.046 A 
HETATM    7  C   UNL     1       3.778  30.061  56.037  1.00  0.00     0.030 A 
HETATM    8  C   UNL     1       3.362  30.608  54.830  1.00  0.00     0.063 A 
HETATM    9  C   UNL     1       3.511  31.071  57.012  1.00  0.00     0.156 A 
HETATM   10  N   UNL     1       2.893  31.854  55.138  1.00  0.00    -0.277 N 
HETATM   11  C   UNL     1       3.457  29.930  53.614  1.00  0.00     0.034 A 
HETATM   12  H   UNL     1       2.512  32.541  54.498  1.00  0.00     0.189 HD
HETATM   13  N   UNL     1       2.969  32.171  56.441  1.00  0.00    -0.168 NA
HETATM   14  C   UNL     1       4.017  28.648  53.645  1.00  0.00     0.032 A 
BRANCH   9  15
HETATM   15  C   UNL     1       3.767  31.014  58.457  1.00  0.00     0.270 C 
HETATM   16  N   UNL     1       5.094  30.975  58.787  1.00  0.00    -0.365 N 
HETATM   17  H   UNL     1       5.780  30.980  58.041  1.00  0.00     0.159 HD
HETATM   18  H   UNL     1       5.368  30.920  59.755  1.00  0.00     0.159 HD
HETATM   19  O   UNL     1       2.899  30.997  59.323  1.00  0.00    -0.266 OA
ENDBRANCH   9  15
ENDBRANCH   2   5
BRANCH   1  20
HETATM   20  C   UNL     1       6.675  24.986  54.383  1.00  0.00     0.114 C 
HETATM   21  C   UNL     1       7.074  24.201  55.415  1.00  0.00    -0.027 C 
HETATM   22  C   UNL     1       7.016  24.609  56.870  1.00  0.00     0.050 C 
HETATM   23  C   UNL     1       7.608  22.852  55.126  1.00  0.00     0.005 A 
HETATM   24  C   UNL     1       7.577  22.380  53.816  1.00  0.00     0.090 A 
HETATM   25  C   UNL     1       8.207  22.022  56.087  1.00  0.00     0.015 A 
HETATM   26  O   UNL     1       7.031  23.147  52.782  1.00  0.00    -0.274 OA
HETATM   27  C   UNL     1       8.092  21.134  53.452  1.00  0.00     0.038 A 
HETATM   28  C   UNL     1       6.569  24.428  53.011  1.00  0.00     0.304 C 
HETATM   29  O   UNL     1       6.043  25.063  52.097  1.00  0.00    -0.259 OA
HETATM   30  C   UNL     1       8.673  20.324  54.422  1.00  0.00     0.003 A 
HETATM   31  C   UNL     1       8.732  20.770  55.739  1.00  0.00     0.001 A 
ENDBRANCH   1  20
TORSDOF 3
ENDMDL
MODEL 7
REMARK VINA RESULT:      -9.7      2.818      8.713
REMARK  3 active torsions:
REMARK  status: ('A' for Active; 'I' for Inactive)
REMARK    1  A    between atoms: C_3  and  C_4 
REMARK       I    between atoms: C_4  and  N_5 
REMARK    2  A    between atoms: N_5  and  C_6 
REMARK    3  A    between atoms: C_13  and  C_14 
REMARK       I    between atoms: C_14  and  N_15 
ROOT
HETATM    1  C   UNL     1       7.817  28.041  55.255  1.00  0.00     0.262 C 
HETATM    2  N   UNL     1       7.419  26.788  55.672  1.00  0.00    -0.323 N 
HETATM    3  O   UNL     1       8.303  28.290  54.155  1.00  0.00    -0.267 OA
HETATM    4  H   UNL     1       7.137  26.702  56.648  1.00  0.00     0.169 HD
ENDROOT
BRANCH   2   5
HETATM    5  C   UNL     1       7.519  25.565  54.971  1.00  0.00     0.036 A 
HETATM    6  C   UNL     1       7.921  24.356  55.555  1.00  0.00     0.046 A 
HETATM    7  C   UNL     1       7.940  23.177  54.776  1.00  0.00     0.030 A 
HETATM    8  C   UNL     1       7.573  23.251  53.439  1.00  0.00     0.063 A 
HETATM    9  C   UNL     1       8.249  21.801  55.000  1.00  0.00     0.156 A 
HETATM   10  N   UNL     1       7.679  21.975  52.962  1.00  0.00    -0.277 N 
HETATM   11  C   UNL     1       7.189  24.441  52.818  1.00  0.00     0.034 A 
HETATM   12  H   UNL     1       7.484  21.654  52.021  1.00  0.00     0.189 HD
HETATM   13  N   UNL     1       8.080  21.072  53.872  1.00  0.00    -0.168 NA
HETATM   14  C   UNL     1       7.169  25.591  53.614  1.00  0.00     0.032 A 
BRANCH   9  15
HETATM   15  C   UNL     1       8.689  21.171  56.252  1.00  0.00     0.270 C 
HETATM   16  N   UNL     1       9.592  20.159  56.080  1.00  0.00    -0.365 N 
HETATM   17  H   UNL     1       9.878  19.919  55.138  1.00  0.00     0.159 HD
HETATM   18  H   UNL     1       9.941  19.657  56.881  1.00  0.00     0.159 HD
HETATM   19  O   UNL     1       8.302  21.491  57.371  1.00  0.00    -0.266 OA
ENDBRANCH   9  15
ENDBRANCH   2   5
BRANCH   1  20
HETATM   20  C   UNL     1       7.690  29.139  56.293  1.00  0.00     0.114 C 
HETATM   21  C   UNL     1       8.801  29.683  56.851  1.00  0.00    -0.027 C 
HETATM   22  C   UNL     1      10.208  29.460  56.344  1.00  0.00     0.050 C 
HETATM   23  C   UNL     1       8.654  30.552  58.039  1.00  0.00     0.005 A 
HETATM   24  C   UNL     1       7.376  30.884  58.479  1.00  0.00     0.090 A 
HETATM   25  C   UNL     1       9.733  31.028  58.802  1.00  0.00     0.015 A 
HETATM   26  O   UNL     1       6.237  30.431  57.807  1.00  0.00    -0.274 OA
HETATM   27  C   UNL     1       7.149  31.670  59.611  1.00  0.00     0.038 A 
HETATM   28  C   UNL     1       6.339  29.579  56.725  1.00  0.00     0.304 C 
HETATM   29  O   UNL     1       5.326  29.237  56.115  1.00  0.00    -0.259 OA
HETATM   30  C   UNL     1       8.233  32.138  60.347  1.00  0.00     0.003 A 
HETATM   31  C   UNL     1       9.525  31.815  59.943  1.00  0.00     0.001 A 
ENDBRANCH   1  20
TORSDOF 3
ENDMDL
MODEL 8
REMARK VINA RESULT:      -9.5      1.582      2.315
REMARK  3 active torsions:
REMARK  status: ('A' for Active; 'I' for Inactive)
REMARK    1  A    between atoms: C_3  and  C_4 
REMARK       I    between atoms: C_4  and  N_5 
REMARK    2  A    between atoms: N_5  and  C_6 
REMARK    3  A    between atoms: C_13  and  C_14 
REMARK       I    between atoms: C_14  and  N_15 
ROOT
HETATM    1  C   UNL     1       5.602  26.632  55.997  1.00  0.00     0.262 C 
HETATM    2  N   UNL     1       6.422  27.738  55.900  1.00  0.00    -0.323 N 
HETATM    3  O   UNL     1       4.558  26.592  56.642  1.00  0.00    -0.267 OA
HETATM    4  H   UNL     1       7.314  27.600  55.424  1.00  0.00     0.169 HD
ENDROOT
BRANCH   2   5
HETATM    5  C   UNL     1       6.268  28.994  56.528  1.00  0.00     0.036 A 
HETATM    6  C   UNL     1       6.911  29.360  57.718  1.00  0.00     0.046 A 
HETATM    7  C   UNL     1       6.728  30.662  58.237  1.00  0.00     0.030 A 
HETATM    8  C   UNL     1       5.896  31.544  57.559  1.00  0.00     0.063 A 
HETATM    9  C   UNL     1       7.209  31.398  59.362  1.00  0.00     0.156 A 
HETATM   10  N   UNL     1       5.927  32.702  58.284  1.00  0.00    -0.277 N 
HETATM   11  C   UNL     1       5.222  31.206  56.385  1.00  0.00     0.034 A 
HETATM   12  H   UNL     1       5.437  33.565  58.080  1.00  0.00     0.189 HD
HETATM   13  N   UNL     1       6.709  32.655  59.375  1.00  0.00    -0.168 NA
HETATM   14  C   UNL     1       5.429  29.915  55.885  1.00  0.00     0.032 A 
BRANCH   9  15
HETATM   15  C   UNL     1       8.132  30.937  60.409  1.00  0.00     0.270 C 
HETATM   16  N   UNL     1       7.584  30.908  61.662  1.00  0.00    -0.365 N 
HETATM   17  H   UNL     1       6.621  31.202  61.777  1.00  0.00     0.159 HD
HETATM   18  H   UNL     1       8.145  30.619  62.447  1.00  0.00     0.159 HD
HETATM   19  O   UNL     1       9.296  30.603  60.219  1.00  0.00    -0.266 OA
ENDBRANCH   9  15
ENDBRANCH   2   5
BRANCH   1  20
HETATM   20  C   UNL     1       6.110  25.386  55.298  1.00  0.00     0.114 C 
HETATM   21  C   UNL     1       7.039  24.598  55.896  1.00  0.00    -0.027 C 
HETATM   22  C   UNL     1       7.452  24.715  57.346  1.00  0.00     0.050 C 
HETATM   23  C   UNL     1       7.709  23.548  55.098  1.00  0.00     0.005 A 
HETATM   24  C   UNL     1       7.286  23.319  53.792  1.00  0.00     0.090 A 
HETATM   25  C   UNL     1       8.800  22.792  55.555  1.00  0.00     0.015 A 
HETATM   26  O   UNL     1       6.229  24.045  53.235  1.00  0.00    -0.274 OA
HETATM   27  C   UNL     1       7.888  22.373  52.960  1.00  0.00     0.038 A 
HETATM   28  C   UNL     1       5.614  25.064  53.936  1.00  0.00     0.304 C 
HETATM   29  O   UNL     1       4.651  25.652  53.446  1.00  0.00    -0.259 OA
HETATM   30  C   UNL     1       8.961  21.629  53.436  1.00  0.00     0.003 A 
HETATM   31  C   UNL     1       9.419  21.840  54.733  1.00  0.00     0.001 A 
ENDBRANCH   1  20
TORSDOF 3
ENDMDL
MODEL 9
REMARK VINA RESULT:      -9.4      4.026      9.847
REMARK  3 active torsions:
REMARK  status: ('A' for Active; 'I' for Inactive)
REMARK    1  A    between atoms: C_3  and  C_4 
REMARK       I    between atoms: C_4  and  N_5 
REMARK    2  A    between atoms: N_5  and  C_6 
REMARK    3  A    between atoms: C_13  and  C_14 
REMARK       I    between atoms: C_14  and  N_15 
ROOT
HETATM    1  C   UNL     1       7.744  31.001  58.819  1.00  0.00     0.262 C 
HETATM    2  N   UNL     1       6.792  30.051  58.508  1.00  0.00    -0.323 N 
HETATM    3  O   UNL     1       8.856  31.070  58.302  1.00  0.00    -0.267 OA
HETATM    4  H   UNL     1       5.955  30.040  59.090  1.00  0.00     0.169 HD
ENDROOT
BRANCH   2   5
HETATM    5  C   UNL     1       6.902  28.973  57.601  1.00  0.00     0.036 A 
HETATM    6  C   UNL     1       6.130  28.843  56.439  1.00  0.00     0.046 A 
HETATM    7  C   UNL     1       6.353  27.750  55.572  1.00  0.00     0.030 A 
HETATM    8  C   UNL     1       7.326  26.817  55.905  1.00  0.00     0.063 A 
HETATM    9  C   UNL     1       5.816  27.296  54.329  1.00  0.00     0.156 A 
HETATM   10  N   UNL     1       7.317  25.903  54.890  1.00  0.00    -0.277 N 
HETATM   11  C   UNL     1       8.098  26.902  57.065  1.00  0.00     0.034 A 
HETATM   12  H   UNL     1       7.903  25.082  54.798  1.00  0.00     0.189 HD
HETATM   13  N   UNL     1       6.423  26.158  53.919  1.00  0.00    -0.168 NA
HETATM   14  C   UNL     1       7.865  27.999  57.901  1.00  0.00     0.032 A 
BRANCH   9  15
HETATM   15  C   UNL     1       4.756  27.922  53.527  1.00  0.00     0.270 C 
HETATM   16  N   UNL     1       3.709  27.089  53.239  1.00  0.00    -0.365 N 
HETATM   17  H   UNL     1       3.741  26.135  53.580  1.00  0.00     0.159 HD
HETATM   18  H   UNL     1       2.940  27.425  52.682  1.00  0.00     0.159 HD
HETATM   19  O   UNL     1       4.770  29.081  53.128  1.00  0.00    -0.266 OA
ENDBRANCH   9  15
ENDBRANCH   2   5
BRANCH   1  20
HETATM   20  C   UNL     1       7.364  31.958  59.931  1.00  0.00     0.114 C 
HETATM   21  C   UNL     1       8.055  31.955  61.099  1.00  0.00    -0.027 C 
HETATM   22  C   UNL     1       9.365  31.232  61.315  1.00  0.00     0.050 C 
HETATM   23  C   UNL     1       7.509  32.699  62.256  1.00  0.00     0.005 A 
HETATM   24  C   UNL     1       6.367  33.476  62.082  1.00  0.00     0.090 A 
HETATM   25  C   UNL     1       8.039  32.629  63.554  1.00  0.00     0.015 A 
HETATM   26  O   UNL     1       5.746  33.582  60.834  1.00  0.00    -0.274 OA
HETATM   27  C   UNL     1       5.769  34.181  63.129  1.00  0.00     0.038 A 
HETATM   28  C   UNL     1       6.201  32.863  59.746  1.00  0.00     0.304 C 
HETATM   29  O   UNL     1       5.673  33.015  58.646  1.00  0.00    -0.259 OA
HETATM   30  C   UNL     1       6.315  34.104  64.405  1.00  0.00     0.003 A 
HETATM   31  C   UNL     1       7.450  33.326  64.618  1.00  0.00     0.001 A 
ENDBRANCH   1  20
TORSDOF 3
ENDMDL
MODEL 10
REMARK VINA RESULT:      -9.0      3.894      5.300
REMARK  3 active torsions:
REMARK  status: ('A' for Active; 'I' for Inactive)
REMARK    1  A    between atoms: C_3  and  C_4 
REMARK       I    between atoms: C_4  and  N_5 
REMARK    2  A    between atoms: N_5  and  C_6 
REMARK    3  A    between atoms: C_13  and  C_14 
REMARK       I    between atoms: C_14  and  N_15 
ROOT
HETATM    1  C   UNL     1       5.661  25.523  53.879  1.00  0.00     0.262 C 
HETATM    2  N   UNL     1       6.083  26.825  54.055  1.00  0.00    -0.323 N 
HETATM    3  O   UNL     1       4.630  25.197  53.296  1.00  0.00    -0.267 OA
HETATM    4  H   UNL     1       6.898  26.960  54.653  1.00  0.00     0.169 HD
ENDROOT
BRANCH   2   5
HETATM    5  C   UNL     1       5.429  28.013  53.662  1.00  0.00     0.036 A 
HETATM    6  C   UNL     1       5.648  28.662  52.439  1.00  0.00     0.046 A 
HETATM    7  C   UNL     1       4.904  29.821  52.121  1.00  0.00     0.030 A 
HETATM    8  C   UNL     1       3.981  30.299  53.042  1.00  0.00     0.063 A 
HETATM    9  C   UNL     1       4.818  30.716  51.012  1.00  0.00     0.156 A 
HETATM   10  N   UNL     1       3.422  31.401  52.458  1.00  0.00    -0.277 N 
HETATM   11  C   UNL     1       3.753  29.692  54.278  1.00  0.00     0.034 A 
HETATM   12  H   UNL     1       2.704  32.002  52.844  1.00  0.00     0.189 HD
HETATM   13  N   UNL     1       3.898  31.683  51.233  1.00  0.00    -0.168 NA
HETATM   14  C   UNL     1       4.494  28.541  54.564  1.00  0.00     0.032 A 
BRANCH   9  15
HETATM   15  C   UNL     1       5.579  30.666  49.756  1.00  0.00     0.270 C 
HETATM   16  N   UNL     1       5.029  29.853  48.803  1.00  0.00    -0.365 N 
HETATM   17  H   UNL     1       4.174  29.357  49.024  1.00  0.00     0.159 HD
HETATM   18  H   UNL     1       5.488  29.744  47.913  1.00  0.00     0.159 HD
HETATM   19  O   UNL     1       6.619  31.279  49.542  1.00  0.00    -0.266 OA
ENDBRANCH   9  15
ENDBRANCH   2   5
BRANCH   1  20
HETATM   20  C   UNL     1       6.531  24.466  54.529  1.00  0.00     0.114 C 
HETATM   21  C   UNL     1       7.242  23.601  53.764  1.00  0.00    -0.027 C 
HETATM   22  C   UNL     1       7.448  23.750  52.273  1.00  0.00     0.050 C 
HETATM   23  C   UNL     1       7.867  22.423  54.405  1.00  0.00     0.005 A 
HETATM   24  C   UNL     1       7.808  22.297  55.789  1.00  0.00     0.090 A 
HETATM   25  C   UNL     1       8.476  21.375  53.696  1.00  0.00     0.015 A 
HETATM   26  O   UNL     1       7.192  23.272  56.581  1.00  0.00    -0.274 OA
HETATM   27  C   UNL     1       8.341  21.200  56.470  1.00  0.00     0.038 A 
HETATM   28  C   UNL     1       6.558  24.358  56.010  1.00  0.00     0.304 C 
HETATM   29  O   UNL     1       6.071  25.230  56.728  1.00  0.00    -0.259 OA
HETATM   30  C   UNL     1       8.948  20.177  55.749  1.00  0.00     0.003 A 
HETATM   31  C   UNL     1       9.013  20.265  54.361  1.00  0.00     0.001 A 
ENDBRANCH   1  20
TORSDOF 3
ENDMDL
