MODEL 1
REMARK VINA RESULT:      -9.1      0.000      0.000
REMARK  6 active torsions:
REMARK  status: ('A' for Active; 'I' for Inactive)
REMARK    1  A    between atoms: O_2  and  C_3 
REMARK    2  A    between atoms: C_6  and  C_7 
REMARK    3  A    between atoms: C_7  and  C_8 
REMARK    4  A    between atoms: C_8  and  C_9 
REMARK       I    between atoms: C_9  and  N_10 
REMARK    5  A    between atoms: N_10  and  N_11 
REMARK    6  A    between atoms: C_12  and  C_13 
ROOT
HETATM    1  C   UNL     1       9.509  31.662  59.579  1.00  0.00     0.237 C 
HETATM    2  N   UNL     1       8.846  30.445  59.496  1.00  0.00    -0.247 N 
HETATM    3  O   UNL     1      10.024  32.262  58.640  1.00  0.00    -0.272 OA
HETATM    4  H   UNL     1       8.435  30.024  60.320  1.00  0.00     0.192 HD
ENDROOT
BRANCH   2   5
HETATM    5  N   UNL     1       8.730  29.819  58.289  1.00  0.00    -0.184 NA
HETATM    6  C   UNL     1       7.768  28.961  58.186  1.00  0.00     0.152 C 
BRANCH   6   7
HETATM    7  C   UNL     1       7.569  28.253  56.939  1.00  0.00     0.011 A 
HETATM    8  C   UNL     1       7.732  26.850  56.698  1.00  0.00     0.004 A 
HETATM    9  C   UNL     1       7.432  26.622  55.353  1.00  0.00     0.043 A 
HETATM   10  C   UNL     1       8.112  25.749  57.495  1.00  0.00     0.014 A 
HETATM   11  C   UNL     1       7.489  25.351  54.767  1.00  0.00     0.030 A 
HETATM   12  N   UNL     1       7.099  27.836  54.798  1.00  0.00    -0.364 N 
HETATM   13  C   UNL     1       7.868  24.279  55.580  1.00  0.00     0.002 A 
HETATM   14  C   UNL     1       8.175  24.472  56.923  1.00  0.00     0.001 A 
HETATM   15  H   UNL     1       6.835  27.975  53.833  1.00  0.00     0.165 HD
HETATM   16  C   UNL     1       7.181  28.822  55.741  1.00  0.00     0.102 A 
ENDBRANCH   6   7
ENDBRANCH   2   5
BRANCH   1  17
HETATM   17  C   UNL     1       9.578  32.200  60.991  1.00  0.00     0.109 C 
BRANCH  17  18
HETATM   18  C   UNL     1       8.950  31.210  61.966  1.00  0.00     0.048 C 
BRANCH  18  19
HETATM   19  C   UNL     1       7.802  31.823  62.727  1.00  0.00    -0.058 A 
HETATM   20  C   UNL     1       6.481  31.449  62.462  1.00  0.00     0.010 A 
HETATM   21  C   UNL     1       5.430  32.029  63.176  1.00  0.00     0.037 A 
HETATM   22  C   UNL     1       5.676  32.988  64.160  1.00  0.00     0.068 A 
HETATM   23  C   UNL     1       6.991  33.376  64.417  1.00  0.00     0.037 A 
HETATM   24  C   UNL     1       8.047  32.796  63.705  1.00  0.00     0.010 A 
BRANCH  22  25
HETATM   25  O   UNL     1       4.560  33.468  64.787  1.00  0.00    -0.356 OA
HETATM   26  C   UNL     1       4.708  33.861  66.146  1.00  0.00     0.210 C 
ENDBRANCH  22  25
ENDBRANCH  18  19
ENDBRANCH  17  18
ENDBRANCH   1  17
TORSDOF 6
ENDMDL
MODEL 2
REMARK VINA RESULT:      -8.7      2.451      3.967
REMARK  6 active torsions:
REMARK  status: ('A' for Active; 'I' for Inactive)
REMARK    1  A    between atoms: O_2  and  C_3 
REMARK    2  A    between atoms: C_6  and  C_7 
REMARK    3  A    between atoms: C_7  and  C_8 
REMARK    4  A    between atoms: C_8  and  C_9 
REMARK       I    between atoms: C_9  and  N_10 
REMARK    5  A    between atoms: N_10  and  N_11 
REMARK    6  A    between atoms: C_12  and  C_13 
ROOT
HETATM    1  C   UNL     1       8.136  28.197  57.109  1.00  0.00     0.237 C 
HETATM    2  N   UNL     1       7.725  26.880  57.262  1.00  0.00    -0.247 N 
HETATM    3  O   UNL     1       8.817  28.632  56.185  1.00  0.00    -0.272 OA
HETATM    4  H   UNL     1       7.150  26.607  58.050  1.00  0.00     0.192 HD
ENDROOT
BRANCH   2   5
HETATM    5  N   UNL     1       8.082  25.948  56.332  1.00  0.00    -0.184 NA
HETATM    6  C   UNL     1       7.177  25.644  55.458  1.00  0.00     0.152 C 
BRANCH   6   7
HETATM    7  C   UNL     1       7.471  24.668  54.431  1.00  0.00     0.011 A 
HETATM    8  C   UNL     1       7.624  23.252  54.593  1.00  0.00     0.004 A 
HETATM    9  C   UNL     1       7.901  22.717  53.334  1.00  0.00     0.043 A 
HETATM   10  C   UNL     1       7.558  22.372  55.694  1.00  0.00     0.014 A 
HETATM   11  C   UNL     1       8.110  21.349  53.119  1.00  0.00     0.030 A 
HETATM   12  N   UNL     1       7.916  23.763  52.441  1.00  0.00    -0.364 N 
HETATM   13  C   UNL     1       8.039  20.500  54.228  1.00  0.00     0.002 A 
HETATM   14  C   UNL     1       7.767  21.001  55.497  1.00  0.00     0.001 A 
HETATM   15  H   UNL     1       8.091  23.672  51.450  1.00  0.00     0.165 HD
HETATM   16  C   UNL     1       7.662  24.939  53.090  1.00  0.00     0.102 A 
ENDBRANCH   6   7
ENDBRANCH   2   5
BRANCH   1  17
HETATM   17  C   UNL     1       7.686  29.090  58.244  1.00  0.00     0.109 C 
BRANCH  17  18
HETATM   18  C   UNL     1       8.821  30.014  58.672  1.00  0.00     0.048 C 
BRANCH  18  19
HETATM   19  C   UNL     1       8.418  30.906  59.818  1.00  0.00    -0.058 A 
HETATM   20  C   UNL     1       7.251  31.674  59.756  1.00  0.00     0.010 A 
HETATM   21  C   UNL     1       6.893  32.496  60.827  1.00  0.00     0.037 A 
HETATM   22  C   UNL     1       7.689  32.567  61.972  1.00  0.00     0.068 A 
HETATM   23  C   UNL     1       8.862  31.815  62.032  1.00  0.00     0.037 A 
HETATM   24  C   UNL     1       9.223  30.989  60.961  1.00  0.00     0.010 A 
BRANCH  22  25
HETATM   25  O   UNL     1       7.220  33.404  62.946  1.00  0.00    -0.356 OA
HETATM   26  C   UNL     1       7.604  33.107  64.283  1.00  0.00     0.210 C 
ENDBRANCH  22  25
ENDBRANCH  18  19
ENDBRANCH  17  18
ENDBRANCH   1  17
TORSDOF 6
ENDMDL
MODEL 3
REMARK VINA RESULT:      -8.6      1.917      2.975
REMARK  6 active torsions:
REMARK  status: ('A' for Active; 'I' for Inactive)
REMARK    1  A    between atoms: O_2  and  C_3 
REMARK    2  A    between atoms: C_6  and  C_7 
REMARK    3  A    between atoms: C_7  and  C_8 
REMARK    4  A    between atoms: C_8  and  C_9 
REMARK       I    between atoms: C_9  and  N_10 
REMARK    5  A    between atoms: N_10  and  N_11 
REMARK    6  A    between atoms: C_12  and  C_13 
ROOT
HETATM    1  C   UNL     1       8.412  29.640  58.035  1.00  0.00     0.237 C 
HETATM    2  N   UNL     1       7.638  28.490  58.093  1.00  0.00    -0.247 N 
HETATM    3  O   UNL     1       9.574  29.703  57.642  1.00  0.00    -0.272 OA
HETATM    4  H   UNL     1       6.679  28.529  58.418  1.00  0.00     0.192 HD
ENDROOT
BRANCH   2   5
HETATM    5  N   UNL     1       8.166  27.298  57.691  1.00  0.00    -0.184 NA
HETATM    6  C   UNL     1       7.412  26.572  56.929  1.00  0.00     0.152 C 
BRANCH   6   7
HETATM    7  C   UNL     1       7.895  25.294  56.452  1.00  0.00     0.011 A 
HETATM    8  C   UNL     1       7.755  24.747  55.135  1.00  0.00     0.004 A 
HETATM    9  C   UNL     1       8.374  23.495  55.137  1.00  0.00     0.043 A 
HETATM   10  C   UNL     1       7.156  25.195  53.939  1.00  0.00     0.014 A 
HETATM   11  C   UNL     1       8.427  22.672  54.006  1.00  0.00     0.030 A 
HETATM   12  N   UNL     1       8.871  23.288  56.403  1.00  0.00    -0.364 N 
HETATM   13  C   UNL     1       7.826  23.141  52.834  1.00  0.00     0.002 A 
HETATM   14  C   UNL     1       7.199  24.383  52.798  1.00  0.00     0.001 A 
HETATM   15  H   UNL     1       9.371  22.461  56.698  1.00  0.00     0.165 HD
HETATM   16  C   UNL     1       8.586  24.361  57.201  1.00  0.00     0.102 A 
ENDBRANCH   6   7
ENDBRANCH   2   5
BRANCH   1  17
HETATM   17  C   UNL     1       7.689  30.864  58.550  1.00  0.00     0.109 C 
BRANCH  17  18
HETATM   18  C   UNL     1       8.640  31.739  59.359  1.00  0.00     0.048 C 
BRANCH  18  19
HETATM   19  C   UNL     1       8.062  32.103  60.703  1.00  0.00    -0.058 A 
HETATM   20  C   UNL     1       6.763  32.609  60.815  1.00  0.00     0.010 A 
HETATM   21  C   UNL     1       6.244  32.942  62.068  1.00  0.00     0.037 A 
HETATM   22  C   UNL     1       7.008  32.778  63.226  1.00  0.00     0.068 A 
HETATM   23  C   UNL     1       8.309  32.288  63.118  1.00  0.00     0.037 A 
HETATM   24  C   UNL     1       8.832  31.952  61.864  1.00  0.00     0.010 A 
BRANCH  22  25
HETATM   25  O   UNL     1       6.377  33.135  64.385  1.00  0.00    -0.356 OA
HETATM   26  C   UNL     1       4.975  33.362  64.306  1.00  0.00     0.210 C 
ENDBRANCH  22  25
ENDBRANCH  18  19
ENDBRANCH  17  18
ENDBRANCH   1  17
TORSDOF 6
ENDMDL
MODEL 4
REMARK VINA RESULT:      -8.4      3.577     10.050
REMARK  6 active torsions:
REMARK  status: ('A' for Active; 'I' for Inactive)
REMARK    1  A    between atoms: O_2  and  C_3 
REMARK    2  A    between atoms: C_6  and  C_7 
REMARK    3  A    between atoms: C_7  and  C_8 
REMARK    4  A    between atoms: C_8  and  C_9 
REMARK       I    between atoms: C_9  and  N_10 
REMARK    5  A    between atoms: N_10  and  N_11 
REMARK    6  A    between atoms: C_12  and  C_13 
ROOT
HETATM    1  C   UNL     1       6.810  27.674  55.232  1.00  0.00     0.237 C 
HETATM    2  N   UNL     1       7.363  28.936  55.390  1.00  0.00    -0.247 N 
HETATM    3  O   UNL     1       5.888  27.207  55.894  1.00  0.00    -0.272 OA
HETATM    4  H   UNL     1       8.116  29.250  54.789  1.00  0.00     0.192 HD
ENDROOT
BRANCH   2   5
HETATM    5  N   UNL     1       6.876  29.773  56.353  1.00  0.00    -0.184 NA
HETATM    6  C   UNL     1       7.656  29.990  57.362  1.00  0.00     0.152 C 
BRANCH   6   7
HETATM    7  C   UNL     1       7.221  30.868  58.427  1.00  0.00     0.011 A 
HETATM    8  C   UNL     1       7.869  31.100  59.684  1.00  0.00     0.004 A 
HETATM    9  C   UNL     1       7.091  32.021  60.389  1.00  0.00     0.043 A 
HETATM   10  C   UNL     1       9.044  30.612  60.293  1.00  0.00     0.014 A 
HETATM   11  C   UNL     1       7.429  32.479  61.668  1.00  0.00     0.030 A 
HETATM   12  N   UNL     1       6.013  32.336  59.595  1.00  0.00    -0.364 N 
HETATM   13  C   UNL     1       8.599  31.979  62.248  1.00  0.00     0.002 A 
HETATM   14  C   UNL     1       9.396  31.060  61.573  1.00  0.00     0.001 A 
HETATM   15  H   UNL     1       5.279  32.982  59.850  1.00  0.00     0.165 HD
HETATM   16  C   UNL     1       6.080  31.648  58.416  1.00  0.00     0.102 A 
ENDBRANCH   6   7
ENDBRANCH   2   5
BRANCH   1  17
HETATM   17  C   UNL     1       7.489  26.865  54.148  1.00  0.00     0.109 C 
BRANCH  17  18
HETATM   18  C   UNL     1       6.530  25.818  53.592  1.00  0.00     0.048 C 
BRANCH  18  19
HETATM   19  C   UNL     1       7.012  24.416  53.863  1.00  0.00    -0.058 A 
HETATM   20  C   UNL     1       7.037  23.902  55.163  1.00  0.00     0.010 A 
HETATM   21  C   UNL     1       7.488  22.601  55.397  1.00  0.00     0.037 A 
HETATM   22  C   UNL     1       7.921  21.794  54.343  1.00  0.00     0.068 A 
HETATM   23  C   UNL     1       7.912  22.307  53.046  1.00  0.00     0.037 A 
HETATM   24  C   UNL     1       7.460  23.609  52.809  1.00  0.00     0.010 A 
BRANCH  22  25
HETATM   25  O   UNL     1       8.328  20.541  54.709  1.00  0.00    -0.356 OA
HETATM   26  C   UNL     1       8.275  20.231  56.097  1.00  0.00     0.210 C 
ENDBRANCH  22  25
ENDBRANCH  18  19
ENDBRANCH  17  18
ENDBRANCH   1  17
TORSDOF 6
ENDMDL
MODEL 5
REMARK VINA RESULT:      -8.4      8.283     11.622
REMARK  6 active torsions:
REMARK  status: ('A' for Active; 'I' for Inactive)
REMARK    1  A    between atoms: O_2  and  C_3 
REMARK    2  A    between atoms: C_6  and  C_7 
REMARK    3  A    between atoms: C_7  and  C_8 
REMARK    4  A    between atoms: C_8  and  C_9 
REMARK       I    between atoms: C_9  and  N_10 
REMARK    5  A    between atoms: N_10  and  N_11 
REMARK    6  A    between atoms: C_12  and  C_13 
ROOT
HETATM    1  C   UNL     1       5.212  27.432  52.453  1.00  0.00     0.237 C 
HETATM    2  N   UNL     1       6.493  26.964  52.710  1.00  0.00    -0.247 N 
HETATM    3  O   UNL     1       4.193  27.099  53.052  1.00  0.00    -0.272 OA
HETATM    4  H   UNL     1       7.284  27.303  52.176  1.00  0.00     0.192 HD
ENDROOT
BRANCH   2   5
HETATM    5  N   UNL     1       6.692  26.052  53.706  1.00  0.00    -0.184 NA
HETATM    6  C   UNL     1       7.636  25.190  53.504  1.00  0.00     0.152 C 
BRANCH   6   7
HETATM    7  C   UNL     1       7.920  24.190  54.511  1.00  0.00     0.011 A 
HETATM    8  C   UNL     1       8.096  22.782  54.313  1.00  0.00     0.004 A 
HETATM    9  C   UNL     1       8.351  22.215  55.564  1.00  0.00     0.043 A 
HETATM   10  C   UNL     1       8.060  21.930  53.188  1.00  0.00     0.014 A 
HETATM   11  C   UNL     1       8.574  20.845  55.746  1.00  0.00     0.030 A 
HETATM   12  N   UNL     1       8.331  23.236  56.486  1.00  0.00    -0.364 N 
HETATM   13  C   UNL     1       8.533  20.025  54.615  1.00  0.00     0.002 A 
HETATM   14  C   UNL     1       8.280  20.557  53.354  1.00  0.00     0.001 A 
HETATM   15  H   UNL     1       8.484  23.121  57.478  1.00  0.00     0.165 HD
HETATM   16  C   UNL     1       8.069  24.425  55.864  1.00  0.00     0.102 A 
ENDBRANCH   6   7
ENDBRANCH   2   5
BRANCH   1  17
HETATM   17  C   UNL     1       5.162  28.406  51.297  1.00  0.00     0.109 C 
BRANCH  17  18
HETATM   18  C   UNL     1       5.277  27.662  49.972  1.00  0.00     0.048 C 
BRANCH  18  19
HETATM   19  C   UNL     1       3.939  27.515  49.292  1.00  0.00    -0.058 A 
HETATM   20  C   UNL     1       2.889  28.394  49.574  1.00  0.00     0.010 A 
HETATM   21  C   UNL     1       1.655  28.243  48.936  1.00  0.00     0.037 A 
HETATM   22  C   UNL     1       1.449  27.216  48.012  1.00  0.00     0.068 A 
HETATM   23  C   UNL     1       2.489  26.328  47.740  1.00  0.00     0.037 A 
HETATM   24  C   UNL     1       3.726  26.477  48.376  1.00  0.00     0.010 A 
BRANCH  22  25
HETATM   25  O   UNL     1       0.200  27.186  47.457  1.00  0.00    -0.356 OA
HETATM   26  C   UNL     1       0.115  27.437  46.059  1.00  0.00     0.210 C 
ENDBRANCH  22  25
ENDBRANCH  18  19
ENDBRANCH  17  18
ENDBRANCH   1  17
TORSDOF 6
ENDMDL
MODEL 6
REMARK VINA RESULT:      -8.4      3.286     10.293
REMARK  6 active torsions:
REMARK  status: ('A' for Active; 'I' for Inactive)
REMARK    1  A    between atoms: O_2  and  C_3 
REMARK    2  A    between atoms: C_6  and  C_7 
REMARK    3  A    between atoms: C_7  and  C_8 
REMARK    4  A    between atoms: C_8  and  C_9 
REMARK       I    between atoms: C_9  and  N_10 
REMARK    5  A    between atoms: N_10  and  N_11 
REMARK    6  A    between atoms: C_12  and  C_13 
ROOT
HETATM    1  C   UNL     1       7.430  27.432  57.381  1.00  0.00     0.237 C 
HETATM    2  N   UNL     1       7.612  28.797  57.553  1.00  0.00    -0.247 N 
HETATM    3  O   UNL     1       7.716  26.562  58.199  1.00  0.00    -0.272 OA
HETATM    4  H   UNL     1       7.334  29.450  56.831  1.00  0.00     0.192 HD
ENDROOT
BRANCH   2   5
HETATM    5  N   UNL     1       8.153  29.266  58.715  1.00  0.00    -0.184 NA
HETATM    6  C   UNL     1       7.656  30.372  59.166  1.00  0.00     0.152 C 
BRANCH   6   7
HETATM    7  C   UNL     1       8.168  30.939  60.395  1.00  0.00     0.011 A 
HETATM    8  C   UNL     1       7.452  31.725  61.356  1.00  0.00     0.004 A 
HETATM    9  C   UNL     1       8.347  32.051  62.377  1.00  0.00     0.043 A 
HETATM   10  C   UNL     1       6.125  32.195  61.454  1.00  0.00     0.014 A 
HETATM   11  C   UNL     1       7.983  32.819  63.490  1.00  0.00     0.030 A 
HETATM   12  N   UNL     1       9.559  31.487  62.051  1.00  0.00    -0.364 N 
HETATM   13  C   UNL     1       6.663  33.271  63.561  1.00  0.00     0.002 A 
HETATM   14  C   UNL     1       5.745  32.966  62.561  1.00  0.00     0.001 A 
HETATM   15  H   UNL     1      10.397  31.559  62.611  1.00  0.00     0.165 HD
HETATM   16  C   UNL     1       9.463  30.820  60.862  1.00  0.00     0.102 A 
ENDBRANCH   6   7
ENDBRANCH   2   5
BRANCH   1  17
HETATM   17  C   UNL     1       6.855  27.081  56.027  1.00  0.00     0.109 C 
BRANCH  17  18
HETATM   18  C   UNL     1       6.036  25.797  56.117  1.00  0.00     0.048 C 
BRANCH  18  19
HETATM   19  C   UNL     1       6.595  24.711  55.235  1.00  0.00    -0.058 A 
HETATM   20  C   UNL     1       6.569  24.831  53.842  1.00  0.00     0.010 A 
HETATM   21  C   UNL     1       7.090  23.814  53.039  1.00  0.00     0.037 A 
HETATM   22  C   UNL     1       7.643  22.665  53.608  1.00  0.00     0.068 A 
HETATM   23  C   UNL     1       7.657  22.534  54.997  1.00  0.00     0.037 A 
HETATM   24  C   UNL     1       7.137  23.551  55.804  1.00  0.00     0.010 A 
BRANCH  22  25
HETATM   25  O   UNL     1       8.123  21.753  52.710  1.00  0.00    -0.356 OA
HETATM   26  C   UNL     1       8.229  20.407  53.159  1.00  0.00     0.210 C 
ENDBRANCH  22  25
ENDBRANCH  18  19
ENDBRANCH  17  18
ENDBRANCH   1  17
TORSDOF 6
ENDMDL
MODEL 7
REMARK VINA RESULT:      -8.3      2.663      4.413
REMARK  6 active torsions:
REMARK  status: ('A' for Active; 'I' for Inactive)
REMARK    1  A    between atoms: O_2  and  C_3 
REMARK    2  A    between atoms: C_6  and  C_7 
REMARK    3  A    between atoms: C_7  and  C_8 
REMARK    4  A    between atoms: C_8  and  C_9 
REMARK       I    between atoms: C_9  and  N_10 
REMARK    5  A    between atoms: N_10  and  N_11 
REMARK    6  A    between atoms: C_12  and  C_13 
ROOT
HETATM    1  C   UNL     1       7.666  28.298  56.500  1.00  0.00     0.237 C 
HETATM    2  N   UNL     1       7.360  27.265  57.375  1.00  0.00    -0.247 N 
HETATM    3  O   UNL     1       7.868  28.180  55.295  1.00  0.00    -0.272 OA
HETATM    4  H   UNL     1       7.192  27.451  58.356  1.00  0.00     0.192 HD
ENDROOT
BRANCH   2   5
HETATM    5  N   UNL     1       7.264  25.987  56.905  1.00  0.00    -0.184 NA
HETATM    6  C   UNL     1       8.304  25.238  57.082  1.00  0.00     0.152 C 
BRANCH   6   7
HETATM    7  C   UNL     1       8.288  23.867  56.619  1.00  0.00     0.011 A 
HETATM    8  C   UNL     1       8.133  23.405  55.272  1.00  0.00     0.004 A 
HETATM    9  C   UNL     1       8.180  22.009  55.303  1.00  0.00     0.043 A 
HETATM   10  C   UNL     1       7.953  24.040  54.025  1.00  0.00     0.014 A 
HETATM   11  C   UNL     1       8.060  21.219  54.154  1.00  0.00     0.030 A 
HETATM   12  N   UNL     1       8.357  21.637  56.616  1.00  0.00    -0.364 N 
HETATM   13  C   UNL     1       7.883  21.875  52.932  1.00  0.00     0.002 A 
HETATM   14  C   UNL     1       7.830  23.264  52.865  1.00  0.00     0.001 A 
HETATM   15  H   UNL     1       8.427  20.682  56.940  1.00  0.00     0.165 HD
HETATM   16  C   UNL     1       8.420  22.745  57.414  1.00  0.00     0.102 A 
ENDBRANCH   6   7
ENDBRANCH   2   5
BRANCH   1  17
HETATM   17  C   UNL     1       7.768  29.641  57.188  1.00  0.00     0.109 C 
BRANCH  17  18
HETATM   18  C   UNL     1       8.686  29.545  58.401  1.00  0.00     0.048 C 
BRANCH  18  19
HETATM   19  C   UNL     1       8.308  30.536  59.472  1.00  0.00    -0.058 A 
HETATM   20  C   UNL     1       8.993  30.578  60.690  1.00  0.00     0.010 A 
HETATM   21  C   UNL     1       8.628  31.502  61.672  1.00  0.00     0.037 A 
HETATM   22  C   UNL     1       7.576  32.396  61.457  1.00  0.00     0.068 A 
HETATM   23  C   UNL     1       6.880  32.348  60.250  1.00  0.00     0.037 A 
HETATM   24  C   UNL     1       7.244  31.424  59.264  1.00  0.00     0.010 A 
BRANCH  22  25
HETATM   25  O   UNL     1       7.329  33.250  62.495  1.00  0.00    -0.356 OA
HETATM   26  C   UNL     1       7.700  32.804  63.793  1.00  0.00     0.210 C 
ENDBRANCH  22  25
ENDBRANCH  18  19
ENDBRANCH  17  18
ENDBRANCH   1  17
TORSDOF 6
ENDMDL
MODEL 8
REMARK VINA RESULT:      -8.3      9.084     12.055
REMARK  6 active torsions:
REMARK  status: ('A' for Active; 'I' for Inactive)
REMARK    1  A    between atoms: O_2  and  C_3 
REMARK    2  A    between atoms: C_6  and  C_7 
REMARK    3  A    between atoms: C_7  and  C_8 
REMARK    4  A    between atoms: C_8  and  C_9 
REMARK       I    between atoms: C_9  and  N_10 
REMARK    5  A    between atoms: N_10  and  N_11 
REMARK    6  A    between atoms: C_12  and  C_13 
ROOT
HETATM    1  C   UNL     1       5.525  26.009  52.275  1.00  0.00     0.237 C 
HETATM    2  N   UNL     1       5.667  26.404  50.953  1.00  0.00    -0.247 N 
HETATM    3  O   UNL     1       4.577  25.378  52.737  1.00  0.00    -0.272 OA
HETATM    4  H   UNL     1       6.490  26.910  50.650  1.00  0.00     0.192 HD
ENDROOT
BRANCH   2   5
HETATM    5  N   UNL     1       4.697  26.090  50.045  1.00  0.00    -0.184 NA
HETATM    6  C   UNL     1       4.387  27.021  49.202  1.00  0.00     0.152 C 
BRANCH   6   7
HETATM    7  C   UNL     1       3.371  26.773  48.201  1.00  0.00     0.011 A 
HETATM    8  C   UNL     1       2.301  27.642  47.813  1.00  0.00     0.004 A 
HETATM    9  C   UNL     1       1.574  26.988  46.816  1.00  0.00     0.043 A 
HETATM   10  C   UNL     1       1.875  28.926  48.216  1.00  0.00     0.014 A 
HETATM   11  C   UNL     1       0.449  27.551  46.201  1.00  0.00     0.030 A 
HETATM   12  N   UNL     1       2.177  25.769  46.606  1.00  0.00    -0.364 N 
HETATM   13  C   UNL     1       0.051  28.823  46.621  1.00  0.00     0.002 A 
HETATM   14  C   UNL     1       0.751  29.503  47.612  1.00  0.00     0.001 A 
HETATM   15  H   UNL     1       1.865  25.079  45.937  1.00  0.00     0.165 HD
HETATM   16  C   UNL     1       3.255  25.629  47.435  1.00  0.00     0.102 A 
ENDBRANCH   6   7
ENDBRANCH   2   5
BRANCH   1  17
HETATM   17  C   UNL     1       6.668  26.467  53.153  1.00  0.00     0.109 C 
BRANCH  17  18
HETATM   18  C   UNL     1       7.938  25.694  52.813  1.00  0.00     0.048 C 
BRANCH  18  19
HETATM   19  C   UNL     1       7.927  24.307  53.405  1.00  0.00    -0.058 A 
HETATM   20  C   UNL     1       7.841  23.176  52.588  1.00  0.00     0.010 A 
HETATM   21  C   UNL     1       7.830  21.899  53.153  1.00  0.00     0.037 A 
HETATM   22  C   UNL     1       7.902  21.729  54.537  1.00  0.00     0.068 A 
HETATM   23  C   UNL     1       7.973  22.854  55.357  1.00  0.00     0.037 A 
HETATM   24  C   UNL     1       7.985  24.135  54.794  1.00  0.00     0.010 A 
BRANCH  22  25
HETATM   25  O   UNL     1       7.890  20.428  54.957  1.00  0.00    -0.356 OA
HETATM   26  C   UNL     1       8.363  20.176  56.275  1.00  0.00     0.210 C 
ENDBRANCH  22  25
ENDBRANCH  18  19
ENDBRANCH  17  18
ENDBRANCH   1  17
TORSDOF 6
ENDMDL
MODEL 9
REMARK VINA RESULT:      -7.9      3.674      6.400
REMARK  6 active torsions:
REMARK  status: ('A' for Active; 'I' for Inactive)
REMARK    1  A    between atoms: O_2  and  C_3 
REMARK    2  A    between atoms: C_6  and  C_7 
REMARK    3  A    between atoms: C_7  and  C_8 
REMARK    4  A    between atoms: C_8  and  C_9 
REMARK       I    between atoms: C_9  and  N_10 
REMARK    5  A    between atoms: N_10  and  N_11 
REMARK    6  A    between atoms: C_12  and  C_13 
ROOT
HETATM    1  C   UNL     1       5.692  26.852  54.864  1.00  0.00     0.237 C 
HETATM    2  N   UNL     1       5.771  26.073  56.010  1.00  0.00    -0.247 N 
HETATM    3  O   UNL     1       5.929  26.471  53.721  1.00  0.00    -0.272 OA
HETATM    4  H   UNL     1       5.543  26.463  56.917  1.00  0.00     0.192 HD
ENDROOT
BRANCH   2   5
HETATM    5  N   UNL     1       6.140  24.763  55.913  1.00  0.00    -0.184 NA
HETATM    6  C   UNL     1       7.378  24.501  56.184  1.00  0.00     0.152 C 
BRANCH   6   7
HETATM    7  C   UNL     1       7.854  23.136  56.110  1.00  0.00     0.011 A 
HETATM    8  C   UNL     1       7.999  22.326  54.938  1.00  0.00     0.004 A 
HETATM    9  C   UNL     1       8.491  21.085  55.348  1.00  0.00     0.043 A 
HETATM   10  C   UNL     1       7.756  22.528  53.562  1.00  0.00     0.014 A 
HETATM   11  C   UNL     1       8.754  20.039  54.454  1.00  0.00     0.030 A 
HETATM   12  N   UNL     1       8.639  21.137  56.714  1.00  0.00    -0.364 N 
HETATM   13  C   UNL     1       8.504  20.267  53.098  1.00  0.00     0.002 A 
HETATM   14  C   UNL     1       8.012  21.491  52.656  1.00  0.00     0.001 A 
HETATM   15  H   UNL     1       8.980  20.377  57.286  1.00  0.00     0.165 HD
HETATM   16  C   UNL     1       8.257  22.363  57.182  1.00  0.00     0.102 A 
ENDBRANCH   6   7
ENDBRANCH   2   5
BRANCH   1  17
HETATM   17  C   UNL     1       5.305  28.286  55.152  1.00  0.00     0.109 C 
BRANCH  17  18
HETATM   18  C   UNL     1       4.938  28.449  56.623  1.00  0.00     0.048 C 
BRANCH  18  19
HETATM   19  C   UNL     1       6.010  29.179  57.391  1.00  0.00    -0.058 A 
HETATM   20  C   UNL     1       7.206  28.543  57.739  1.00  0.00     0.010 A 
HETATM   21  C   UNL     1       8.188  29.234  58.453  1.00  0.00     0.037 A 
HETATM   22  C   UNL     1       7.994  30.564  58.831  1.00  0.00     0.068 A 
HETATM   23  C   UNL     1       6.797  31.198  58.500  1.00  0.00     0.037 A 
HETATM   24  C   UNL     1       5.812  30.509  57.784  1.00  0.00     0.010 A 
BRANCH  22  25
HETATM   25  O   UNL     1       9.036  31.122  59.518  1.00  0.00    -0.356 OA
HETATM   26  C   UNL     1       8.829  32.427  60.046  1.00  0.00     0.210 C 
ENDBRANCH  22  25
ENDBRANCH  18  19
ENDBRANCH  17  18
ENDBRANCH   1  17
TORSDOF 6
ENDMDL
MODEL 10
REMARK VINA RESULT:      -7.5      9.564     12.450
REMARK  6 active torsions:
REMARK  status: ('A' for Active; 'I' for Inactive)
REMARK    1  A    between atoms: O_2  and  C_3 
REMARK    2  A    between atoms: C_6  and  C_7 
REMARK    3  A    between atoms: C_7  and  C_8 
REMARK    4  A    between atoms: C_8  and  C_9 
REMARK       I    between atoms: C_9  and  N_10 
REMARK    5  A    between atoms: N_10  and  N_11 
REMARK    6  A    between atoms: C_12  and  C_13 
ROOT
HETATM    1  C   UNL     1       5.405  26.444  51.821  1.00  0.00     0.237 C 
HETATM    2  N   UNL     1       4.586  26.279  50.713  1.00  0.00    -0.247 N 
HETATM    3  O   UNL     1       5.917  27.500  52.183  1.00  0.00    -0.272 OA
HETATM    4  H   UNL     1       4.191  25.373  50.493  1.00  0.00     0.192 HD
ENDROOT
BRANCH   2   5
HETATM    5  N   UNL     1       4.293  27.353  49.923  1.00  0.00    -0.184 NA
HETATM    6  C   UNL     1       3.428  27.145  48.983  1.00  0.00     0.152 C 
BRANCH   6   7
HETATM    7  C   UNL     1       3.055  28.230  48.100  1.00  0.00     0.011 A 
HETATM    8  C   UNL     1       1.833  28.374  47.366  1.00  0.00     0.004 A 
HETATM    9  C   UNL     1       1.916  29.572  46.652  1.00  0.00     0.043 A 
HETATM   10  C   UNL     1       0.662  27.598  47.236  1.00  0.00     0.014 A 
HETATM   11  C   UNL     1       0.888  30.032  45.820  1.00  0.00     0.030 A 
HETATM   12  N   UNL     1       3.138  30.134  46.940  1.00  0.00    -0.364 N 
HETATM   13  C   UNL     1      -0.260  29.243  45.710  1.00  0.00     0.002 A 
HETATM   14  C   UNL     1      -0.374  28.044  46.406  1.00  0.00     0.001 A 
HETATM   15  H   UNL     1       3.473  31.010  46.562  1.00  0.00     0.165 HD
HETATM   16  C   UNL     1       3.831  29.335  47.806  1.00  0.00     0.102 A 
ENDBRANCH   6   7
ENDBRANCH   2   5
BRANCH   1  17
HETATM   17  C   UNL     1       5.657  25.151  52.565  1.00  0.00     0.109 C 
BRANCH  17  18
HETATM   18  C   UNL     1       7.126  24.757  52.457  1.00  0.00     0.048 C 
BRANCH  18  19
HETATM   19  C   UNL     1       7.433  23.513  53.251  1.00  0.00    -0.058 A 
HETATM   20  C   UNL     1       7.198  23.463  54.629  1.00  0.00     0.010 A 
HETATM   21  C   UNL     1       7.490  22.302  55.349  1.00  0.00     0.037 A 
HETATM   22  C   UNL     1       8.020  21.178  54.712  1.00  0.00     0.068 A 
HETATM   23  C   UNL     1       8.270  21.229  53.341  1.00  0.00     0.037 A 
HETATM   24  C   UNL     1       7.978  22.390  52.616  1.00  0.00     0.010 A 
BRANCH  22  25
HETATM   25  O   UNL     1       8.251  20.109  55.532  1.00  0.00    -0.356 OA
HETATM   26  C   UNL     1       9.283  20.257  56.500  1.00  0.00     0.210 C 
ENDBRANCH  22  25
ENDBRANCH  18  19
ENDBRANCH  17  18
ENDBRANCH   1  17
TORSDOF 6
ENDMDL
