MODEL 1
REMARK VINA RESULT:     -10.0      0.000      0.000
REMARK  6 active torsions:
REMARK  status: ('A' for Active; 'I' for Inactive)
REMARK    1  A    between atoms: C_4  and  C_5 
REMARK    2  A    between atoms: C_5  and  O_6 
REMARK    3  A    between atoms: O_6  and  C_7 
REMARK    4  A    between atoms: C_10  and  C_11 
REMARK    5  A    between atoms: C_17  and  C_18 
REMARK    6  A    between atoms: C_27  and  N_28 
ROOT
HETATM    1  C   UNL     1       8.995  28.949  57.038  1.00  0.00     0.072 A 
HETATM    2  N   UNL     1      10.252  29.307  56.591  1.00  0.00    -0.274 N 
HETATM    3  H   UNL     1      10.826  28.821  55.910  1.00  0.00     0.189 HD
HETATM    4  N   UNL     1      10.748  30.420  57.166  1.00  0.00    -0.148 NA
HETATM    5  C   UNL     1       9.780  30.761  58.005  1.00  0.00     0.199 A 
HETATM    6  C   UNL     1       8.662  29.925  57.964  1.00  0.00     0.040 A 
HETATM    7  C   UNL     1       7.483  30.201  58.830  1.00  0.00     0.106 A 
HETATM    8  C   UNL     1       7.765  31.359  59.782  1.00  0.00     0.081 A 
HETATM    9  C   UNL     1       6.774  31.621  60.773  1.00  0.00     0.100 C 
HETATM   10  N   UNL     1       5.961  31.831  61.575  1.00  0.00    -0.191 NA
HETATM   11  C   UNL     1       8.910  32.089  59.740  1.00  0.00     0.140 A 
HETATM   12  O   UNL     1       9.924  31.831  58.806  1.00  0.00    -0.277 OA
ENDROOT
BRANCH   7  13
HETATM   13  C   UNL     1       6.321  30.480  57.887  1.00  0.00    -0.041 A 
HETATM   14  C   UNL     1       5.417  29.457  57.576  1.00  0.00     0.027 A 
HETATM   15  C   UNL     1       4.352  29.734  56.731  1.00  0.00     0.116 A 
HETATM   16  N   UNL     1       4.123  30.945  56.185  1.00  0.00    -0.273 NA
HETATM   17  C   UNL     1       4.997  31.924  56.495  1.00  0.00     0.116 A 
HETATM   18  C   UNL     1       6.091  31.746  57.328  1.00  0.00     0.027 A 
ENDBRANCH   7  13
BRANCH  11  19
HETATM   19  N   UNL     1       9.214  33.140  60.577  1.00  0.00    -0.282 NA
HETATM   20  H   UNL     1       9.578  32.892  61.493  1.00  0.00     0.126 HD
HETATM   21  H   UNL     1       8.468  33.831  60.613  1.00  0.00     0.126 HD
ENDBRANCH  11  19
BRANCH   1  22
HETATM   22  C   UNL     1       8.292  27.768  56.553  1.00  0.00    -0.007 A 
HETATM   23  C   UNL     1       7.780  27.726  55.253  1.00  0.00     0.016 A 
HETATM   24  C   UNL     1       7.125  26.582  54.785  1.00  0.00     0.037 A 
HETATM   25  C   UNL     1       6.967  25.465  55.607  1.00  0.00     0.069 A 
HETATM   26  C   UNL     1       7.453  25.508  56.912  1.00  0.00     0.037 A 
HETATM   27  C   UNL     1       8.116  26.651  57.380  1.00  0.00     0.016 A 
BRANCH  25  28
HETATM   28  O   UNL     1       6.329  24.410  55.018  1.00  0.00    -0.347 OA
BRANCH  28  29
HETATM   29  C   UNL     1       6.889  23.903  53.805  1.00  0.00     0.214 C 
BRANCH  29  30
HETATM   30  C   UNL     1       7.535  22.559  54.058  1.00  0.00    -0.034 A 
HETATM   31  C   UNL     1       7.601  22.049  55.364  1.00  0.00     0.009 A 
HETATM   32  C   UNL     1       8.174  20.800  55.611  1.00  0.00     0.001 A 
HETATM   33  C   UNL     1       8.678  20.042  54.556  1.00  0.00     0.000 A 
HETATM   34  C   UNL     1       8.604  20.529  53.253  1.00  0.00     0.001 A 
HETATM   35  C   UNL     1       8.030  21.778  53.004  1.00  0.00     0.009 A 
ENDBRANCH  29  30
ENDBRANCH  28  29
ENDBRANCH  25  28
ENDBRANCH   1  22
TORSDOF 6
ENDMDL
MODEL 2
REMARK VINA RESULT:      -9.5      1.537      2.050
REMARK  6 active torsions:
REMARK  status: ('A' for Active; 'I' for Inactive)
REMARK    1  A    between atoms: C_4  and  C_5 
REMARK    2  A    between atoms: C_5  and  O_6 
REMARK    3  A    between atoms: O_6  and  C_7 
REMARK    4  A    between atoms: C_10  and  C_11 
REMARK    5  A    between atoms: C_17  and  C_18 
REMARK    6  A    between atoms: C_27  and  N_28 
ROOT
HETATM    1  C   UNL     1       7.641  29.409  57.251  1.00  0.00     0.072 A 
HETATM    2  N   UNL     1       8.954  29.749  57.511  1.00  0.00    -0.274 N 
HETATM    3  H   UNL     1       9.789  29.270  57.193  1.00  0.00     0.189 HD
HETATM    4  N   UNL     1       9.100  30.832  58.300  1.00  0.00    -0.148 NA
HETATM    5  C   UNL     1       7.844  31.171  58.551  1.00  0.00     0.199 A 
HETATM    6  C   UNL     1       6.893  30.364  57.921  1.00  0.00     0.040 A 
HETATM    7  C   UNL     1       5.440  30.643  58.088  1.00  0.00     0.106 A 
HETATM    8  C   UNL     1       5.212  31.764  59.096  1.00  0.00     0.081 A 
HETATM    9  C   UNL     1       3.858  32.021  59.465  1.00  0.00     0.100 C 
HETATM   10  N   UNL     1       2.754  32.227  59.757  1.00  0.00    -0.191 NA
HETATM   11  C   UNL     1       6.227  32.466  59.664  1.00  0.00     0.140 A 
HETATM   12  O   UNL     1       7.571  32.212  59.357  1.00  0.00    -0.277 OA
ENDROOT
BRANCH   7  13
HETATM   13  C   UNL     1       4.912  30.979  56.700  1.00  0.00    -0.041 A 
HETATM   14  C   UNL     1       4.165  30.030  55.991  1.00  0.00     0.027 A 
HETATM   15  C   UNL     1       3.674  30.360  54.737  1.00  0.00     0.116 A 
HETATM   16  N   UNL     1       3.867  31.558  54.147  1.00  0.00    -0.273 NA
HETATM   17  C   UNL     1       4.584  32.465  54.840  1.00  0.00     0.116 A 
HETATM   18  C   UNL     1       5.117  32.231  56.098  1.00  0.00     0.027 A 
ENDBRANCH   7  13
BRANCH  11  19
HETATM   19  N   UNL     1       6.075  33.484  60.581  1.00  0.00    -0.282 NA
HETATM   20  H   UNL     1       6.465  33.316  61.504  1.00  0.00     0.126 HD
HETATM   21  H   UNL     1       5.122  33.842  60.603  1.00  0.00     0.126 HD
ENDBRANCH  11  19
BRANCH   1  22
HETATM   22  C   UNL     1       7.270  28.261  56.433  1.00  0.00    -0.007 A 
HETATM   23  C   UNL     1       7.577  28.226  55.070  1.00  0.00     0.016 A 
HETATM   24  C   UNL     1       7.239  27.114  54.295  1.00  0.00     0.037 A 
HETATM   25  C   UNL     1       6.585  26.019  54.864  1.00  0.00     0.069 A 
HETATM   26  C   UNL     1       6.253  26.057  56.217  1.00  0.00     0.037 A 
HETATM   27  C   UNL     1       6.598  27.168  56.998  1.00  0.00     0.016 A 
BRANCH  25  28
HETATM   28  O   UNL     1       6.333  24.992  53.999  1.00  0.00    -0.347 OA
BRANCH  28  29
HETATM   29  C   UNL     1       7.456  24.402  53.343  1.00  0.00     0.214 C 
BRANCH  29  30
HETATM   30  C   UNL     1       7.644  22.980  53.821  1.00  0.00    -0.034 A 
HETATM   31  C   UNL     1       7.927  21.961  52.897  1.00  0.00     0.009 A 
HETATM   32  C   UNL     1       8.125  20.648  53.326  1.00  0.00     0.001 A 
HETATM   33  C   UNL     1       8.052  20.337  54.683  1.00  0.00     0.000 A 
HETATM   34  C   UNL     1       7.788  21.341  55.612  1.00  0.00     0.001 A 
HETATM   35  C   UNL     1       7.591  22.657  55.185  1.00  0.00     0.009 A 
ENDBRANCH  29  30
ENDBRANCH  28  29
ENDBRANCH  25  28
ENDBRANCH   1  22
TORSDOF 6
ENDMDL
MODEL 3
REMARK VINA RESULT:      -9.4      1.330      2.148
REMARK  6 active torsions:
REMARK  status: ('A' for Active; 'I' for Inactive)
REMARK    1  A    between atoms: C_4  and  C_5 
REMARK    2  A    between atoms: C_5  and  O_6 
REMARK    3  A    between atoms: O_6  and  C_7 
REMARK    4  A    between atoms: C_10  and  C_11 
REMARK    5  A    between atoms: C_17  and  C_18 
REMARK    6  A    between atoms: C_27  and  N_28 
ROOT
HETATM    1  C   UNL     1       8.485  30.408  58.126  1.00  0.00     0.072 A 
HETATM    2  N   UNL     1       9.751  30.958  58.175  1.00  0.00    -0.274 N 
HETATM    3  H   UNL     1      10.576  30.652  57.672  1.00  0.00     0.189 HD
HETATM    4  N   UNL     1       9.868  32.004  59.017  1.00  0.00    -0.148 NA
HETATM    5  C   UNL     1       8.645  32.103  59.518  1.00  0.00     0.199 A 
HETATM    6  C   UNL     1       7.734  31.178  59.000  1.00  0.00     0.040 A 
HETATM    7  C   UNL     1       6.315  31.188  59.448  1.00  0.00     0.106 A 
HETATM    8  C   UNL     1       6.104  32.193  60.575  1.00  0.00     0.081 A 
HETATM    9  C   UNL     1       4.823  32.187  61.200  1.00  0.00     0.100 C 
HETATM   10  N   UNL     1       3.777  32.179  61.702  1.00  0.00    -0.191 NA
HETATM   11  C   UNL     1       7.082  33.030  61.010  1.00  0.00     0.140 A 
HETATM   12  O   UNL     1       8.366  33.034  60.447  1.00  0.00    -0.277 OA
ENDROOT
BRANCH   7  13
HETATM   13  C   UNL     1       5.484  31.502  58.211  1.00  0.00    -0.041 A 
HETATM   14  C   UNL     1       4.740  30.487  57.596  1.00  0.00     0.027 A 
HETATM   15  C   UNL     1       3.973  30.796  56.483  1.00  0.00     0.116 A 
HETATM   16  N   UNL     1       3.888  32.031  55.948  1.00  0.00    -0.273 NA
HETATM   17  C   UNL     1       4.604  33.002  56.552  1.00  0.00     0.116 A 
HETATM   18  C   UNL     1       5.401  32.793  57.667  1.00  0.00     0.027 A 
ENDBRANCH   7  13
BRANCH  11  19
HETATM   19  N   UNL     1       6.946  33.952  62.025  1.00  0.00    -0.282 NA
HETATM   20  H   UNL     1       7.709  34.614  62.134  1.00  0.00     0.126 HD
HETATM   21  H   UNL     1       6.657  33.520  62.901  1.00  0.00     0.126 HD
ENDBRANCH  11  19
BRANCH   1  22
HETATM   22  C   UNL     1       8.156  29.259  57.290  1.00  0.00    -0.007 A 
HETATM   23  C   UNL     1       7.757  28.049  57.866  1.00  0.00     0.016 A 
HETATM   24  C   UNL     1       7.421  26.957  57.060  1.00  0.00     0.037 A 
HETATM   25  C   UNL     1       7.480  27.053  55.669  1.00  0.00     0.069 A 
HETATM   26  C   UNL     1       7.900  28.248  55.088  1.00  0.00     0.037 A 
HETATM   27  C   UNL     1       8.229  29.346  55.894  1.00  0.00     0.016 A 
BRANCH  25  28
HETATM   28  O   UNL     1       7.104  25.920  55.003  1.00  0.00    -0.347 OA
BRANCH  28  29
HETATM   29  C   UNL     1       6.883  24.746  55.787  1.00  0.00     0.214 C 
BRANCH  29  30
HETATM   30  C   UNL     1       7.287  23.519  55.000  1.00  0.00    -0.034 A 
HETATM   31  C   UNL     1       7.438  23.598  53.607  1.00  0.00     0.009 A 
HETATM   32  C   UNL     1       7.833  22.480  52.870  1.00  0.00     0.001 A 
HETATM   33  C   UNL     1       8.091  21.273  53.516  1.00  0.00     0.000 A 
HETATM   34  C   UNL     1       7.961  21.185  54.900  1.00  0.00     0.001 A 
HETATM   35  C   UNL     1       7.568  22.303  55.640  1.00  0.00     0.009 A 
ENDBRANCH  29  30
ENDBRANCH  28  29
ENDBRANCH  25  28
ENDBRANCH   1  22
TORSDOF 6
ENDMDL
MODEL 4
REMARK VINA RESULT:      -9.3      4.846      7.408
REMARK  6 active torsions:
REMARK  status: ('A' for Active; 'I' for Inactive)
REMARK    1  A    between atoms: C_4  and  C_5 
REMARK    2  A    between atoms: C_5  and  O_6 
REMARK    3  A    between atoms: O_6  and  C_7 
REMARK    4  A    between atoms: C_10  and  C_11 
REMARK    5  A    between atoms: C_17  and  C_18 
REMARK    6  A    between atoms: C_27  and  N_28 
ROOT
HETATM    1  C   UNL     1       4.975  26.338  50.710  1.00  0.00     0.072 A 
HETATM    2  N   UNL     1       4.247  25.534  49.855  1.00  0.00    -0.274 N 
HETATM    3  H   UNL     1       4.042  24.547  49.963  1.00  0.00     0.189 HD
HETATM    4  N   UNL     1       3.795  26.164  48.753  1.00  0.00    -0.148 NA
HETATM    5  C   UNL     1       4.265  27.393  48.916  1.00  0.00     0.199 A 
HETATM    6  C   UNL     1       4.974  27.585  50.105  1.00  0.00     0.040 A 
HETATM    7  C   UNL     1       5.535  28.923  50.437  1.00  0.00     0.106 A 
HETATM    8  C   UNL     1       5.343  29.899  49.282  1.00  0.00     0.081 A 
HETATM    9  C   UNL     1       5.976  31.170  49.412  1.00  0.00     0.100 C 
HETATM   10  N   UNL     1       6.492  32.203  49.527  1.00  0.00    -0.191 NA
HETATM   11  C   UNL     1       4.647  29.585  48.158  1.00  0.00     0.140 A 
HETATM   12  O   UNL     1       4.047  28.331  47.978  1.00  0.00    -0.277 OA
ENDROOT
BRANCH   7  13
HETATM   13  C   UNL     1       4.835  29.369  51.713  1.00  0.00    -0.041 A 
HETATM   14  C   UNL     1       5.402  29.073  52.959  1.00  0.00     0.027 A 
HETATM   15  C   UNL     1       4.761  29.506  54.110  1.00  0.00     0.116 A 
HETATM   16  N   UNL     1       3.611  30.210  54.110  1.00  0.00    -0.273 NA
HETATM   17  C   UNL     1       3.077  30.494  52.905  1.00  0.00     0.116 A 
HETATM   18  C   UNL     1       3.640  30.105  51.699  1.00  0.00     0.027 A 
ENDBRANCH   7  13
BRANCH  11  19
HETATM   19  N   UNL     1       4.447  30.428  47.086  1.00  0.00    -0.282 NA
HETATM   20  H   UNL     1       5.249  30.581  46.481  1.00  0.00     0.126 HD
HETATM   21  H   UNL     1       3.975  31.289  47.356  1.00  0.00     0.126 HD
ENDBRANCH  11  19
BRANCH   1  22
HETATM   22  C   UNL     1       5.565  25.844  51.948  1.00  0.00    -0.007 A 
HETATM   23  C   UNL     1       4.757  25.346  52.974  1.00  0.00     0.016 A 
HETATM   24  C   UNL     1       5.329  24.853  54.151  1.00  0.00     0.037 A 
HETATM   25  C   UNL     1       6.714  24.852  54.325  1.00  0.00     0.069 A 
HETATM   26  C   UNL     1       7.525  25.369  53.316  1.00  0.00     0.037 A 
HETATM   27  C   UNL     1       6.954  25.856  52.133  1.00  0.00     0.016 A 
BRANCH  25  28
HETATM   28  O   UNL     1       7.139  24.322  55.511  1.00  0.00    -0.347 OA
BRANCH  28  29
HETATM   29  C   UNL     1       8.502  23.898  55.584  1.00  0.00     0.214 C 
BRANCH  29  30
HETATM   30  C   UNL     1       8.616  22.454  55.148  1.00  0.00    -0.034 A 
HETATM   31  C   UNL     1       8.569  21.428  56.105  1.00  0.00     0.009 A 
HETATM   32  C   UNL     1       8.650  20.090  55.716  1.00  0.00     0.001 A 
HETATM   33  C   UNL     1       8.769  19.760  54.367  1.00  0.00     0.000 A 
HETATM   34  C   UNL     1       8.800  20.769  53.406  1.00  0.00     0.001 A 
HETATM   35  C   UNL     1       8.718  22.108  53.793  1.00  0.00     0.009 A 
ENDBRANCH  29  30
ENDBRANCH  28  29
ENDBRANCH  25  28
ENDBRANCH   1  22
TORSDOF 6
ENDMDL
MODEL 5
REMARK VINA RESULT:      -9.1      3.123      8.953
REMARK  6 active torsions:
REMARK  status: ('A' for Active; 'I' for Inactive)
REMARK    1  A    between atoms: C_4  and  C_5 
REMARK    2  A    between atoms: C_5  and  O_6 
REMARK    3  A    between atoms: O_6  and  C_7 
REMARK    4  A    between atoms: C_10  and  C_11 
REMARK    5  A    between atoms: C_17  and  C_18 
REMARK    6  A    between atoms: C_27  and  N_28 
ROOT
HETATM    1  C   UNL     1       5.252  30.022  56.366  1.00  0.00     0.072 A 
HETATM    2  N   UNL     1       4.692  30.237  55.122  1.00  0.00    -0.274 N 
HETATM    3  H   UNL     1       4.051  30.976  54.854  1.00  0.00     0.189 HD
HETATM    4  N   UNL     1       5.040  29.325  54.192  1.00  0.00    -0.148 NA
HETATM    5  C   UNL     1       5.831  28.511  54.877  1.00  0.00     0.199 A 
HETATM    6  C   UNL     1       6.032  28.887  56.208  1.00  0.00     0.040 A 
HETATM    7  C   UNL     1       6.920  28.083  57.091  1.00  0.00     0.106 A 
HETATM    8  C   UNL     1       7.394  26.818  56.384  1.00  0.00     0.081 A 
HETATM    9  C   UNL     1       8.123  25.883  57.176  1.00  0.00     0.100 C 
HETATM   10  N   UNL     1       8.719  25.129  57.825  1.00  0.00    -0.191 NA
HETATM   11  C   UNL     1       7.113  26.550  55.082  1.00  0.00     0.140 A 
HETATM   12  O   UNL     1       6.362  27.427  54.285  1.00  0.00    -0.277 OA
ENDROOT
BRANCH   7  13
HETATM   13  C   UNL     1       8.065  29.004  57.489  1.00  0.00    -0.041 A 
HETATM   14  C   UNL     1       9.048  29.338  56.549  1.00  0.00     0.027 A 
HETATM   15  C   UNL     1      10.073  30.195  56.922  1.00  0.00     0.116 A 
HETATM   16  N   UNL     1      10.184  30.742  58.150  1.00  0.00    -0.273 NA
HETATM   17  C   UNL     1       9.230  30.417  59.045  1.00  0.00     0.116 A 
HETATM   18  C   UNL     1       8.168  29.570  58.769  1.00  0.00     0.027 A 
ENDBRANCH   7  13
BRANCH  11  19
HETATM   19  N   UNL     1       7.513  25.423  54.398  1.00  0.00    -0.282 NA
HETATM   20  H   UNL     1       6.815  24.991  53.798  1.00  0.00     0.126 HD
HETATM   21  H   UNL     1       7.995  24.758  55.000  1.00  0.00     0.126 HD
ENDBRANCH  11  19
BRANCH   1  22
HETATM   22  C   UNL     1       4.986  30.884  57.511  1.00  0.00    -0.007 A 
HETATM   23  C   UNL     1       3.825  30.723  58.272  1.00  0.00     0.016 A 
HETATM   24  C   UNL     1       3.585  31.538  59.382  1.00  0.00     0.037 A 
HETATM   25  C   UNL     1       4.497  32.529  59.749  1.00  0.00     0.069 A 
HETATM   26  C   UNL     1       5.645  32.712  58.981  1.00  0.00     0.037 A 
HETATM   27  C   UNL     1       5.891  31.891  57.873  1.00  0.00     0.016 A 
BRANCH  25  28
HETATM   28  O   UNL     1       4.151  33.237  60.865  1.00  0.00    -0.347 OA
BRANCH  28  29
HETATM   29  C   UNL     1       4.083  32.519  62.099  1.00  0.00     0.214 C 
BRANCH  29  30
HETATM   30  C   UNL     1       5.315  32.804  62.929  1.00  0.00    -0.034 A 
HETATM   31  C   UNL     1       5.214  33.600  64.081  1.00  0.00     0.009 A 
HETATM   32  C   UNL     1       6.338  33.853  64.869  1.00  0.00     0.001 A 
HETATM   33  C   UNL     1       7.572  33.307  64.523  1.00  0.00     0.000 A 
HETATM   34  C   UNL     1       7.682  32.501  63.392  1.00  0.00     0.001 A 
HETATM   35  C   UNL     1       6.559  32.246  62.601  1.00  0.00     0.009 A 
ENDBRANCH  29  30
ENDBRANCH  28  29
ENDBRANCH  25  28
ENDBRANCH   1  22
TORSDOF 6
ENDMDL
MODEL 6
REMARK VINA RESULT:      -9.0      4.850      8.042
REMARK  6 active torsions:
REMARK  status: ('A' for Active; 'I' for Inactive)
REMARK    1  A    between atoms: C_4  and  C_5 
REMARK    2  A    between atoms: C_5  and  O_6 
REMARK    3  A    between atoms: O_6  and  C_7 
REMARK    4  A    between atoms: C_10  and  C_11 
REMARK    5  A    between atoms: C_17  and  C_18 
REMARK    6  A    between atoms: C_27  and  N_28 
ROOT
HETATM    1  C   UNL     1       4.910  26.158  50.546  1.00  0.00     0.072 A 
HETATM    2  N   UNL     1       4.128  25.413  49.685  1.00  0.00    -0.274 N 
HETATM    3  H   UNL     1       3.904  24.426  49.753  1.00  0.00     0.189 HD
HETATM    4  N   UNL     1       3.646  26.106  48.634  1.00  0.00    -0.148 NA
HETATM    5  C   UNL     1       4.151  27.315  48.837  1.00  0.00     0.199 A 
HETATM    6  C   UNL     1       4.913  27.432  50.002  1.00  0.00     0.040 A 
HETATM    7  C   UNL     1       5.519  28.740  50.376  1.00  0.00     0.106 A 
HETATM    8  C   UNL     1       5.302  29.776  49.279  1.00  0.00     0.081 A 
HETATM    9  C   UNL     1       5.970  31.025  49.443  1.00  0.00     0.100 C 
HETATM   10  N   UNL     1       6.514  32.040  49.585  1.00  0.00    -0.191 NA
HETATM   11  C   UNL     1       4.553  29.533  48.170  1.00  0.00     0.140 A 
HETATM   12  O   UNL     1       3.917  28.303  47.956  1.00  0.00    -0.277 OA
ENDROOT
BRANCH   7  13
HETATM   13  C   UNL     1       4.883  29.138  51.700  1.00  0.00    -0.041 A 
HETATM   14  C   UNL     1       5.545  28.859  52.902  1.00  0.00     0.027 A 
HETATM   15  C   UNL     1       4.961  29.247  54.098  1.00  0.00     0.116 A 
HETATM   16  N   UNL     1       3.779  29.892  54.182  1.00  0.00    -0.273 NA
HETATM   17  C   UNL     1       3.152  30.159  53.018  1.00  0.00     0.116 A 
HETATM   18  C   UNL     1       3.654  29.812  51.774  1.00  0.00     0.027 A 
ENDBRANCH   7  13
BRANCH  11  19
HETATM   19  N   UNL     1       4.329  30.432  47.150  1.00  0.00    -0.282 NA
HETATM   20  H   UNL     1       3.535  30.237  46.548  1.00  0.00     0.126 HD
HETATM   21  H   UNL     1       5.181  30.651  46.637  1.00  0.00     0.126 HD
ENDBRANCH  11  19
BRANCH   1  22
HETATM   22  C   UNL     1       5.539  25.590  51.732  1.00  0.00    -0.007 A 
HETATM   23  C   UNL     1       6.927  25.451  51.806  1.00  0.00     0.016 A 
HETATM   24  C   UNL     1       7.527  24.926  52.955  1.00  0.00     0.037 A 
HETATM   25  C   UNL     1       6.753  24.529  54.046  1.00  0.00     0.069 A 
HETATM   26  C   UNL     1       5.366  24.642  53.970  1.00  0.00     0.037 A 
HETATM   27  C   UNL     1       4.763  25.175  52.823  1.00  0.00     0.016 A 
BRANCH  25  28
HETATM   28  O   UNL     1       7.467  24.055  55.110  1.00  0.00    -0.347 OA
BRANCH  28  29
HETATM   29  C   UNL     1       6.941  24.309  56.414  1.00  0.00     0.214 C 
BRANCH  29  30
HETATM   30  C   UNL     1       7.092  25.775  56.754  1.00  0.00    -0.034 A 
HETATM   31  C   UNL     1       5.952  26.572  56.942  1.00  0.00     0.009 A 
HETATM   32  C   UNL     1       6.076  27.921  57.278  1.00  0.00     0.001 A 
HETATM   33  C   UNL     1       7.339  28.488  57.440  1.00  0.00     0.000 A 
HETATM   34  C   UNL     1       8.478  27.705  57.272  1.00  0.00     0.001 A 
HETATM   35  C   UNL     1       8.357  26.354  56.938  1.00  0.00     0.009 A 
ENDBRANCH  29  30
ENDBRANCH  28  29
ENDBRANCH  25  28
ENDBRANCH   1  22
TORSDOF 6
ENDMDL
MODEL 7
REMARK VINA RESULT:      -8.8      6.806      9.426
REMARK  6 active torsions:
REMARK  status: ('A' for Active; 'I' for Inactive)
REMARK    1  A    between atoms: C_4  and  C_5 
REMARK    2  A    between atoms: C_5  and  O_6 
REMARK    3  A    between atoms: O_6  and  C_7 
REMARK    4  A    between atoms: C_10  and  C_11 
REMARK    5  A    between atoms: C_17  and  C_18 
REMARK    6  A    between atoms: C_27  and  N_28 
ROOT
HETATM    1  C   UNL     1       3.228  27.984  49.221  1.00  0.00     0.072 A 
HETATM    2  N   UNL     1       1.997  27.381  49.056  1.00  0.00    -0.274 N 
HETATM    3  H   UNL     1       1.619  26.599  49.578  1.00  0.00     0.189 HD
HETATM    4  N   UNL     1       1.252  27.904  48.061  1.00  0.00    -0.148 NA
HETATM    5  C   UNL     1       2.045  28.852  47.583  1.00  0.00     0.199 A 
HETATM    6  C   UNL     1       3.261  28.982  48.259  1.00  0.00     0.040 A 
HETATM    7  C   UNL     1       4.241  30.025  47.852  1.00  0.00     0.106 A 
HETATM    8  C   UNL     1       3.779  30.746  46.590  1.00  0.00     0.081 A 
HETATM    9  C   UNL     1       4.704  31.661  46.006  1.00  0.00     0.100 C 
HETATM   10  N   UNL     1       5.461  32.406  45.539  1.00  0.00    -0.191 NA
HETATM   11  C   UNL     1       2.573  30.515  46.007  1.00  0.00     0.140 A 
HETATM   12  O   UNL     1       1.657  29.593  46.530  1.00  0.00    -0.277 OA
ENDROOT
BRANCH   7  13
HETATM   13  C   UNL     1       4.387  30.958  49.047  1.00  0.00    -0.041 A 
HETATM   14  C   UNL     1       5.663  31.283  49.524  1.00  0.00     0.027 A 
HETATM   15  C   UNL     1       5.778  32.150  50.600  1.00  0.00     0.116 A 
HETATM   16  N   UNL     1       4.724  32.716  51.224  1.00  0.00    -0.273 NA
HETATM   17  C   UNL     1       3.501  32.399  50.753  1.00  0.00     0.116 A 
HETATM   18  C   UNL     1       3.283  31.543  49.685  1.00  0.00     0.027 A 
ENDBRANCH   7  13
BRANCH  11  19
HETATM   19  N   UNL     1       2.110  31.136  44.867  1.00  0.00    -0.282 NA
HETATM   20  H   UNL     1       2.570  32.005  44.612  1.00  0.00     0.126 HD
HETATM   21  H   UNL     1       1.094  31.196  44.848  1.00  0.00     0.126 HD
ENDBRANCH  11  19
BRANCH   1  22
HETATM   22  C   UNL     1       4.189  27.555  50.230  1.00  0.00    -0.007 A 
HETATM   23  C   UNL     1       4.897  26.360  50.078  1.00  0.00     0.016 A 
HETATM   24  C   UNL     1       5.834  25.963  51.037  1.00  0.00     0.037 A 
HETATM   25  C   UNL     1       6.075  26.749  52.166  1.00  0.00     0.069 A 
HETATM   26  C   UNL     1       5.355  27.930  52.337  1.00  0.00     0.037 A 
HETATM   27  C   UNL     1       4.422  28.333  51.372  1.00  0.00     0.016 A 
BRANCH  25  28
HETATM   28  O   UNL     1       7.029  26.256  53.010  1.00  0.00    -0.347 OA
BRANCH  28  29
HETATM   29  C   UNL     1       7.884  25.230  52.502  1.00  0.00     0.214 C 
BRANCH  29  30
HETATM   30  C   UNL     1       7.818  24.014  53.398  1.00  0.00    -0.034 A 
HETATM   31  C   UNL     1       7.900  22.728  52.841  1.00  0.00     0.009 A 
HETATM   32  C   UNL     1       7.864  21.597  53.658  1.00  0.00     0.001 A 
HETATM   33  C   UNL     1       7.754  21.735  55.040  1.00  0.00     0.000 A 
HETATM   34  C   UNL     1       7.689  23.006  55.607  1.00  0.00     0.001 A 
HETATM   35  C   UNL     1       7.727  24.140  54.792  1.00  0.00     0.009 A 
ENDBRANCH  29  30
ENDBRANCH  28  29
ENDBRANCH  25  28
ENDBRANCH   1  22
TORSDOF 6
ENDMDL
MODEL 8
REMARK VINA RESULT:      -8.6      3.371      9.212
REMARK  6 active torsions:
REMARK  status: ('A' for Active; 'I' for Inactive)
REMARK    1  A    between atoms: C_4  and  C_5 
REMARK    2  A    between atoms: C_5  and  O_6 
REMARK    3  A    between atoms: O_6  and  C_7 
REMARK    4  A    between atoms: C_10  and  C_11 
REMARK    5  A    between atoms: C_17  and  C_18 
REMARK    6  A    between atoms: C_27  and  N_28 
ROOT
HETATM    1  C   UNL     1       4.080  30.483  55.634  1.00  0.00     0.072 A 
HETATM    2  N   UNL     1       3.559  31.124  54.527  1.00  0.00    -0.274 N 
HETATM    3  H   UNL     1       3.150  32.051  54.487  1.00  0.00     0.189 HD
HETATM    4  N   UNL     1       3.591  30.391  53.396  1.00  0.00    -0.148 NA
HETATM    5  C   UNL     1       4.137  29.256  53.810  1.00  0.00     0.199 A 
HETATM    6  C   UNL     1       4.490  29.246  55.162  1.00  0.00     0.040 A 
HETATM    7  C   UNL     1       5.141  28.049  55.761  1.00  0.00     0.106 A 
HETATM    8  C   UNL     1       5.199  26.900  54.759  1.00  0.00     0.081 A 
HETATM    9  C   UNL     1       5.656  25.645  55.258  1.00  0.00     0.100 C 
HETATM   10  N   UNL     1       6.031  24.628  55.670  1.00  0.00    -0.191 NA
HETATM   11  C   UNL     1       4.801  27.027  53.466  1.00  0.00     0.140 A 
HETATM   12  O   UNL     1       4.308  28.234  52.953  1.00  0.00    -0.277 OA
ENDROOT
BRANCH   7  13
HETATM   13  C   UNL     1       6.519  28.503  56.222  1.00  0.00    -0.041 A 
HETATM   14  C   UNL     1       6.799  28.593  57.591  1.00  0.00     0.027 A 
HETATM   15  C   UNL     1       8.066  28.988  57.994  1.00  0.00     0.116 A 
HETATM   16  N   UNL     1       9.065  29.290  57.140  1.00  0.00    -0.273 NA
HETATM   17  C   UNL     1       8.785  29.195  55.824  1.00  0.00     0.116 A 
HETATM   18  C   UNL     1       7.551  28.811  55.323  1.00  0.00     0.027 A 
ENDBRANCH   7  13
BRANCH  11  19
HETATM   19  N   UNL     1       4.830  26.022  52.524  1.00  0.00    -0.282 NA
HETATM   20  H   UNL     1       5.687  25.478  52.475  1.00  0.00     0.126 HD
HETATM   21  H   UNL     1       4.500  26.338  51.614  1.00  0.00     0.126 HD
ENDBRANCH  11  19
BRANCH   1  22
HETATM   22  C   UNL     1       4.122  31.098  56.955  1.00  0.00    -0.007 A 
HETATM   23  C   UNL     1       4.874  32.254  57.181  1.00  0.00     0.016 A 
HETATM   24  C   UNL     1       4.893  32.852  58.444  1.00  0.00     0.037 A 
HETATM   25  C   UNL     1       4.166  32.306  59.503  1.00  0.00     0.069 A 
HETATM   26  C   UNL     1       3.433  31.139  59.292  1.00  0.00     0.037 A 
HETATM   27  C   UNL     1       3.406  30.543  58.024  1.00  0.00     0.016 A 
BRANCH  25  28
HETATM   28  O   UNL     1       4.255  33.002  60.676  1.00  0.00    -0.347 OA
BRANCH  28  29
HETATM   29  C   UNL     1       5.296  33.975  60.779  1.00  0.00     0.214 C 
BRANCH  29  30
HETATM   30  C   UNL     1       6.206  33.635  61.938  1.00  0.00    -0.034 A 
HETATM   31  C   UNL     1       5.965  34.192  63.204  1.00  0.00     0.009 A 
HETATM   32  C   UNL     1       6.782  33.870  64.289  1.00  0.00     0.001 A 
HETATM   33  C   UNL     1       7.843  32.982  64.126  1.00  0.00     0.000 A 
HETATM   34  C   UNL     1       8.083  32.409  62.879  1.00  0.00     0.001 A 
HETATM   35  C   UNL     1       7.266  32.728  61.792  1.00  0.00     0.009 A 
ENDBRANCH  29  30
ENDBRANCH  28  29
ENDBRANCH  25  28
ENDBRANCH   1  22
TORSDOF 6
ENDMDL
MODEL 9
REMARK VINA RESULT:      -8.2      5.321      8.001
REMARK  6 active torsions:
REMARK  status: ('A' for Active; 'I' for Inactive)
REMARK    1  A    between atoms: C_4  and  C_5 
REMARK    2  A    between atoms: C_5  and  O_6 
REMARK    3  A    between atoms: O_6  and  C_7 
REMARK    4  A    between atoms: C_10  and  C_11 
REMARK    5  A    between atoms: C_17  and  C_18 
REMARK    6  A    between atoms: C_27  and  N_28 
ROOT
HETATM    1  C   UNL     1       6.117  32.703  62.322  1.00  0.00     0.072 A 
HETATM    2  N   UNL     1       7.399  32.207  62.454  1.00  0.00    -0.274 N 
HETATM    3  H   UNL     1       7.921  31.661  61.778  1.00  0.00     0.189 HD
HETATM    4  N   UNL     1       7.979  32.480  63.639  1.00  0.00    -0.148 NA
HETATM    5  C   UNL     1       7.029  33.155  64.271  1.00  0.00     0.199 A 
HETATM    6  C   UNL     1       5.869  33.356  63.518  1.00  0.00     0.040 A 
HETATM    7  C   UNL     1       4.727  34.124  64.087  1.00  0.00     0.106 A 
HETATM    8  C   UNL     1       4.980  34.475  65.549  1.00  0.00     0.081 A 
HETATM    9  C   UNL     1       3.894  35.072  66.255  1.00  0.00     0.100 C 
HETATM   10  N   UNL     1       3.008  35.561  66.822  1.00  0.00    -0.191 NA
HETATM   11  C   UNL     1       6.151  34.204  66.183  1.00  0.00     0.140 A 
HETATM   12  O   UNL     1       7.223  33.580  65.532  1.00  0.00    -0.277 OA
ENDROOT
BRANCH   7  13
HETATM   13  C   UNL     1       4.561  35.352  63.203  1.00  0.00    -0.041 A 
HETATM   14  C   UNL     1       5.588  36.302  63.132  1.00  0.00     0.027 A 
HETATM   15  C   UNL     1       5.429  37.404  62.305  1.00  0.00     0.116 A 
HETATM   16  N   UNL     1       4.335  37.622  61.548  1.00  0.00    -0.273 NA
HETATM   17  C   UNL     1       3.355  36.699  61.620  1.00  0.00     0.116 A 
HETATM   18  C   UNL     1       3.419  35.566  62.417  1.00  0.00     0.027 A 
ENDBRANCH   7  13
BRANCH  11  19
HETATM   19  N   UNL     1       6.428  34.497  67.501  1.00  0.00    -0.282 NA
HETATM   20  H   UNL     1       7.086  35.254  67.662  1.00  0.00     0.126 HD
HETATM   21  H   UNL     1       6.631  33.661  68.046  1.00  0.00     0.126 HD
ENDBRANCH  11  19
BRANCH   1  22
HETATM   22  C   UNL     1       5.312  32.501  61.123  1.00  0.00    -0.007 A 
HETATM   23  C   UNL     1       5.844  32.757  59.855  1.00  0.00     0.016 A 
HETATM   24  C   UNL     1       5.075  32.542  58.708  1.00  0.00     0.037 A 
HETATM   25  C   UNL     1       3.764  32.071  58.805  1.00  0.00     0.069 A 
HETATM   26  C   UNL     1       3.220  31.837  60.066  1.00  0.00     0.037 A 
HETATM   27  C   UNL     1       3.991  32.045  61.217  1.00  0.00     0.016 A 
BRANCH  25  28
HETATM   28  O   UNL     1       3.136  31.884  57.606  1.00  0.00    -0.347 OA
BRANCH  28  29
HETATM   29  C   UNL     1       3.914  32.077  56.424  1.00  0.00     0.214 C 
BRANCH  29  30
HETATM   30  C   UNL     1       3.991  30.786  55.641  1.00  0.00    -0.034 A 
HETATM   31  C   UNL     1       4.348  29.593  56.290  1.00  0.00     0.009 A 
HETATM   32  C   UNL     1       4.401  28.389  55.586  1.00  0.00     0.001 A 
HETATM   33  C   UNL     1       4.089  28.359  54.228  1.00  0.00     0.000 A 
HETATM   34  C   UNL     1       3.716  29.533  53.575  1.00  0.00     0.001 A 
HETATM   35  C   UNL     1       3.661  30.739  54.278  1.00  0.00     0.009 A 
ENDBRANCH  29  30
ENDBRANCH  28  29
ENDBRANCH  25  28
ENDBRANCH   1  22
TORSDOF 6
ENDMDL
MODEL 10
REMARK VINA RESULT:      -8.1      2.933      8.664
REMARK  6 active torsions:
REMARK  status: ('A' for Active; 'I' for Inactive)
REMARK    1  A    between atoms: C_4  and  C_5 
REMARK    2  A    between atoms: C_5  and  O_6 
REMARK    3  A    between atoms: O_6  and  C_7 
REMARK    4  A    between atoms: C_10  and  C_11 
REMARK    5  A    between atoms: C_17  and  C_18 
REMARK    6  A    between atoms: C_27  and  N_28 
ROOT
HETATM    1  C   UNL     1       4.684  27.795  54.751  1.00  0.00     0.072 A 
HETATM    2  N   UNL     1       4.052  27.489  53.562  1.00  0.00    -0.274 N 
HETATM    3  H   UNL     1       3.322  28.018  53.098  1.00  0.00     0.189 HD
HETATM    4  N   UNL     1       4.461  26.336  52.997  1.00  0.00    -0.148 NA
HETATM    5  C   UNL     1       5.366  25.902  53.863  1.00  0.00     0.199 A 
HETATM    6  C   UNL     1       5.579  26.756  54.949  1.00  0.00     0.040 A 
HETATM    7  C   UNL     1       6.588  26.413  55.989  1.00  0.00     0.106 A 
HETATM    8  C   UNL     1       7.171  25.025  55.748  1.00  0.00     0.081 A 
HETATM    9  C   UNL     1       8.033  24.513  56.762  1.00  0.00     0.100 C 
HETATM   10  N   UNL     1       8.737  24.105  57.589  1.00  0.00    -0.191 NA
HETATM   11  C   UNL     1       6.867  24.275  54.656  1.00  0.00     0.140 A 
HETATM   12  O   UNL     1       5.991  24.729  53.661  1.00  0.00    -0.277 OA
ENDROOT
BRANCH   7  13
HETATM   13  C   UNL     1       7.639  27.513  55.936  1.00  0.00    -0.041 A 
HETATM   14  C   UNL     1       8.119  27.958  54.698  1.00  0.00     0.027 A 
HETATM   15  C   UNL     1       9.061  28.976  54.668  1.00  0.00     0.116 A 
HETATM   16  N   UNL     1       9.548  29.581  55.771  1.00  0.00    -0.273 NA
HETATM   17  C   UNL     1       9.075  29.148  56.957  1.00  0.00     0.116 A 
HETATM   18  C   UNL     1       8.136  28.137  57.091  1.00  0.00     0.027 A 
ENDBRANCH   7  13
BRANCH  11  19
HETATM   19  N   UNL     1       7.363  23.016  54.393  1.00  0.00    -0.282 NA
HETATM   20  H   UNL     1       6.684  22.260  54.389  1.00  0.00     0.126 HD
HETATM   21  H   UNL     1       8.195  22.809  54.941  1.00  0.00     0.126 HD
ENDBRANCH  11  19
BRANCH   1  22
HETATM   22  C   UNL     1       4.372  28.989  55.526  1.00  0.00    -0.007 A 
HETATM   23  C   UNL     1       3.969  30.167  54.891  1.00  0.00     0.016 A 
HETATM   24  C   UNL     1       3.650  31.304  55.641  1.00  0.00     0.037 A 
HETATM   25  C   UNL     1       3.731  31.285  57.034  1.00  0.00     0.069 A 
HETATM   26  C   UNL     1       4.155  30.121  57.673  1.00  0.00     0.037 A 
HETATM   27  C   UNL     1       4.468  28.979  56.924  1.00  0.00     0.016 A 
BRANCH  25  28
HETATM   28  O   UNL     1       3.370  32.454  57.643  1.00  0.00    -0.347 OA
BRANCH  28  29
HETATM   29  C   UNL     1       4.402  33.414  57.875  1.00  0.00     0.214 C 
BRANCH  29  30
HETATM   30  C   UNL     1       5.036  33.172  59.226  1.00  0.00    -0.034 A 
HETATM   31  C   UNL     1       6.255  32.481  59.314  1.00  0.00     0.009 A 
HETATM   32  C   UNL     1       6.864  32.269  60.553  1.00  0.00     0.001 A 
HETATM   33  C   UNL     1       6.268  32.753  61.716  1.00  0.00     0.000 A 
HETATM   34  C   UNL     1       5.067  33.455  61.641  1.00  0.00     0.001 A 
HETATM   35  C   UNL     1       4.456  33.669  60.403  1.00  0.00     0.009 A 
ENDBRANCH  29  30
ENDBRANCH  28  29
ENDBRANCH  25  28
ENDBRANCH   1  22
TORSDOF 6
ENDMDL
