MODEL 1
REMARK VINA RESULT:      -8.7      0.000      0.000
REMARK  8 active torsions:
REMARK  status: ('A' for Active; 'I' for Inactive)
REMARK    1  A    between atoms: C_2  and  C_3 
REMARK    2  A    between atoms: C_3  and  N_4 
REMARK    3  A    between atoms: C_3  and  C_19 
REMARK       I    between atoms: C_19  and  N_20 
REMARK    4  A    between atoms: N_20  and  C_21 
REMARK    5  A    between atoms: C_21  and  C_22 
REMARK    6  A    between atoms: C_22  and  C_23 
REMARK    7  A    between atoms: C_23  and  O_24 
REMARK    8  A    between atoms: O_24  and  C_25 
ROOT
HETATM    1  N   UNL     1       7.721  26.992  55.994  1.00  0.00    -0.220 N 
HETATM    2  N   UNL     1       7.364  27.204  54.653  1.00  0.00    -0.172 NA
HETATM    3  C   UNL     1       7.210  26.179  53.860  1.00  0.00     0.069 A 
HETATM    4  C   UNL     1       6.805  26.436  52.433  1.00  0.00     0.074 C 
HETATM    5  C   UNL     1       7.419  24.844  54.348  1.00  0.00     0.048 A 
HETATM    6  C   UNL     1       7.809  24.597  55.639  1.00  0.00     0.064 A 
HETATM    7  C   UNL     1       8.006  25.720  56.546  1.00  0.00     0.277 A 
HETATM    8  O   UNL     1       8.397  25.558  57.699  1.00  0.00    -0.266 OA
HETATM    9  S   UNL     1       7.227  23.441  53.431  1.00  0.00    -0.086 SA
HETATM   10  C   UNL     1       7.678  22.432  54.753  1.00  0.00     0.017 A 
HETATM   11  C   UNL     1       7.973  23.188  55.895  1.00  0.00    -0.002 A 
HETATM   12  C   UNL     1       7.760  21.025  54.752  1.00  0.00     0.020 A 
HETATM   13  C   UNL     1       8.150  20.369  55.919  1.00  0.00     0.001 A 
HETATM   14  C   UNL     1       8.452  21.090  57.065  1.00  0.00     0.001 A 
HETATM   15  C   UNL     1       8.366  22.485  57.063  1.00  0.00     0.014 A 
ENDROOT
BRANCH   1  16
HETATM   16  C   UNL     1       7.946  28.179  56.852  1.00  0.00     0.205 C 
BRANCH  16  17
HETATM   17  C   UNL     1       8.989  29.138  56.249  1.00  0.00     0.032 C 
HETATM   18  C   UNL     1      10.296  29.236  57.024  1.00  0.00     0.007 C 
ENDBRANCH  16  17
BRANCH  16  19
HETATM   19  C   UNL     1       6.700  28.954  57.337  1.00  0.00     0.242 C 
HETATM   20  N   UNL     1       6.915  30.257  57.710  1.00  0.00    -0.359 N 
HETATM   21  H   UNL     1       7.867  30.601  57.596  1.00  0.00     0.162 HD
HETATM   22  O   UNL     1       5.615  28.394  57.492  1.00  0.00    -0.271 OA
BRANCH  20  23
HETATM   23  C   UNL     1       5.885  31.127  58.237  1.00  0.00     0.125 C 
BRANCH  23  24
HETATM   24  C   UNL     1       6.446  32.150  59.221  1.00  0.00     0.046 C 
BRANCH  24  25
HETATM   25  C   UNL     1       7.916  31.888  59.535  1.00  0.00     0.169 C 
BRANCH  25  26
HETATM   26  O   UNL     1       8.028  30.698  60.310  1.00  0.00    -0.387 OA
BRANCH  26  27
HETATM   27  C   UNL     1       8.887  30.818  61.447  1.00  0.00     0.113 C 
HETATM   28  C   UNL     1       9.913  31.930  61.246  1.00  0.00     0.039 C 
HETATM   29  C   UNL     1       7.993  31.137  62.641  1.00  0.00     0.039 C 
ENDBRANCH  26  27
ENDBRANCH  25  26
ENDBRANCH  24  25
ENDBRANCH  23  24
ENDBRANCH  20  23
ENDBRANCH  16  19
ENDBRANCH   1  16
TORSDOF 8
ENDMDL
MODEL 2
REMARK VINA RESULT:      -8.2      4.049      7.773
REMARK  8 active torsions:
REMARK  status: ('A' for Active; 'I' for Inactive)
REMARK    1  A    between atoms: C_2  and  C_3 
REMARK    2  A    between atoms: C_3  and  N_4 
REMARK    3  A    between atoms: C_3  and  C_19 
REMARK       I    between atoms: C_19  and  N_20 
REMARK    4  A    between atoms: N_20  and  C_21 
REMARK    5  A    between atoms: C_21  and  C_22 
REMARK    6  A    between atoms: C_22  and  C_23 
REMARK    7  A    between atoms: C_23  and  O_24 
REMARK    8  A    between atoms: O_24  and  C_25 
ROOT
HETATM    1  N   UNL     1       5.914  26.242  54.308  1.00  0.00    -0.220 N 
HETATM    2  N   UNL     1       6.317  26.644  55.591  1.00  0.00    -0.172 NA
HETATM    3  C   UNL     1       7.084  25.861  56.298  1.00  0.00     0.069 A 
HETATM    4  C   UNL     1       7.518  26.329  57.662  1.00  0.00     0.074 C 
HETATM    5  C   UNL     1       7.502  24.589  55.778  1.00  0.00     0.048 A 
HETATM    6  C   UNL     1       7.097  24.141  54.546  1.00  0.00     0.064 A 
HETATM    7  C   UNL     1       6.226  24.984  53.738  1.00  0.00     0.277 A 
HETATM    8  O   UNL     1       5.799  24.613  52.649  1.00  0.00    -0.266 OA
HETATM    9  S   UNL     1       8.511  23.502  56.582  1.00  0.00    -0.086 SA
HETATM   10  C   UNL     1       8.431  22.365  55.290  1.00  0.00     0.017 A 
HETATM   11  C   UNL     1       7.625  22.834  54.244  1.00  0.00    -0.002 A 
HETATM   12  C   UNL     1       9.068  21.109  55.230  1.00  0.00     0.020 A 
HETATM   13  C   UNL     1       8.887  20.311  54.100  1.00  0.00     0.001 A 
HETATM   14  C   UNL     1       8.093  20.748  53.050  1.00  0.00     0.001 A 
HETATM   15  C   UNL     1       7.465  21.995  53.112  1.00  0.00     0.014 A 
ENDROOT
BRANCH   1  16
HETATM   16  C   UNL     1       4.995  27.128  53.555  1.00  0.00     0.205 C 
BRANCH  16  17
HETATM   17  C   UNL     1       4.333  28.180  54.464  1.00  0.00     0.032 C 
HETATM   18  C   UNL     1       3.578  29.279  53.730  1.00  0.00     0.007 C 
ENDBRANCH  16  17
BRANCH  16  19
HETATM   19  C   UNL     1       5.533  27.778  52.260  1.00  0.00     0.242 C 
HETATM   20  N   UNL     1       4.953  27.350  51.092  1.00  0.00    -0.359 N 
HETATM   21  H   UNL     1       4.199  26.674  51.192  1.00  0.00     0.162 HD
HETATM   22  O   UNL     1       6.501  28.537  52.277  1.00  0.00    -0.271 OA
BRANCH  20  23
HETATM   23  C   UNL     1       5.356  27.805  49.778  1.00  0.00     0.125 C 
BRANCH  23  24
HETATM   24  C   UNL     1       4.674  29.115  49.391  1.00  0.00     0.046 C 
BRANCH  24  25
HETATM   25  C   UNL     1       3.417  28.876  48.561  1.00  0.00     0.169 C 
BRANCH  25  26
HETATM   26  O   UNL     1       2.959  27.544  48.769  1.00  0.00    -0.387 OA
BRANCH  26  27
HETATM   27  C   UNL     1       2.675  26.827  47.564  1.00  0.00     0.113 C 
HETATM   28  C   UNL     1       3.013  25.347  47.713  1.00  0.00     0.039 C 
HETATM   29  C   UNL     1       1.184  27.002  47.293  1.00  0.00     0.039 C 
ENDBRANCH  26  27
ENDBRANCH  25  26
ENDBRANCH  24  25
ENDBRANCH  23  24
ENDBRANCH  20  23
ENDBRANCH  16  19
ENDBRANCH   1  16
TORSDOF 8
ENDMDL
MODEL 3
REMARK VINA RESULT:      -7.9      2.654      8.554
REMARK  8 active torsions:
REMARK  status: ('A' for Active; 'I' for Inactive)
REMARK    1  A    between atoms: C_2  and  C_3 
REMARK    2  A    between atoms: C_3  and  N_4 
REMARK    3  A    between atoms: C_3  and  C_19 
REMARK       I    between atoms: C_19  and  N_20 
REMARK    4  A    between atoms: N_20  and  C_21 
REMARK    5  A    between atoms: C_21  and  C_22 
REMARK    6  A    between atoms: C_22  and  C_23 
REMARK    7  A    between atoms: C_23  and  O_24 
REMARK    8  A    between atoms: O_24  and  C_25 
ROOT
HETATM    1  N   UNL     1       7.403  28.717  56.251  1.00  0.00    -0.220 N 
HETATM    2  N   UNL     1       8.804  28.742  56.165  1.00  0.00    -0.172 NA
HETATM    3  C   UNL     1       9.484  29.506  56.975  1.00  0.00     0.069 A 
HETATM    4  C   UNL     1      10.986  29.495  56.874  1.00  0.00     0.074 C 
HETATM    5  C   UNL     1       8.807  30.331  57.937  1.00  0.00     0.048 A 
HETATM    6  C   UNL     1       7.439  30.367  58.025  1.00  0.00     0.064 A 
HETATM    7  C   UNL     1       6.649  29.538  57.123  1.00  0.00     0.277 A 
HETATM    8  O   UNL     1       5.422  29.566  57.131  1.00  0.00    -0.266 OA
HETATM    9  S   UNL     1       9.572  31.340  59.052  1.00  0.00    -0.086 SA
HETATM   10  C   UNL     1       8.069  31.881  59.698  1.00  0.00     0.017 A 
HETATM   11  C   UNL     1       6.986  31.277  59.048  1.00  0.00    -0.002 A 
HETATM   12  C   UNL     1       7.885  32.808  60.743  1.00  0.00     0.020 A 
HETATM   13  C   UNL     1       6.587  33.135  61.137  1.00  0.00     0.001 A 
HETATM   14  C   UNL     1       5.494  32.556  60.510  1.00  0.00     0.001 A 
HETATM   15  C   UNL     1       5.682  31.635  59.476  1.00  0.00     0.014 A 
ENDROOT
BRANCH   1  16
HETATM   16  C   UNL     1       6.659  27.884  55.278  1.00  0.00     0.205 C 
BRANCH  16  17
HETATM   17  C   UNL     1       7.182  28.066  53.841  1.00  0.00     0.032 C 
HETATM   18  C   UNL     1       6.107  28.307  52.791  1.00  0.00     0.007 C 
ENDBRANCH  16  17
BRANCH  16  19
HETATM   19  C   UNL     1       6.479  26.386  55.613  1.00  0.00     0.242 C 
HETATM   20  N   UNL     1       7.435  25.839  56.431  1.00  0.00    -0.359 N 
HETATM   21  H   UNL     1       8.151  26.479  56.770  1.00  0.00     0.162 HD
HETATM   22  O   UNL     1       5.602  25.709  55.078  1.00  0.00    -0.271 OA
BRANCH  20  23
HETATM   23  C   UNL     1       7.465  24.443  56.816  1.00  0.00     0.125 C 
BRANCH  23  24
HETATM   24  C   UNL     1       8.760  23.758  56.386  1.00  0.00     0.046 C 
BRANCH  24  25
HETATM   25  C   UNL     1       8.542  22.282  56.069  1.00  0.00     0.169 C 
BRANCH  25  26
HETATM   26  O   UNL     1       8.971  22.017  54.737  1.00  0.00    -0.387 OA
BRANCH  26  27
HETATM   27  C   UNL     1       7.905  21.887  53.793  1.00  0.00     0.113 C 
HETATM   28  C   UNL     1       7.808  23.121  52.902  1.00  0.00     0.039 C 
HETATM   29  C   UNL     1       8.214  20.653  52.951  1.00  0.00     0.039 C 
ENDBRANCH  26  27
ENDBRANCH  25  26
ENDBRANCH  24  25
ENDBRANCH  23  24
ENDBRANCH  20  23
ENDBRANCH  16  19
ENDBRANCH   1  16
TORSDOF 8
ENDMDL
MODEL 4
REMARK VINA RESULT:      -7.8      3.171      9.401
REMARK  8 active torsions:
REMARK  status: ('A' for Active; 'I' for Inactive)
REMARK    1  A    between atoms: C_2  and  C_3 
REMARK    2  A    between atoms: C_3  and  N_4 
REMARK    3  A    between atoms: C_3  and  C_19 
REMARK       I    between atoms: C_19  and  N_20 
REMARK    4  A    between atoms: N_20  and  C_21 
REMARK    5  A    between atoms: C_21  and  C_22 
REMARK    6  A    between atoms: C_22  and  C_23 
REMARK    7  A    between atoms: C_23  and  O_24 
REMARK    8  A    between atoms: O_24  and  C_25 
ROOT
HETATM    1  N   UNL     1       7.806  30.205  58.593  1.00  0.00    -0.220 N 
HETATM    2  N   UNL     1       8.667  29.993  59.682  1.00  0.00    -0.172 NA
HETATM    3  C   UNL     1       8.510  30.695  60.770  1.00  0.00     0.069 A 
HETATM    4  C   UNL     1       9.434  30.429  61.930  1.00  0.00     0.074 C 
HETATM    5  C   UNL     1       7.477  31.690  60.851  1.00  0.00     0.048 A 
HETATM    6  C   UNL     1       6.643  31.957  59.796  1.00  0.00     0.064 A 
HETATM    7  C   UNL     1       6.803  31.203  58.560  1.00  0.00     0.277 A 
HETATM    8  O   UNL     1       6.113  31.432  57.571  1.00  0.00    -0.266 OA
HETATM    9  S   UNL     1       7.159  32.642  62.208  1.00  0.00    -0.086 SA
HETATM   10  C   UNL     1       5.875  33.470  61.411  1.00  0.00     0.017 A 
HETATM   11  C   UNL     1       5.700  33.004  60.102  1.00  0.00    -0.002 A 
HETATM   12  C   UNL     1       5.067  34.492  61.949  1.00  0.00     0.020 A 
HETATM   13  C   UNL     1       4.070  35.057  61.154  1.00  0.00     0.001 A 
HETATM   14  C   UNL     1       3.876  34.619  59.852  1.00  0.00     0.001 A 
HETATM   15  C   UNL     1       4.677  33.603  59.324  1.00  0.00     0.014 A 
ENDROOT
BRANCH   1  16
HETATM   16  C   UNL     1       8.049  29.434  57.351  1.00  0.00     0.205 C 
BRANCH  16  17
HETATM   17  C   UNL     1       9.541  29.105  57.157  1.00  0.00     0.032 C 
HETATM   18  C   UNL     1      10.186  29.743  55.935  1.00  0.00     0.007 C 
ENDBRANCH  16  17
BRANCH  16  19
HETATM   19  C   UNL     1       7.173  28.184  57.106  1.00  0.00     0.242 C 
HETATM   20  N   UNL     1       7.691  26.995  57.554  1.00  0.00    -0.359 N 
HETATM   21  H   UNL     1       8.585  27.053  58.038  1.00  0.00     0.162 HD
HETATM   22  O   UNL     1       6.138  28.245  56.444  1.00  0.00    -0.271 OA
BRANCH  20  23
HETATM   23  C   UNL     1       7.043  25.713  57.373  1.00  0.00     0.125 C 
BRANCH  23  24
HETATM   24  C   UNL     1       7.804  24.819  56.397  1.00  0.00     0.046 C 
BRANCH  24  25
HETATM   25  C   UNL     1       7.274  24.955  54.973  1.00  0.00     0.169 C 
BRANCH  25  26
HETATM   26  O   UNL     1       6.834  23.682  54.509  1.00  0.00    -0.387 OA
BRANCH  26  27
HETATM   27  C   UNL     1       7.173  23.404  53.149  1.00  0.00     0.113 C 
HETATM   28  C   UNL     1       7.933  24.569  52.523  1.00  0.00     0.039 C 
HETATM   29  C   UNL     1       8.047  22.153  53.163  1.00  0.00     0.039 C 
ENDBRANCH  26  27
ENDBRANCH  25  26
ENDBRANCH  24  25
ENDBRANCH  23  24
ENDBRANCH  20  23
ENDBRANCH  16  19
ENDBRANCH   1  16
TORSDOF 8
ENDMDL
MODEL 5
REMARK VINA RESULT:      -7.8      2.536      5.302
REMARK  8 active torsions:
REMARK  status: ('A' for Active; 'I' for Inactive)
REMARK    1  A    between atoms: C_2  and  C_3 
REMARK    2  A    between atoms: C_3  and  N_4 
REMARK    3  A    between atoms: C_3  and  C_19 
REMARK       I    between atoms: C_19  and  N_20 
REMARK    4  A    between atoms: N_20  and  C_21 
REMARK    5  A    between atoms: C_21  and  C_22 
REMARK    6  A    between atoms: C_22  and  C_23 
REMARK    7  A    between atoms: C_23  and  O_24 
REMARK    8  A    between atoms: O_24  and  C_25 
ROOT
HETATM    1  N   UNL     1       7.252  26.682  55.367  1.00  0.00    -0.220 N 
HETATM    2  N   UNL     1       7.020  26.761  53.985  1.00  0.00    -0.172 NA
HETATM    3  C   UNL     1       7.071  25.676  53.262  1.00  0.00     0.069 A 
HETATM    4  C   UNL     1       6.795  25.788  51.786  1.00  0.00     0.074 C 
HETATM    5  C   UNL     1       7.379  24.412  53.870  1.00  0.00     0.048 A 
HETATM    6  C   UNL     1       7.654  24.298  55.209  1.00  0.00     0.064 A 
HETATM    7  C   UNL     1       7.622  25.494  56.041  1.00  0.00     0.277 A 
HETATM    8  O   UNL     1       7.902  25.455  57.236  1.00  0.00    -0.266 OA
HETATM    9  S   UNL     1       7.450  22.938  53.049  1.00  0.00    -0.086 SA
HETATM   10  C   UNL     1       7.870  22.081  54.484  1.00  0.00     0.017 A 
HETATM   11  C   UNL     1       7.952  22.940  55.588  1.00  0.00    -0.002 A 
HETATM   12  C   UNL     1       8.114  20.698  54.600  1.00  0.00     0.020 A 
HETATM   13  C   UNL     1       8.449  20.171  55.847  1.00  0.00     0.001 A 
HETATM   14  C   UNL     1       8.541  20.997  56.958  1.00  0.00     0.001 A 
HETATM   15  C   UNL     1       8.296  22.367  56.839  1.00  0.00     0.014 A 
ENDROOT
BRANCH   1  16
HETATM   16  C   UNL     1       7.246  27.941  56.149  1.00  0.00     0.205 C 
BRANCH  16  17
HETATM   17  C   UNL     1       8.489  28.804  55.866  1.00  0.00     0.032 C 
HETATM   18  C   UNL     1       9.482  28.897  57.016  1.00  0.00     0.007 C 
ENDBRANCH  16  17
BRANCH  16  19
HETATM   19  C   UNL     1       5.960  28.798  56.108  1.00  0.00     0.242 C 
HETATM   20  N   UNL     1       5.621  29.308  54.880  1.00  0.00    -0.359 N 
HETATM   21  H   UNL     1       6.226  29.043  54.106  1.00  0.00     0.162 HD
HETATM   22  O   UNL     1       5.356  29.098  57.137  1.00  0.00    -0.271 OA
BRANCH  20  23
HETATM   23  C   UNL     1       4.482  30.172  54.651  1.00  0.00     0.125 C 
BRANCH  23  24
HETATM   24  C   UNL     1       4.144  30.294  53.168  1.00  0.00     0.046 C 
BRANCH  24  25
HETATM   25  C   UNL     1       4.606  29.073  52.379  1.00  0.00     0.169 C 
BRANCH  25  26
HETATM   26  O   UNL     1       3.593  28.701  51.449  1.00  0.00    -0.387 OA
BRANCH  26  27
HETATM   27  C   UNL     1       3.915  28.984  50.086  1.00  0.00     0.113 C 
HETATM   28  C   UNL     1       5.395  28.739  49.809  1.00  0.00     0.039 C 
HETATM   29  C   UNL     1       3.059  28.055  49.231  1.00  0.00     0.039 C 
ENDBRANCH  26  27
ENDBRANCH  25  26
ENDBRANCH  24  25
ENDBRANCH  23  24
ENDBRANCH  20  23
ENDBRANCH  16  19
ENDBRANCH   1  16
TORSDOF 8
ENDMDL
MODEL 6
REMARK VINA RESULT:      -7.4      2.150      2.300
REMARK  8 active torsions:
REMARK  status: ('A' for Active; 'I' for Inactive)
REMARK    1  A    between atoms: C_2  and  C_3 
REMARK    2  A    between atoms: C_3  and  N_4 
REMARK    3  A    between atoms: C_3  and  C_19 
REMARK       I    between atoms: C_19  and  N_20 
REMARK    4  A    between atoms: N_20  and  C_21 
REMARK    5  A    between atoms: C_21  and  C_22 
REMARK    6  A    between atoms: C_22  and  C_23 
REMARK    7  A    between atoms: C_23  and  O_24 
REMARK    8  A    between atoms: O_24  and  C_25 
ROOT
HETATM    1  N   UNL     1       7.136  26.590  55.703  1.00  0.00    -0.220 N 
HETATM    2  N   UNL     1       6.945  26.794  54.327  1.00  0.00    -0.172 NA
HETATM    3  C   UNL     1       7.056  25.785  53.507  1.00  0.00     0.069 A 
HETATM    4  C   UNL     1       6.823  26.030  52.040  1.00  0.00     0.074 C 
HETATM    5  C   UNL     1       7.389  24.479  54.003  1.00  0.00     0.048 A 
HETATM    6  C   UNL     1       7.625  24.247  55.334  1.00  0.00     0.064 A 
HETATM    7  C   UNL     1       7.526  25.355  56.274  1.00  0.00     0.277 A 
HETATM    8  O   UNL     1       7.770  25.212  57.469  1.00  0.00    -0.266 OA
HETATM    9  S   UNL     1       7.537  23.094  53.050  1.00  0.00    -0.086 SA
HETATM   10  C   UNL     1       7.942  22.117  54.410  1.00  0.00     0.017 A 
HETATM   11  C   UNL     1       7.959  22.868  55.593  1.00  0.00    -0.002 A 
HETATM   12  C   UNL     1       8.230  20.737  54.403  1.00  0.00     0.020 A 
HETATM   13  C   UNL     1       8.544  20.105  55.606  1.00  0.00     0.001 A 
HETATM   14  C   UNL     1       8.572  20.823  56.792  1.00  0.00     0.001 A 
HETATM   15  C   UNL     1       8.283  22.190  56.796  1.00  0.00     0.014 A 
ENDROOT
BRANCH   1  16
HETATM   16  C   UNL     1       7.061  27.768  56.600  1.00  0.00     0.205 C 
BRANCH  16  17
HETATM   17  C   UNL     1       8.109  28.837  56.239  1.00  0.00     0.032 C 
HETATM   18  C   UNL     1       9.384  28.794  57.070  1.00  0.00     0.007 C 
ENDBRANCH  16  17
BRANCH  16  19
HETATM   19  C   UNL     1       5.672  28.410  56.818  1.00  0.00     0.242 C 
HETATM   20  N   UNL     1       5.657  29.561  57.565  1.00  0.00    -0.359 N 
HETATM   21  H   UNL     1       6.566  29.903  57.873  1.00  0.00     0.162 HD
HETATM   22  O   UNL     1       4.641  27.851  56.446  1.00  0.00    -0.271 OA
BRANCH  20  23
HETATM   23  C   UNL     1       4.451  30.278  57.918  1.00  0.00     0.125 C 
BRANCH  23  24
HETATM   24  C   UNL     1       4.374  31.641  57.236  1.00  0.00     0.046 C 
BRANCH  24  25
HETATM   25  C   UNL     1       3.954  32.739  58.209  1.00  0.00     0.169 C 
BRANCH  25  26
HETATM   26  O   UNL     1       3.687  32.164  59.484  1.00  0.00    -0.387 OA
BRANCH  26  27
HETATM   27  C   UNL     1       4.387  32.784  60.565  1.00  0.00     0.113 C 
HETATM   28  C   UNL     1       4.190  34.296  60.552  1.00  0.00     0.039 C 
HETATM   29  C   UNL     1       3.819  32.191  61.851  1.00  0.00     0.039 C 
ENDBRANCH  26  27
ENDBRANCH  25  26
ENDBRANCH  24  25
ENDBRANCH  23  24
ENDBRANCH  20  23
ENDBRANCH  16  19
ENDBRANCH   1  16
TORSDOF 8
ENDMDL
MODEL 7
REMARK VINA RESULT:      -7.4      1.952      3.325
REMARK  8 active torsions:
REMARK  status: ('A' for Active; 'I' for Inactive)
REMARK    1  A    between atoms: C_2  and  C_3 
REMARK    2  A    between atoms: C_3  and  N_4 
REMARK    3  A    between atoms: C_3  and  C_19 
REMARK       I    between atoms: C_19  and  N_20 
REMARK    4  A    between atoms: N_20  and  C_21 
REMARK    5  A    between atoms: C_21  and  C_22 
REMARK    6  A    between atoms: C_22  and  C_23 
REMARK    7  A    between atoms: C_23  and  O_24 
REMARK    8  A    between atoms: O_24  and  C_25 
ROOT
HETATM    1  N   UNL     1       7.005  26.298  55.078  1.00  0.00    -0.220 N 
HETATM    2  N   UNL     1       7.252  26.255  56.460  1.00  0.00    -0.172 NA
HETATM    3  C   UNL     1       7.701  25.155  56.998  1.00  0.00     0.069 A 
HETATM    4  C   UNL     1       7.979  25.146  58.478  1.00  0.00     0.074 C 
HETATM    5  C   UNL     1       7.925  23.989  56.189  1.00  0.00     0.048 A 
HETATM    6  C   UNL     1       7.656  23.976  54.845  1.00  0.00     0.064 A 
HETATM    7  C   UNL     1       7.138  25.184  54.216  1.00  0.00     0.277 A 
HETATM    8  O   UNL     1       6.839  25.214  53.025  1.00  0.00    -0.266 OA
HETATM    9  S   UNL     1       8.524  22.518  56.761  1.00  0.00    -0.086 SA
HETATM   10  C   UNL     1       8.432  21.794  55.200  1.00  0.00     0.017 A 
HETATM   11  C   UNL     1       7.940  22.695  54.247  1.00  0.00    -0.002 A 
HETATM   12  C   UNL     1       8.790  20.474  54.859  1.00  0.00     0.020 A 
HETATM   13  C   UNL     1       8.645  20.053  53.538  1.00  0.00     0.001 A 
HETATM   14  C   UNL     1       8.156  20.922  52.572  1.00  0.00     0.001 A 
HETATM   15  C   UNL     1       7.806  22.230  52.913  1.00  0.00     0.014 A 
ENDROOT
BRANCH   1  16
HETATM   16  C   UNL     1       6.440  27.544  54.509  1.00  0.00     0.205 C 
BRANCH  16  17
HETATM   17  C   UNL     1       4.968  27.372  54.089  1.00  0.00     0.032 C 
HETATM   18  C   UNL     1       4.640  27.857  52.683  1.00  0.00     0.007 C 
ENDBRANCH  16  17
BRANCH  16  19
HETATM   19  C   UNL     1       6.634  28.848  55.316  1.00  0.00     0.242 C 
HETATM   20  N   UNL     1       7.819  28.956  55.999  1.00  0.00    -0.359 N 
HETATM   21  H   UNL     1       8.474  28.186  55.879  1.00  0.00     0.162 HD
HETATM   22  O   UNL     1       5.728  29.672  55.431  1.00  0.00    -0.271 OA
BRANCH  20  23
HETATM   23  C   UNL     1       8.162  30.078  56.848  1.00  0.00     0.125 C 
BRANCH  23  24
HETATM   24  C   UNL     1       9.414  29.807  57.678  1.00  0.00     0.046 C 
BRANCH  24  25
HETATM   25  C   UNL     1       9.735  30.968  58.614  1.00  0.00     0.169 C 
BRANCH  25  26
HETATM   26  O   UNL     1       8.592  31.809  58.733  1.00  0.00    -0.387 OA
BRANCH  26  27
HETATM   27  C   UNL     1       8.423  32.389  60.029  1.00  0.00     0.113 C 
HETATM   28  C   UNL     1       7.148  31.882  60.695  1.00  0.00     0.039 C 
HETATM   29  C   UNL     1       9.643  31.986  60.851  1.00  0.00     0.039 C 
ENDBRANCH  26  27
ENDBRANCH  25  26
ENDBRANCH  24  25
ENDBRANCH  23  24
ENDBRANCH  20  23
ENDBRANCH  16  19
ENDBRANCH   1  16
TORSDOF 8
ENDMDL
MODEL 8
REMARK VINA RESULT:      -7.3      4.700      7.410
REMARK  8 active torsions:
REMARK  status: ('A' for Active; 'I' for Inactive)
REMARK    1  A    between atoms: C_2  and  C_3 
REMARK    2  A    between atoms: C_3  and  N_4 
REMARK    3  A    between atoms: C_3  and  C_19 
REMARK       I    between atoms: C_19  and  N_20 
REMARK    4  A    between atoms: N_20  and  C_21 
REMARK    5  A    between atoms: C_21  and  C_22 
REMARK    6  A    between atoms: C_22  and  C_23 
REMARK    7  A    between atoms: C_23  and  O_24 
REMARK    8  A    between atoms: O_24  and  C_25 
ROOT
HETATM    1  N   UNL     1       5.772  27.065  52.439  1.00  0.00    -0.220 N 
HETATM    2  N   UNL     1       5.285  27.614  53.636  1.00  0.00    -0.172 NA
HETATM    3  C   UNL     1       5.456  26.968  54.756  1.00  0.00     0.069 A 
HETATM    4  C   UNL     1       4.943  27.593  56.026  1.00  0.00     0.074 C 
HETATM    5  C   UNL     1       6.121  25.695  54.766  1.00  0.00     0.048 A 
HETATM    6  C   UNL     1       6.574  25.104  53.614  1.00  0.00     0.064 A 
HETATM    7  C   UNL     1       6.383  25.792  52.344  1.00  0.00     0.277 A 
HETATM    8  O   UNL     1       6.730  25.288  51.280  1.00  0.00    -0.266 OA
HETATM    9  S   UNL     1       6.425  24.775  56.149  1.00  0.00    -0.086 SA
HETATM   10  C   UNL     1       7.177  23.523  55.235  1.00  0.00     0.017 A 
HETATM   11  C   UNL     1       7.190  23.825  53.867  1.00  0.00    -0.002 A 
HETATM   12  C   UNL     1       7.728  22.327  55.736  1.00  0.00     0.020 A 
HETATM   13  C   UNL     1       8.297  21.417  54.845  1.00  0.00     0.001 A 
HETATM   14  C   UNL     1       8.322  21.687  53.484  1.00  0.00     0.001 A 
HETATM   15  C   UNL     1       7.777  22.876  52.992  1.00  0.00     0.014 A 
ENDROOT
BRANCH   1  16
HETATM   16  C   UNL     1       5.509  27.796  51.178  1.00  0.00     0.205 C 
BRANCH  16  17
HETATM   17  C   UNL     1       4.293  27.227  50.422  1.00  0.00     0.032 C 
HETATM   18  C   UNL     1       4.587  26.729  49.014  1.00  0.00     0.007 C 
ENDBRANCH  16  17
BRANCH  16  19
HETATM   19  C   UNL     1       5.440  29.339  51.250  1.00  0.00     0.242 C 
HETATM   20  N   UNL     1       4.400  29.856  51.981  1.00  0.00    -0.359 N 
HETATM   21  H   UNL     1       3.795  29.176  52.437  1.00  0.00     0.162 HD
HETATM   22  O   UNL     1       6.200  30.046  50.590  1.00  0.00    -0.271 OA
BRANCH  20  23
HETATM   23  C   UNL     1       4.141  31.273  52.123  1.00  0.00     0.125 C 
BRANCH  23  24
HETATM   24  C   UNL     1       2.677  31.617  51.859  1.00  0.00     0.046 C 
BRANCH  24  25
HETATM   25  C   UNL     1       2.164  30.969  50.576  1.00  0.00     0.169 C 
BRANCH  25  26
HETATM   26  O   UNL     1       3.149  31.098  49.556  1.00  0.00    -0.387 OA
BRANCH  26  27
HETATM   27  C   UNL     1       2.765  30.542  48.296  1.00  0.00     0.113 C 
HETATM   28  C   UNL     1       3.985  30.090  47.500  1.00  0.00     0.039 C 
HETATM   29  C   UNL     1       1.863  29.350  48.600  1.00  0.00     0.039 C 
ENDBRANCH  26  27
ENDBRANCH  25  26
ENDBRANCH  24  25
ENDBRANCH  23  24
ENDBRANCH  20  23
ENDBRANCH  16  19
ENDBRANCH   1  16
TORSDOF 8
ENDMDL
MODEL 9
REMARK VINA RESULT:      -7.3      2.728      8.438
REMARK  8 active torsions:
REMARK  status: ('A' for Active; 'I' for Inactive)
REMARK    1  A    between atoms: C_2  and  C_3 
REMARK    2  A    between atoms: C_3  and  N_4 
REMARK    3  A    between atoms: C_3  and  C_19 
REMARK       I    between atoms: C_19  and  N_20 
REMARK    4  A    between atoms: N_20  and  C_21 
REMARK    5  A    between atoms: C_21  and  C_22 
REMARK    6  A    between atoms: C_22  and  C_23 
REMARK    7  A    between atoms: C_23  and  O_24 
REMARK    8  A    between atoms: O_24  and  C_25 
ROOT
HETATM    1  N   UNL     1       6.847  27.972  56.802  1.00  0.00    -0.220 N 
HETATM    2  N   UNL     1       5.570  28.427  56.436  1.00  0.00    -0.172 NA
HETATM    3  C   UNL     1       5.117  29.541  56.940  1.00  0.00     0.069 A 
HETATM    4  C   UNL     1       3.753  30.015  56.512  1.00  0.00     0.074 C 
HETATM    5  C   UNL     1       5.908  30.291  57.876  1.00  0.00     0.048 A 
HETATM    6  C   UNL     1       7.142  29.860  58.291  1.00  0.00     0.064 A 
HETATM    7  C   UNL     1       7.671  28.610  57.760  1.00  0.00     0.277 A 
HETATM    8  O   UNL     1       8.750  28.157  58.130  1.00  0.00    -0.266 OA
HETATM    9  S   UNL     1       5.445  31.755  58.576  1.00  0.00    -0.086 SA
HETATM   10  C   UNL     1       6.904  31.860  59.487  1.00  0.00     0.017 A 
HETATM   11  C   UNL     1       7.740  30.763  59.242  1.00  0.00    -0.002 A 
HETATM   12  C   UNL     1       7.270  32.888  60.379  1.00  0.00     0.020 A 
HETATM   13  C   UNL     1       8.496  32.808  61.038  1.00  0.00     0.001 A 
HETATM   14  C   UNL     1       9.344  31.732  60.819  1.00  0.00     0.001 A 
HETATM   15  C   UNL     1       8.979  30.717  59.931  1.00  0.00     0.014 A 
ENDROOT
BRANCH   1  16
HETATM   16  C   UNL     1       7.308  26.673  56.257  1.00  0.00     0.205 C 
BRANCH  16  17
HETATM   17  C   UNL     1       7.307  25.565  57.327  1.00  0.00     0.032 C 
HETATM   18  C   UNL     1       8.597  24.762  57.422  1.00  0.00     0.007 C 
ENDBRANCH  16  17
BRANCH  16  19
HETATM   19  C   UNL     1       6.651  26.176  54.949  1.00  0.00     0.242 C 
HETATM   20  N   UNL     1       7.342  26.447  53.795  1.00  0.00    -0.359 N 
HETATM   21  H   UNL     1       8.239  26.916  53.912  1.00  0.00     0.162 HD
HETATM   22  O   UNL     1       5.525  25.681  54.943  1.00  0.00    -0.271 OA
BRANCH  20  23
HETATM   23  C   UNL     1       6.866  26.107  52.471  1.00  0.00     0.125 C 
BRANCH  23  24
HETATM   24  C   UNL     1       7.564  24.869  51.912  1.00  0.00     0.046 C 
BRANCH  24  25
HETATM   25  C   UNL     1       7.225  23.616  52.713  1.00  0.00     0.169 C 
BRANCH  25  26
HETATM   26  O   UNL     1       8.277  22.667  52.573  1.00  0.00    -0.387 OA
BRANCH  26  27
HETATM   27  C   UNL     1       8.519  21.883  53.744  1.00  0.00     0.113 C 
HETATM   28  C   UNL     1       7.610  22.313  54.890  1.00  0.00     0.039 C 
HETATM   29  C   UNL     1       8.238  20.432  53.364  1.00  0.00     0.039 C 
ENDBRANCH  26  27
ENDBRANCH  25  26
ENDBRANCH  24  25
ENDBRANCH  23  24
ENDBRANCH  20  23
ENDBRANCH  16  19
ENDBRANCH   1  16
TORSDOF 8
ENDMDL
MODEL 10
REMARK VINA RESULT:      -7.2      2.372      4.095
REMARK  8 active torsions:
REMARK  status: ('A' for Active; 'I' for Inactive)
REMARK    1  A    between atoms: C_2  and  C_3 
REMARK    2  A    between atoms: C_3  and  N_4 
REMARK    3  A    between atoms: C_3  and  C_19 
REMARK       I    between atoms: C_19  and  N_20 
REMARK    4  A    between atoms: N_20  and  C_21 
REMARK    5  A    between atoms: C_21  and  C_22 
REMARK    6  A    between atoms: C_22  and  C_23 
REMARK    7  A    between atoms: C_23  and  O_24 
REMARK    8  A    between atoms: O_24  and  C_25 
ROOT
HETATM    1  N   UNL     1       6.395  26.231  53.749  1.00  0.00    -0.220 N 
HETATM    2  N   UNL     1       6.537  26.697  55.066  1.00  0.00    -0.172 NA
HETATM    3  C   UNL     1       7.062  25.917  55.970  1.00  0.00     0.069 A 
HETATM    4  C   UNL     1       7.223  26.452  57.369  1.00  0.00     0.074 C 
HETATM    5  C   UNL     1       7.476  24.584  55.629  1.00  0.00     0.048 A 
HETATM    6  C   UNL     1       7.315  24.077  54.365  1.00  0.00     0.064 A 
HETATM    7  C   UNL     1       6.717  24.916  53.336  1.00  0.00     0.277 A 
HETATM    8  O   UNL     1       6.510  24.497  52.201  1.00  0.00    -0.266 OA
HETATM    9  S   UNL     1       8.189  23.491  56.699  1.00  0.00    -0.086 SA
HETATM   10  C   UNL     1       8.300  22.271  55.488  1.00  0.00     0.017 A 
HETATM   11  C   UNL     1       7.786  22.717  54.263  1.00  0.00    -0.002 A 
HETATM   12  C   UNL     1       8.827  20.973  55.643  1.00  0.00     0.020 A 
HETATM   13  C   UNL     1       8.833  20.109  54.547  1.00  0.00     0.001 A 
HETATM   14  C   UNL     1       8.328  20.522  53.323  1.00  0.00     0.001 A 
HETATM   15  C   UNL     1       7.809  21.811  53.173  1.00  0.00     0.014 A 
ENDROOT
BRANCH   1  16
HETATM   16  C   UNL     1       5.741  27.120  52.761  1.00  0.00     0.205 C 
BRANCH  16  17
HETATM   17  C   UNL     1       5.145  26.333  51.579  1.00  0.00     0.032 C 
HETATM   18  C   UNL     1       5.075  27.100  50.266  1.00  0.00     0.007 C 
ENDBRANCH  16  17
BRANCH  16  19
HETATM   19  C   UNL     1       4.728  28.159  53.298  1.00  0.00     0.242 C 
HETATM   20  N   UNL     1       5.271  29.300  53.832  1.00  0.00    -0.359 N 
HETATM   21  H   UNL     1       6.286  29.372  53.790  1.00  0.00     0.162 HD
HETATM   22  O   UNL     1       3.524  27.913  53.349  1.00  0.00    -0.271 OA
BRANCH  20  23
HETATM   23  C   UNL     1       4.489  30.363  54.427  1.00  0.00     0.125 C 
BRANCH  23  24
HETATM   24  C   UNL     1       5.083  30.839  55.750  1.00  0.00     0.046 C 
BRANCH  24  25
HETATM   25  C   UNL     1       4.569  30.020  56.931  1.00  0.00     0.169 C 
BRANCH  25  26
HETATM   26  O   UNL     1       5.649  29.738  57.815  1.00  0.00    -0.387 OA
BRANCH  26  27
HETATM   27  C   UNL     1       6.656  30.753  57.852  1.00  0.00     0.113 C 
HETATM   28  C   UNL     1       6.411  31.728  58.999  1.00  0.00     0.039 C 
HETATM   29  C   UNL     1       7.990  30.038  58.045  1.00  0.00     0.039 C 
ENDBRANCH  26  27
ENDBRANCH  25  26
ENDBRANCH  24  25
ENDBRANCH  23  24
ENDBRANCH  20  23
ENDBRANCH  16  19
ENDBRANCH   1  16
TORSDOF 8
ENDMDL
