MODEL 1
REMARK VINA RESULT:      -9.3      0.000      0.000
REMARK  5 active torsions:
REMARK  status: ('A' for Active; 'I' for Inactive)
REMARK    1  A    between atoms: C_4  and  C_5 
REMARK    2  A    between atoms: C_5  and  N_6 
REMARK    3  A    between atoms: C_7  and  C_8 
REMARK       I    between atoms: C_8  and  N_9 
REMARK    4  A    between atoms: N_9  and  N_10 
REMARK       I    between atoms: N_10  and  C_11 
REMARK    5  A    between atoms: C_11  and  C_12 
ROOT
HETATM    1  N   UNL     1       6.313  25.444  53.737  1.00  0.00    -0.337 N 
HETATM    2  C   UNL     1       6.383  25.492  52.349  1.00  0.00     0.106 A 
HETATM    3  C   UNL     1       7.228  24.455  51.973  1.00  0.00     0.049 A 
HETATM    4  C   UNL     1       7.638  23.746  53.130  1.00  0.00    -0.007 A 
HETATM    5  C   UNL     1       7.042  24.367  54.225  1.00  0.00     0.045 A 
HETATM    6  C   UNL     1       8.459  22.620  53.336  1.00  0.00     0.014 A 
HETATM    7  C   UNL     1       8.661  22.143  54.635  1.00  0.00     0.001 A 
HETATM    8  C   UNL     1       8.058  22.772  55.717  1.00  0.00     0.002 A 
HETATM    9  C   UNL     1       7.240  23.892  55.535  1.00  0.00     0.030 A 
ENDROOT
BRANCH   2  10
HETATM   10  C   UNL     1       5.676  26.436  51.499  1.00  0.00     0.286 C 
HETATM   11  N   UNL     1       4.781  25.868  50.614  1.00  0.00    -0.262 N 
HETATM   12  H   UNL     1       4.661  24.867  50.492  1.00  0.00     0.190 HD
HETATM   13  O   UNL     1       5.818  27.659  51.550  1.00  0.00    -0.264 OA
BRANCH  11  14
HETATM   14  N   UNL     1       3.983  26.701  49.822  1.00  0.00    -0.262 N 
HETATM   15  C   UNL     1       3.349  26.169  48.720  1.00  0.00     0.286 C 
HETATM   16  O   UNL     1       3.515  24.997  48.379  1.00  0.00    -0.264 OA
HETATM   17  H   UNL     1       3.873  27.661  50.132  1.00  0.00     0.190 HD
BRANCH  15  18
HETATM   18  C   UNL     1       2.482  27.075  47.999  1.00  0.00     0.102 A 
HETATM   19  N   UNL     1       1.117  26.876  47.951  1.00  0.00    -0.361 N 
HETATM   20  H   UNL     1       0.647  26.100  48.402  1.00  0.00     0.165 HD
HETATM   21  C   UNL     1       0.518  27.863  47.217  1.00  0.00     0.088 A 
HETATM   22  C   UNL     1       1.501  28.723  46.787  1.00  0.00     0.019 A 
HETATM   23  C   UNL     1       2.736  28.230  47.276  1.00  0.00     0.036 A 
ENDBRANCH  15  18
ENDBRANCH  11  14
ENDBRANCH   2  10
BRANCH   1  24
HETATM   24  C   UNL     1       5.583  26.385  54.587  1.00  0.00     0.168 C 
BRANCH  24  25
HETATM   25  C   UNL     1       6.500  27.266  55.406  1.00  0.00    -0.040 A 
HETATM   26  C   UNL     1       6.443  27.227  56.807  1.00  0.00     0.009 A 
HETATM   27  C   UNL     1       7.315  27.999  57.577  1.00  0.00     0.001 A 
HETATM   28  C   UNL     1       8.257  28.817  56.958  1.00  0.00     0.000 A 
HETATM   29  C   UNL     1       8.327  28.865  55.568  1.00  0.00     0.001 A 
HETATM   30  C   UNL     1       7.459  28.092  54.796  1.00  0.00     0.009 A 
ENDBRANCH  24  25
ENDBRANCH   1  24
TORSDOF 5
ENDMDL
MODEL 2
REMARK VINA RESULT:      -9.3      1.370      4.001
REMARK  5 active torsions:
REMARK  status: ('A' for Active; 'I' for Inactive)
REMARK    1  A    between atoms: C_4  and  C_5 
REMARK    2  A    between atoms: C_5  and  N_6 
REMARK    3  A    between atoms: C_7  and  C_8 
REMARK       I    between atoms: C_8  and  N_9 
REMARK    4  A    between atoms: N_9  and  N_10 
REMARK       I    between atoms: N_10  and  C_11 
REMARK    5  A    between atoms: C_11  and  C_12 
ROOT
HETATM    1  N   UNL     1       6.408  26.379  54.331  1.00  0.00    -0.337 N 
HETATM    2  C   UNL     1       6.283  27.208  53.220  1.00  0.00     0.106 A 
HETATM    3  C   UNL     1       6.998  28.360  53.522  1.00  0.00     0.049 A 
HETATM    4  C   UNL     1       7.598  28.215  54.798  1.00  0.00    -0.007 A 
HETATM    5  C   UNL     1       7.233  26.961  55.283  1.00  0.00     0.045 A 
HETATM    6  C   UNL     1       8.431  29.042  55.577  1.00  0.00     0.014 A 
HETATM    7  C   UNL     1       8.878  28.592  56.823  1.00  0.00     0.001 A 
HETATM    8  C   UNL     1       8.507  27.337  57.292  1.00  0.00     0.002 A 
HETATM    9  C   UNL     1       7.681  26.501  56.535  1.00  0.00     0.030 A 
ENDROOT
BRANCH   2  10
HETATM   10  C   UNL     1       5.562  26.885  52.000  1.00  0.00     0.286 C 
HETATM   11  N   UNL     1       4.405  27.610  51.797  1.00  0.00    -0.262 N 
HETATM   12  H   UNL     1       4.023  28.270  52.468  1.00  0.00     0.190 HD
HETATM   13  O   UNL     1       5.934  26.052  51.172  1.00  0.00    -0.264 OA
BRANCH  11  14
HETATM   14  N   UNL     1       3.693  27.439  50.604  1.00  0.00    -0.262 N 
HETATM   15  C   UNL     1       2.941  28.486  50.118  1.00  0.00     0.286 C 
HETATM   16  O   UNL     1       2.829  29.546  50.735  1.00  0.00    -0.264 OA
HETATM   17  H   UNL     1       3.806  26.551  50.126  1.00  0.00     0.190 HD
BRANCH  15  18
HETATM   18  C   UNL     1       2.299  28.257  48.843  1.00  0.00     0.102 A 
HETATM   19  N   UNL     1       1.855  27.001  48.479  1.00  0.00    -0.361 N 
HETATM   20  H   UNL     1       1.952  26.180  49.065  1.00  0.00     0.165 HD
HETATM   21  C   UNL     1       1.282  27.040  47.238  1.00  0.00     0.088 A 
HETATM   22  C   UNL     1       1.343  28.337  46.786  1.00  0.00     0.019 A 
HETATM   23  C   UNL     1       1.982  29.103  47.792  1.00  0.00     0.036 A 
ENDBRANCH  15  18
ENDBRANCH  11  14
ENDBRANCH   2  10
BRANCH   1  24
HETATM   24  C   UNL     1       5.769  25.073  54.495  1.00  0.00     0.168 C 
BRANCH  24  25
HETATM   25  C   UNL     1       6.734  23.923  54.308  1.00  0.00    -0.040 A 
HETATM   26  C   UNL     1       7.155  23.175  55.418  1.00  0.00     0.009 A 
HETATM   27  C   UNL     1       8.010  22.082  55.257  1.00  0.00     0.001 A 
HETATM   28  C   UNL     1       8.452  21.722  53.985  1.00  0.00     0.000 A 
HETATM   29  C   UNL     1       8.041  22.454  52.875  1.00  0.00     0.001 A 
HETATM   30  C   UNL     1       7.185  23.545  53.034  1.00  0.00     0.009 A 
ENDBRANCH  24  25
ENDBRANCH   1  24
TORSDOF 5
ENDMDL
MODEL 3
REMARK VINA RESULT:      -9.3      1.625      4.491
REMARK  5 active torsions:
REMARK  status: ('A' for Active; 'I' for Inactive)
REMARK    1  A    between atoms: C_4  and  C_5 
REMARK    2  A    between atoms: C_5  and  N_6 
REMARK    3  A    between atoms: C_7  and  C_8 
REMARK       I    between atoms: C_8  and  N_9 
REMARK    4  A    between atoms: N_9  and  N_10 
REMARK       I    between atoms: N_10  and  C_11 
REMARK    5  A    between atoms: C_11  and  C_12 
ROOT
HETATM    1  N   UNL     1       6.888  27.487  54.586  1.00  0.00    -0.337 N 
HETATM    2  C   UNL     1       5.507  27.600  54.462  1.00  0.00     0.106 A 
HETATM    3  C   UNL     1       5.077  28.277  55.596  1.00  0.00     0.049 A 
HETATM    4  C   UNL     1       6.200  28.617  56.391  1.00  0.00    -0.007 A 
HETATM    5  C   UNL     1       7.329  28.130  55.735  1.00  0.00     0.045 A 
HETATM    6  C   UNL     1       6.352  29.308  57.608  1.00  0.00     0.014 A 
HETATM    7  C   UNL     1       7.632  29.495  58.139  1.00  0.00     0.001 A 
HETATM    8  C   UNL     1       8.749  29.006  57.472  1.00  0.00     0.002 A 
HETATM    9  C   UNL     1       8.620  28.317  56.262  1.00  0.00     0.030 A 
ENDROOT
BRANCH   2  10
HETATM   10  C   UNL     1       4.717  27.117  53.341  1.00  0.00     0.286 C 
HETATM   11  N   UNL     1       4.367  28.080  52.416  1.00  0.00    -0.262 N 
HETATM   12  H   UNL     1       4.568  29.071  52.523  1.00  0.00     0.190 HD
HETATM   13  O   UNL     1       4.384  25.942  53.180  1.00  0.00    -0.264 OA
BRANCH  11  14
HETATM   14  N   UNL     1       3.689  27.696  51.254  1.00  0.00    -0.262 N 
HETATM   15  C   UNL     1       4.392  27.587  50.074  1.00  0.00     0.286 C 
HETATM   16  O   UNL     1       5.586  27.879  50.001  1.00  0.00    -0.264 OA
HETATM   17  H   UNL     1       2.704  27.467  51.352  1.00  0.00     0.190 HD
BRANCH  15  18
HETATM   18  C   UNL     1       3.636  27.111  48.937  1.00  0.00     0.102 A 
HETATM   19  N   UNL     1       2.260  27.220  48.893  1.00  0.00    -0.361 N 
HETATM   20  H   UNL     1       1.706  27.626  49.637  1.00  0.00     0.165 HD
HETATM   21  C   UNL     1       1.779  26.705  47.720  1.00  0.00     0.088 A 
HETATM   22  C   UNL     1       2.852  26.262  46.983  1.00  0.00     0.019 A 
HETATM   23  C   UNL     1       4.020  26.514  47.745  1.00  0.00     0.036 A 
ENDBRANCH  15  18
ENDBRANCH  11  14
ENDBRANCH   2  10
BRANCH   1  24
HETATM   24  C   UNL     1       7.774  26.791  53.651  1.00  0.00     0.168 C 
BRANCH  24  25
HETATM   25  C   UNL     1       7.706  25.287  53.793  1.00  0.00    -0.040 A 
HETATM   26  C   UNL     1       7.871  24.468  52.665  1.00  0.00     0.009 A 
HETATM   27  C   UNL     1       7.857  23.077  52.787  1.00  0.00     0.001 A 
HETATM   28  C   UNL     1       7.680  22.486  54.036  1.00  0.00     0.000 A 
HETATM   29  C   UNL     1       7.516  23.285  55.164  1.00  0.00     0.001 A 
HETATM   30  C   UNL     1       7.534  24.676  55.045  1.00  0.00     0.009 A 
ENDBRANCH  24  25
ENDBRANCH   1  24
TORSDOF 5
ENDMDL
MODEL 4
REMARK VINA RESULT:      -9.2      1.884      2.423
REMARK  5 active torsions:
REMARK  status: ('A' for Active; 'I' for Inactive)
REMARK    1  A    between atoms: C_4  and  C_5 
REMARK    2  A    between atoms: C_5  and  N_6 
REMARK    3  A    between atoms: C_7  and  C_8 
REMARK       I    between atoms: C_8  and  N_9 
REMARK    4  A    between atoms: N_9  and  N_10 
REMARK       I    between atoms: N_10  and  C_11 
REMARK    5  A    between atoms: C_11  and  C_12 
ROOT
HETATM    1  N   UNL     1       6.562  24.286  54.522  1.00  0.00    -0.337 N 
HETATM    2  C   UNL     1       6.520  24.124  53.141  1.00  0.00     0.106 A 
HETATM    3  C   UNL     1       7.376  23.069  52.855  1.00  0.00     0.049 A 
HETATM    4  C   UNL     1       7.906  22.556  54.066  1.00  0.00    -0.007 A 
HETATM    5  C   UNL     1       7.371  23.319  55.102  1.00  0.00     0.045 A 
HETATM    6  C   UNL     1       8.787  21.500  54.368  1.00  0.00     0.014 A 
HETATM    7  C   UNL     1       9.111  21.233  55.702  1.00  0.00     0.001 A 
HETATM    8  C   UNL     1       8.568  22.001  56.725  1.00  0.00     0.002 A 
HETATM    9  C   UNL     1       7.692  23.054  56.447  1.00  0.00     0.030 A 
ENDROOT
BRANCH   2  10
HETATM   10  C   UNL     1       5.710  24.906  52.222  1.00  0.00     0.286 C 
HETATM   11  N   UNL     1       6.418  25.760  51.400  1.00  0.00    -0.262 N 
HETATM   12  H   UNL     1       7.422  25.906  51.464  1.00  0.00     0.190 HD
HETATM   13  O   UNL     1       4.483  24.825  52.134  1.00  0.00    -0.264 OA
BRANCH  11  14
HETATM   14  N   UNL     1       5.736  26.483  50.416  1.00  0.00    -0.262 N 
HETATM   15  C   UNL     1       5.457  27.814  50.636  1.00  0.00     0.286 C 
HETATM   16  O   UNL     1       5.735  28.367  51.701  1.00  0.00    -0.264 OA
HETATM   17  H   UNL     1       5.519  25.992  49.554  1.00  0.00     0.190 HD
BRANCH  15  18
HETATM   18  C   UNL     1       4.819  28.509  49.541  1.00  0.00     0.102 A 
HETATM   19  N   UNL     1       3.741  29.346  49.752  1.00  0.00    -0.361 N 
HETATM   20  H   UNL     1       3.335  29.518  50.664  1.00  0.00     0.165 HD
HETATM   21  C   UNL     1       3.319  29.887  48.569  1.00  0.00     0.088 A 
HETATM   22  C   UNL     1       4.136  29.407  47.572  1.00  0.00     0.019 A 
HETATM   23  C   UNL     1       5.078  28.541  48.179  1.00  0.00     0.036 A 
ENDBRANCH  15  18
ENDBRANCH  11  14
ENDBRANCH   2  10
BRANCH   1  24
HETATM   24  C   UNL     1       5.860  25.323  55.281  1.00  0.00     0.168 C 
BRANCH  24  25
HETATM   25  C   UNL     1       6.769  26.460  55.692  1.00  0.00    -0.040 A 
HETATM   26  C   UNL     1       7.187  27.402  54.740  1.00  0.00     0.009 A 
HETATM   27  C   UNL     1       7.988  28.484  55.113  1.00  0.00     0.001 A 
HETATM   28  C   UNL     1       8.379  28.640  56.441  1.00  0.00     0.000 A 
HETATM   29  C   UNL     1       7.971  27.713  57.397  1.00  0.00     0.001 A 
HETATM   30  C   UNL     1       7.167  26.634  57.027  1.00  0.00     0.009 A 
ENDBRANCH  24  25
ENDBRANCH   1  24
TORSDOF 5
ENDMDL
MODEL 5
REMARK VINA RESULT:      -9.1      3.873      8.214
REMARK  5 active torsions:
REMARK  status: ('A' for Active; 'I' for Inactive)
REMARK    1  A    between atoms: C_4  and  C_5 
REMARK    2  A    between atoms: C_5  and  N_6 
REMARK    3  A    between atoms: C_7  and  C_8 
REMARK       I    between atoms: C_8  and  N_9 
REMARK    4  A    between atoms: N_9  and  N_10 
REMARK       I    between atoms: N_10  and  C_11 
REMARK    5  A    between atoms: C_11  and  C_12 
ROOT
HETATM    1  N   UNL     1       7.108  26.499  54.732  1.00  0.00    -0.337 N 
HETATM    2  C   UNL     1       6.782  26.298  56.069  1.00  0.00     0.106 A 
HETATM    3  C   UNL     1       6.791  24.922  56.261  1.00  0.00     0.049 A 
HETATM    4  C   UNL     1       7.168  24.285  55.052  1.00  0.00    -0.007 A 
HETATM    5  C   UNL     1       7.381  25.289  54.109  1.00  0.00     0.045 A 
HETATM    6  C   UNL     1       7.357  22.939  54.684  1.00  0.00     0.014 A 
HETATM    7  C   UNL     1       7.755  22.631  53.379  1.00  0.00     0.001 A 
HETATM    8  C   UNL     1       7.966  23.644  52.450  1.00  0.00     0.002 A 
HETATM    9  C   UNL     1       7.783  24.986  52.795  1.00  0.00     0.030 A 
ENDROOT
BRANCH   2  10
HETATM   10  C   UNL     1       6.517  27.345  57.042  1.00  0.00     0.286 C 
HETATM   11  N   UNL     1       7.628  27.807  57.719  1.00  0.00    -0.262 N 
HETATM   12  H   UNL     1       8.559  27.411  57.620  1.00  0.00     0.190 HD
HETATM   13  O   UNL     1       5.405  27.829  57.258  1.00  0.00    -0.264 OA
BRANCH  11  14
HETATM   14  N   UNL     1       7.490  28.881  58.605  1.00  0.00    -0.262 N 
HETATM   15  C   UNL     1       8.456  29.864  58.621  1.00  0.00     0.286 C 
HETATM   16  O   UNL     1       9.467  29.791  57.922  1.00  0.00    -0.264 OA
HETATM   17  H   UNL     1       6.646  28.904  59.169  1.00  0.00     0.190 HD
BRANCH  15  18
HETATM   18  C   UNL     1       8.201  30.977  59.509  1.00  0.00     0.102 A 
HETATM   19  N   UNL     1       6.915  31.323  59.875  1.00  0.00    -0.361 N 
HETATM   20  H   UNL     1       6.089  30.835  59.550  1.00  0.00     0.165 HD
HETATM   21  C   UNL     1       6.934  32.399  60.719  1.00  0.00     0.088 A 
HETATM   22  C   UNL     1       8.248  32.756  60.917  1.00  0.00     0.019 A 
HETATM   23  C   UNL     1       9.045  31.865  60.156  1.00  0.00     0.036 A 
ENDBRANCH  15  18
ENDBRANCH  11  14
ENDBRANCH   2  10
BRANCH   1  24
HETATM   24  C   UNL     1       7.163  27.795  54.054  1.00  0.00     0.168 C 
BRANCH  24  25
HETATM   25  C   UNL     1       5.858  28.156  53.379  1.00  0.00    -0.040 A 
HETATM   26  C   UNL     1       4.897  28.910  54.070  1.00  0.00     0.009 A 
HETATM   27  C   UNL     1       3.707  29.290  53.446  1.00  0.00     0.001 A 
HETATM   28  C   UNL     1       3.463  28.925  52.123  1.00  0.00     0.000 A 
HETATM   29  C   UNL     1       4.408  28.178  51.425  1.00  0.00     0.001 A 
HETATM   30  C   UNL     1       5.599  27.800  52.046  1.00  0.00     0.009 A 
ENDBRANCH  24  25
ENDBRANCH   1  24
TORSDOF 5
ENDMDL
MODEL 6
REMARK VINA RESULT:      -8.9      4.278      8.908
REMARK  5 active torsions:
REMARK  status: ('A' for Active; 'I' for Inactive)
REMARK    1  A    between atoms: C_4  and  C_5 
REMARK    2  A    between atoms: C_5  and  N_6 
REMARK    3  A    between atoms: C_7  and  C_8 
REMARK       I    between atoms: C_8  and  N_9 
REMARK    4  A    between atoms: N_9  and  N_10 
REMARK       I    between atoms: N_10  and  C_11 
REMARK    5  A    between atoms: C_11  and  C_12 
ROOT
HETATM    1  N   UNL     1       6.759  25.797  55.356  1.00  0.00    -0.337 N 
HETATM    2  C   UNL     1       7.358  27.042  55.511  1.00  0.00     0.106 A 
HETATM    3  C   UNL     1       7.184  27.702  54.300  1.00  0.00     0.049 A 
HETATM    4  C   UNL     1       6.439  26.876  53.422  1.00  0.00    -0.007 A 
HETATM    5  C   UNL     1       6.165  25.694  54.105  1.00  0.00     0.045 A 
HETATM    6  C   UNL     1       5.965  27.041  52.106  1.00  0.00     0.014 A 
HETATM    7  C   UNL     1       5.226  26.016  51.507  1.00  0.00     0.001 A 
HETATM    8  C   UNL     1       4.959  24.842  52.202  1.00  0.00     0.002 A 
HETATM    9  C   UNL     1       5.421  24.658  53.509  1.00  0.00     0.030 A 
ENDROOT
BRANCH   2  10
HETATM   10  C   UNL     1       8.003  27.527  56.720  1.00  0.00     0.286 C 
HETATM   11  N   UNL     1       7.721  28.839  57.047  1.00  0.00    -0.262 N 
HETATM   12  H   UNL     1       7.172  29.463  56.463  1.00  0.00     0.190 HD
HETATM   13  O   UNL     1       8.731  26.843  57.442  1.00  0.00    -0.264 OA
BRANCH  11  14
HETATM   14  N   UNL     1       8.217  29.366  58.244  1.00  0.00    -0.262 N 
HETATM   15  C   UNL     1       7.689  30.544  58.726  1.00  0.00     0.286 C 
HETATM   16  O   UNL     1       6.838  31.177  58.099  1.00  0.00    -0.264 OA
HETATM   17  H   UNL     1       8.921  28.818  58.730  1.00  0.00     0.190 HD
BRANCH  15  18
HETATM   18  C   UNL     1       8.199  30.981  60.006  1.00  0.00     0.102 A 
HETATM   19  N   UNL     1       7.422  30.924  61.146  1.00  0.00    -0.361 N 
HETATM   20  H   UNL     1       6.467  30.586  61.157  1.00  0.00     0.165 HD
HETATM   21  C   UNL     1       8.125  31.386  62.224  1.00  0.00     0.088 A 
HETATM   22  C   UNL     1       9.380  31.741  61.789  1.00  0.00     0.019 A 
HETATM   23  C   UNL     1       9.429  31.489  60.396  1.00  0.00     0.036 A 
ENDBRANCH  15  18
ENDBRANCH  11  14
ENDBRANCH   2  10
BRANCH   1  24
HETATM   24  C   UNL     1       6.744  24.728  56.356  1.00  0.00     0.168 C 
BRANCH  24  25
HETATM   25  C   UNL     1       7.545  23.518  55.929  1.00  0.00    -0.040 A 
HETATM   26  C   UNL     1       8.698  23.681  55.147  1.00  0.00     0.009 A 
HETATM   27  C   UNL     1       9.474  22.578  54.782  1.00  0.00     0.001 A 
HETATM   28  C   UNL     1       9.109  21.299  55.197  1.00  0.00     0.000 A 
HETATM   29  C   UNL     1       7.967  21.122  55.975  1.00  0.00     0.001 A 
HETATM   30  C   UNL     1       7.193  22.223  56.343  1.00  0.00     0.009 A 
ENDBRANCH  24  25
ENDBRANCH   1  24
TORSDOF 5
ENDMDL
MODEL 7
REMARK VINA RESULT:      -8.8      4.586      7.417
REMARK  5 active torsions:
REMARK  status: ('A' for Active; 'I' for Inactive)
REMARK    1  A    between atoms: C_4  and  C_5 
REMARK    2  A    between atoms: C_5  and  N_6 
REMARK    3  A    between atoms: C_7  and  C_8 
REMARK       I    between atoms: C_8  and  N_9 
REMARK    4  A    between atoms: N_9  and  N_10 
REMARK       I    between atoms: N_10  and  C_11 
REMARK    5  A    between atoms: C_11  and  C_12 
ROOT
HETATM    1  N   UNL     1       6.052  28.600  56.655  1.00  0.00    -0.337 N 
HETATM    2  C   UNL     1       5.748  27.944  55.467  1.00  0.00     0.106 A 
HETATM    3  C   UNL     1       4.672  28.629  54.917  1.00  0.00     0.049 A 
HETATM    4  C   UNL     1       4.348  29.731  55.748  1.00  0.00    -0.007 A 
HETATM    5  C   UNL     1       5.234  29.709  56.823  1.00  0.00     0.045 A 
HETATM    6  C   UNL     1       3.381  30.753  55.669  1.00  0.00     0.014 A 
HETATM    7  C   UNL     1       3.327  31.728  56.669  1.00  0.00     0.001 A 
HETATM    8  C   UNL     1       4.219  31.694  57.735  1.00  0.00     0.002 A 
HETATM    9  C   UNL     1       5.185  30.689  57.832  1.00  0.00     0.030 A 
ENDROOT
BRANCH   2  10
HETATM   10  C   UNL     1       6.457  26.793  54.931  1.00  0.00     0.286 C 
HETATM   11  N   UNL     1       5.850  25.575  55.164  1.00  0.00    -0.262 N 
HETATM   12  H   UNL     1       5.014  25.455  55.729  1.00  0.00     0.190 HD
HETATM   13  O   UNL     1       7.507  26.859  54.291  1.00  0.00    -0.264 OA
BRANCH  11  14
HETATM   14  N   UNL     1       6.405  24.418  54.605  1.00  0.00    -0.262 N 
HETATM   15  C   UNL     1       7.108  23.554  55.415  1.00  0.00     0.286 C 
HETATM   16  O   UNL     1       7.315  23.803  56.604  1.00  0.00    -0.264 OA
HETATM   17  H   UNL     1       6.218  24.249  53.621  1.00  0.00     0.190 HD
BRANCH  15  18
HETATM   18  C   UNL     1       7.583  22.345  54.779  1.00  0.00     0.102 A 
HETATM   19  N   UNL     1       7.725  22.265  53.408  1.00  0.00    -0.361 N 
HETATM   20  H   UNL     1       7.508  23.026  52.776  1.00  0.00     0.165 HD
HETATM   21  C   UNL     1       8.191  21.029  53.050  1.00  0.00     0.088 A 
HETATM   22  C   UNL     1       8.364  20.295  54.200  1.00  0.00     0.019 A 
HETATM   23  C   UNL     1       7.982  21.119  55.287  1.00  0.00     0.036 A 
ENDBRANCH  15  18
ENDBRANCH  11  14
ENDBRANCH   2  10
BRANCH   1  24
HETATM   24  C   UNL     1       7.084  28.197  57.612  1.00  0.00     0.168 C 
BRANCH  24  25
HETATM   25  C   UNL     1       8.317  29.071  57.542  1.00  0.00    -0.040 A 
HETATM   26  C   UNL     1       8.625  29.934  58.605  1.00  0.00     0.009 A 
HETATM   27  C   UNL     1       9.784  30.713  58.577  1.00  0.00     0.001 A 
HETATM   28  C   UNL     1      10.650  30.638  57.488  1.00  0.00     0.000 A 
HETATM   29  C   UNL     1      10.358  29.786  56.427  1.00  0.00     0.001 A 
HETATM   30  C   UNL     1       9.202  29.004  56.455  1.00  0.00     0.009 A 
ENDBRANCH  24  25
ENDBRANCH   1  24
TORSDOF 5
ENDMDL
MODEL 8
REMARK VINA RESULT:      -8.8      8.340     12.764
REMARK  5 active torsions:
REMARK  status: ('A' for Active; 'I' for Inactive)
REMARK    1  A    between atoms: C_4  and  C_5 
REMARK    2  A    between atoms: C_5  and  N_6 
REMARK    3  A    between atoms: C_7  and  C_8 
REMARK       I    between atoms: C_8  and  N_9 
REMARK    4  A    between atoms: N_9  and  N_10 
REMARK       I    between atoms: N_10  and  C_11 
REMARK    5  A    between atoms: C_11  and  C_12 
ROOT
HETATM    1  N   UNL     1       5.717  32.504  63.380  1.00  0.00    -0.337 N 
HETATM    2  C   UNL     1       7.061  32.172  63.242  1.00  0.00     0.106 A 
HETATM    3  C   UNL     1       7.714  32.773  64.311  1.00  0.00     0.049 A 
HETATM    4  C   UNL     1       6.762  33.434  65.127  1.00  0.00    -0.007 A 
HETATM    5  C   UNL     1       5.513  33.240  64.540  1.00  0.00     0.045 A 
HETATM    6  C   UNL     1       6.857  34.171  66.323  1.00  0.00     0.014 A 
HETATM    7  C   UNL     1       5.698  34.696  66.902  1.00  0.00     0.001 A 
HETATM    8  C   UNL     1       4.458  34.493  66.306  1.00  0.00     0.002 A 
HETATM    9  C   UNL     1       4.343  33.765  65.118  1.00  0.00     0.030 A 
ENDROOT
BRANCH   2  10
HETATM   10  C   UNL     1       7.622  31.340  62.191  1.00  0.00     0.286 C 
HETATM   11  N   UNL     1       7.158  31.613  60.919  1.00  0.00    -0.262 N 
HETATM   12  H   UNL     1       6.424  32.285  60.715  1.00  0.00     0.190 HD
HETATM   13  O   UNL     1       8.469  30.465  62.375  1.00  0.00    -0.264 OA
BRANCH  11  14
HETATM   14  N   UNL     1       7.710  30.931  59.830  1.00  0.00    -0.262 N 
HETATM   15  C   UNL     1       8.752  31.508  59.137  1.00  0.00     0.286 C 
HETATM   16  O   UNL     1       9.168  32.635  59.412  1.00  0.00    -0.264 OA
HETATM   17  H   UNL     1       7.338  30.007  59.631  1.00  0.00     0.190 HD
BRANCH  15  18
HETATM   18  C   UNL     1       9.318  30.707  58.075  1.00  0.00     0.102 A 
HETATM   19  N   UNL     1       8.537  29.837  57.339  1.00  0.00    -0.361 N 
HETATM   20  H   UNL     1       7.545  29.704  57.496  1.00  0.00     0.165 HD
HETATM   21  C   UNL     1       9.296  29.200  56.395  1.00  0.00     0.088 A 
HETATM   22  C   UNL     1      10.585  29.665  56.507  1.00  0.00     0.019 A 
HETATM   23  C   UNL     1      10.602  30.611  57.562  1.00  0.00     0.036 A 
ENDBRANCH  15  18
ENDBRANCH  11  14
ENDBRANCH   2  10
BRANCH   1  24
HETATM   24  C   UNL     1       4.649  32.141  62.448  1.00  0.00     0.168 C 
BRANCH  24  25
HETATM   25  C   UNL     1       4.019  33.345  61.785  1.00  0.00    -0.040 A 
HETATM   26  C   UNL     1       2.646  33.591  61.936  1.00  0.00     0.009 A 
HETATM   27  C   UNL     1       2.057  34.723  61.369  1.00  0.00     0.001 A 
HETATM   28  C   UNL     1       2.834  35.626  60.646  1.00  0.00     0.000 A 
HETATM   29  C   UNL     1       4.198  35.397  60.488  1.00  0.00     0.001 A 
HETATM   30  C   UNL     1       4.788  34.268  61.057  1.00  0.00     0.009 A 
ENDBRANCH  24  25
ENDBRANCH   1  24
TORSDOF 5
ENDMDL
MODEL 9
REMARK VINA RESULT:      -8.3      9.732     14.118
REMARK  5 active torsions:
REMARK  status: ('A' for Active; 'I' for Inactive)
REMARK    1  A    between atoms: C_4  and  C_5 
REMARK    2  A    between atoms: C_5  and  N_6 
REMARK    3  A    between atoms: C_7  and  C_8 
REMARK       I    between atoms: C_8  and  N_9 
REMARK    4  A    between atoms: N_9  and  N_10 
REMARK       I    between atoms: N_10  and  C_11 
REMARK    5  A    between atoms: C_11  and  C_12 
ROOT
HETATM    1  N   UNL     1       5.380  33.989  64.153  1.00  0.00    -0.337 N 
HETATM    2  C   UNL     1       6.471  33.161  63.913  1.00  0.00     0.106 A 
HETATM    3  C   UNL     1       7.216  33.161  65.085  1.00  0.00     0.049 A 
HETATM    4  C   UNL     1       6.555  33.954  66.057  1.00  0.00    -0.007 A 
HETATM    5  C   UNL     1       5.397  34.451  65.463  1.00  0.00     0.045 A 
HETATM    6  C   UNL     1       6.840  34.281  67.397  1.00  0.00     0.014 A 
HETATM    7  C   UNL     1       5.956  35.099  68.109  1.00  0.00     0.001 A 
HETATM    8  C   UNL     1       4.804  35.585  67.503  1.00  0.00     0.002 A 
HETATM    9  C   UNL     1       4.503  35.272  66.174  1.00  0.00     0.030 A 
ENDROOT
BRANCH   2  10
HETATM   10  C   UNL     1       6.728  32.438  62.678  1.00  0.00     0.286 C 
HETATM   11  N   UNL     1       7.476  33.127  61.744  1.00  0.00    -0.262 N 
HETATM   12  H   UNL     1       7.771  34.093  61.853  1.00  0.00     0.190 HD
HETATM   13  O   UNL     1       6.348  31.288  62.453  1.00  0.00    -0.264 OA
BRANCH  11  14
HETATM   14  N   UNL     1       7.857  32.480  60.563  1.00  0.00    -0.262 N 
HETATM   15  C   UNL     1       9.100  31.889  60.496  1.00  0.00     0.286 C 
HETATM   16  O   UNL     1       9.907  31.969  61.423  1.00  0.00    -0.264 OA
HETATM   17  H   UNL     1       7.167  32.438  59.819  1.00  0.00     0.190 HD
BRANCH  15  18
HETATM   18  C   UNL     1       9.388  31.175  59.272  1.00  0.00     0.102 A 
HETATM   19  N   UNL     1      10.399  31.582  58.424  1.00  0.00    -0.361 N 
HETATM   20  H   UNL     1      10.986  32.389  58.599  1.00  0.00     0.165 HD
HETATM   21  C   UNL     1      10.478  30.749  57.342  1.00  0.00     0.088 A 
HETATM   22  C   UNL     1       9.514  29.779  57.487  1.00  0.00     0.019 A 
HETATM   23  C   UNL     1       8.827  30.044  58.698  1.00  0.00     0.036 A 
ENDBRANCH  15  18
ENDBRANCH  11  14
ENDBRANCH   2  10
BRANCH   1  24
HETATM   24  C   UNL     1       4.345  34.341  63.179  1.00  0.00     0.168 C 
BRANCH  24  25
HETATM   25  C   UNL     1       4.446  35.777  62.715  1.00  0.00    -0.040 A 
HETATM   26  C   UNL     1       5.696  36.320  62.381  1.00  0.00     0.009 A 
HETATM   27  C   UNL     1       5.800  37.629  61.906  1.00  0.00     0.001 A 
HETATM   28  C   UNL     1       4.657  38.412  61.757  1.00  0.00     0.000 A 
HETATM   29  C   UNL     1       3.409  37.886  62.083  1.00  0.00     0.001 A 
HETATM   30  C   UNL     1       3.303  36.577  62.554  1.00  0.00     0.009 A 
ENDBRANCH  24  25
ENDBRANCH   1  24
TORSDOF 5
ENDMDL
MODEL 10
REMARK VINA RESULT:      -8.3      2.933      3.349
REMARK  5 active torsions:
REMARK  status: ('A' for Active; 'I' for Inactive)
REMARK    1  A    between atoms: C_4  and  C_5 
REMARK    2  A    between atoms: C_5  and  N_6 
REMARK    3  A    between atoms: C_7  and  C_8 
REMARK       I    between atoms: C_8  and  N_9 
REMARK    4  A    between atoms: N_9  and  N_10 
REMARK       I    between atoms: N_10  and  C_11 
REMARK    5  A    between atoms: C_11  and  C_12 
ROOT
HETATM    1  N   UNL     1       6.485  24.518  54.415  1.00  0.00    -0.337 N 
HETATM    2  C   UNL     1       6.654  24.902  53.089  1.00  0.00     0.106 A 
HETATM    3  C   UNL     1       7.619  24.051  52.566  1.00  0.00     0.049 A 
HETATM    4  C   UNL     1       8.006  23.118  53.560  1.00  0.00    -0.007 A 
HETATM    5  C   UNL     1       7.273  23.413  54.707  1.00  0.00     0.045 A 
HETATM    6  C   UNL     1       8.912  22.039  53.577  1.00  0.00     0.014 A 
HETATM    7  C   UNL     1       9.059  21.282  54.743  1.00  0.00     0.001 A 
HETATM    8  C   UNL     1       8.319  21.587  55.879  1.00  0.00     0.002 A 
HETATM    9  C   UNL     1       7.415  22.654  55.884  1.00  0.00     0.030 A 
ENDROOT
BRANCH   2  10
HETATM   10  C   UNL     1       5.928  25.968  52.418  1.00  0.00     0.286 C 
HETATM   11  N   UNL     1       6.369  27.245  52.703  1.00  0.00    -0.262 N 
HETATM   12  H   UNL     1       7.092  27.456  53.385  1.00  0.00     0.190 HD
HETATM   13  O   UNL     1       5.001  25.786  51.627  1.00  0.00    -0.264 OA
BRANCH  11  14
HETATM   14  N   UNL     1       5.797  28.331  52.032  1.00  0.00    -0.262 N 
HETATM   15  C   UNL     1       4.848  29.092  52.678  1.00  0.00     0.286 C 
HETATM   16  O   UNL     1       4.445  28.806  53.806  1.00  0.00    -0.264 OA
HETATM   17  H   UNL     1       6.152  28.534  51.102  1.00  0.00     0.190 HD
BRANCH  15  18
HETATM   18  C   UNL     1       4.363  30.241  51.946  1.00  0.00     0.102 A 
HETATM   19  N   UNL     1       5.217  31.249  51.545  1.00  0.00    -0.361 N 
HETATM   20  H   UNL     1       6.211  31.251  51.736  1.00  0.00     0.165 HD
HETATM   21  C   UNL     1       4.525  32.217  50.869  1.00  0.00     0.088 A 
HETATM   22  C   UNL     1       3.206  31.835  50.819  1.00  0.00     0.019 A 
HETATM   23  C   UNL     1       3.100  30.595  51.496  1.00  0.00     0.036 A 
ENDBRANCH  15  18
ENDBRANCH  11  14
ENDBRANCH   2  10
BRANCH   1  24
HETATM   24  C   UNL     1       5.606  25.172  55.386  1.00  0.00     0.168 C 
BRANCH  24  25
HETATM   25  C   UNL     1       6.298  26.285  56.142  1.00  0.00    -0.040 A 
HETATM   26  C   UNL     1       5.549  27.357  56.651  1.00  0.00     0.009 A 
HETATM   27  C   UNL     1       6.166  28.369  57.391  1.00  0.00     0.001 A 
HETATM   28  C   UNL     1       7.537  28.321  57.633  1.00  0.00     0.000 A 
HETATM   29  C   UNL     1       8.293  27.263  57.135  1.00  0.00     0.001 A 
HETATM   30  C   UNL     1       7.678  26.249  56.399  1.00  0.00     0.009 A 
ENDBRANCH  24  25
ENDBRANCH   1  24
TORSDOF 5
ENDMDL
