MODEL 1
REMARK VINA RESULT:      -9.7      0.000      0.000
REMARK  6 active torsions:
REMARK  status: ('A' for Active; 'I' for Inactive)
REMARK    1  A    between atoms: C_5  and  C_6 
REMARK    2  A    between atoms: C_6  and  O_7 
REMARK    3  A    between atoms: C_6  and  C_8 
REMARK    4  A    between atoms: C_8  and  N_9 
REMARK       I    between atoms: N_9  and  C_10 
REMARK    5  A    between atoms: C_10  and  C_11 
REMARK    6  A    between atoms: C_11  and  C_12 
ROOT
HETATM    1  N   UNL     1       5.694  26.408  50.369  1.00  0.00    -0.358 N 
HETATM    2  C   UNL     1       5.731  25.614  51.496  1.00  0.00     0.222 C 
HETATM    3  O   UNL     1       4.766  24.956  51.875  1.00  0.00    -0.273 OA
HETATM    4  H   UNL     1       6.577  26.715  49.976  1.00  0.00     0.162 HD
ENDROOT
BRANCH   1   5
HETATM    5  C   UNL     1       4.550  26.356  49.460  1.00  0.00     0.159 C 
BRANCH   5   6
HETATM    6  C   UNL     1       4.698  27.268  48.223  1.00  0.00     0.169 C 
BRANCH   6   7
HETATM    7  C   UNL     1       3.342  27.621  47.645  1.00  0.00    -0.028 A 
HETATM    8  C   UNL     1       2.321  26.673  47.504  1.00  0.00     0.010 A 
HETATM    9  C   UNL     1       1.073  27.037  46.991  1.00  0.00     0.007 A 
HETATM   10  C   UNL     1       0.822  28.357  46.603  1.00  0.00    -0.062 A 
HETATM   11  C   UNL     1      -0.525  28.759  46.082  1.00  0.00     0.048 C 
HETATM   12  C   UNL     1       1.833  29.312  46.755  1.00  0.00     0.007 A 
HETATM   13  C   UNL     1       3.081  28.947  47.265  1.00  0.00     0.010 A 
ENDBRANCH   6   7
BRANCH   6  14
HETATM   14  O   UNL     1       5.509  26.597  47.250  1.00  0.00    -0.389 OA
HETATM   15  H   UNL     1       4.890  26.039  46.748  1.00  0.00     0.210 HD
ENDBRANCH   6  14
ENDBRANCH   5   6
ENDBRANCH   1   5
BRANCH   2  16
HETATM   16  C   UNL     1       7.061  25.601  52.227  1.00  0.00     0.142 C 
BRANCH  16  17
HETATM   17  C   UNL     1       7.231  24.461  53.198  1.00  0.00    -0.031 A 
HETATM   18  C   UNL     1       6.940  24.568  54.552  1.00  0.00     0.125 A 
HETATM   19  N   UNL     1       7.117  23.574  55.454  1.00  0.00    -0.260 NA
HETATM   20  C   UNL     1       7.642  22.414  55.026  1.00  0.00     0.066 A 
HETATM   21  C   UNL     1       7.999  22.203  53.680  1.00  0.00    -0.007 A 
HETATM   22  C   UNL     1       7.851  21.383  55.932  1.00  0.00     0.032 A 
HETATM   23  C   UNL     1       7.784  23.251  52.770  1.00  0.00     0.022 A 
HETATM   24  C   UNL     1       8.561  20.976  53.282  1.00  0.00     0.014 A 
HETATM   25  C   UNL     1       8.766  19.960  54.214  1.00  0.00     0.001 A 
HETATM   26  C   UNL     1       8.408  20.163  55.542  1.00  0.00     0.002 A 
ENDBRANCH  16  17
ENDBRANCH   2  16
TORSDOF 6
ENDMDL
MODEL 2
REMARK VINA RESULT:      -9.5      6.805     10.606
REMARK  6 active torsions:
REMARK  status: ('A' for Active; 'I' for Inactive)
REMARK    1  A    between atoms: C_5  and  C_6 
REMARK    2  A    between atoms: C_6  and  O_7 
REMARK    3  A    between atoms: C_6  and  C_8 
REMARK    4  A    between atoms: C_8  and  N_9 
REMARK       I    between atoms: N_9  and  C_10 
REMARK    5  A    between atoms: C_10  and  C_11 
REMARK    6  A    between atoms: C_11  and  C_12 
ROOT
HETATM    1  N   UNL     1       7.974  27.634  55.982  1.00  0.00    -0.358 N 
HETATM    2  C   UNL     1       7.615  28.301  57.134  1.00  0.00     0.222 C 
HETATM    3  O   UNL     1       6.619  28.006  57.788  1.00  0.00    -0.273 OA
HETATM    4  H   UNL     1       8.920  27.754  55.639  1.00  0.00     0.162 HD
ENDROOT
BRANCH   1   5
HETATM    5  C   UNL     1       7.277  26.411  55.583  1.00  0.00     0.159 C 
BRANCH   5   6
HETATM    6  C   UNL     1       7.759  25.150  56.332  1.00  0.00     0.169 C 
BRANCH   6   7
HETATM    7  C   UNL     1       7.837  23.962  55.396  1.00  0.00    -0.028 A 
HETATM    8  C   UNL     1       7.948  24.111  54.007  1.00  0.00     0.010 A 
HETATM    9  C   UNL     1       8.043  22.993  53.173  1.00  0.00     0.007 A 
HETATM   10  C   UNL     1       8.024  21.702  53.710  1.00  0.00    -0.062 A 
HETATM   11  C   UNL     1       8.158  20.501  52.823  1.00  0.00     0.048 C 
HETATM   12  C   UNL     1       7.928  21.547  55.097  1.00  0.00     0.007 A 
HETATM   13  C   UNL     1       7.830  22.664  55.930  1.00  0.00     0.010 A 
ENDBRANCH   6   7
BRANCH   6  14
HETATM   14  O   UNL     1       6.861  24.888  57.417  1.00  0.00    -0.389 OA
HETATM   15  H   UNL     1       6.042  24.575  56.996  1.00  0.00     0.210 HD
ENDBRANCH   6  14
ENDBRANCH   5   6
ENDBRANCH   1   5
BRANCH   2  16
HETATM   16  C   UNL     1       8.556  29.419  57.547  1.00  0.00     0.142 C 
BRANCH  16  17
HETATM   17  C   UNL     1       8.006  30.344  58.601  1.00  0.00    -0.031 A 
HETATM   18  C   UNL     1       6.978  31.246  58.359  1.00  0.00     0.125 A 
HETATM   19  N   UNL     1       6.490  32.114  59.276  1.00  0.00    -0.260 NA
HETATM   20  C   UNL     1       7.053  32.135  60.495  1.00  0.00     0.066 A 
HETATM   21  C   UNL     1       8.119  31.283  60.844  1.00  0.00    -0.007 A 
HETATM   22  C   UNL     1       6.584  33.027  61.449  1.00  0.00     0.032 A 
HETATM   23  C   UNL     1       8.588  30.384  59.872  1.00  0.00     0.022 A 
HETATM   24  C   UNL     1       8.688  31.353  62.128  1.00  0.00     0.014 A 
HETATM   25  C   UNL     1       8.201  32.262  63.066  1.00  0.00     0.001 A 
HETATM   26  C   UNL     1       7.146  33.100  62.727  1.00  0.00     0.002 A 
ENDBRANCH  16  17
ENDBRANCH   2  16
TORSDOF 6
ENDMDL
MODEL 3
REMARK VINA RESULT:      -9.5      6.977     10.602
REMARK  6 active torsions:
REMARK  status: ('A' for Active; 'I' for Inactive)
REMARK    1  A    between atoms: C_5  and  C_6 
REMARK    2  A    between atoms: C_6  and  O_7 
REMARK    3  A    between atoms: C_6  and  C_8 
REMARK    4  A    between atoms: C_8  and  N_9 
REMARK       I    between atoms: N_9  and  C_10 
REMARK    5  A    between atoms: C_10  and  C_11 
REMARK    6  A    between atoms: C_11  and  C_12 
ROOT
HETATM    1  N   UNL     1       7.739  29.299  58.109  1.00  0.00    -0.358 N 
HETATM    2  C   UNL     1       7.909  28.230  57.254  1.00  0.00     0.222 C 
HETATM    3  O   UNL     1       8.517  28.322  56.192  1.00  0.00    -0.273 OA
HETATM    4  H   UNL     1       7.459  29.103  59.064  1.00  0.00     0.162 HD
ENDROOT
BRANCH   1   5
HETATM    5  C   UNL     1       8.443  30.559  57.874  1.00  0.00     0.159 C 
BRANCH   5   6
HETATM    6  C   UNL     1       9.593  30.823  58.869  1.00  0.00     0.169 C 
BRANCH   6   7
HETATM    7  C   UNL     1       9.054  31.281  60.210  1.00  0.00    -0.028 A 
HETATM    8  C   UNL     1       9.252  30.545  61.384  1.00  0.00     0.010 A 
HETATM    9  C   UNL     1       8.763  31.007  62.610  1.00  0.00     0.007 A 
HETATM   10  C   UNL     1       8.060  32.215  62.684  1.00  0.00    -0.062 A 
HETATM   11  C   UNL     1       7.562  32.732  64.000  1.00  0.00     0.048 C 
HETATM   12  C   UNL     1       7.872  32.962  61.516  1.00  0.00     0.007 A 
HETATM   13  C   UNL     1       8.358  32.498  60.292  1.00  0.00     0.010 A 
ENDBRANCH   6   7
BRANCH   6  14
HETATM   14  O   UNL     1      10.471  31.808  58.309  1.00  0.00    -0.389 OA
HETATM   15  H   UNL     1      11.347  31.385  58.294  1.00  0.00     0.210 HD
ENDBRANCH   6  14
ENDBRANCH   5   6
ENDBRANCH   1   5
BRANCH   2  16
HETATM   16  C   UNL     1       7.303  26.923  57.733  1.00  0.00     0.142 C 
BRANCH  16  17
HETATM   17  C   UNL     1       7.734  25.710  56.951  1.00  0.00    -0.031 A 
HETATM   18  C   UNL     1       8.740  24.851  57.374  1.00  0.00     0.125 A 
HETATM   19  N   UNL     1       9.172  23.776  56.676  1.00  0.00    -0.260 NA
HETATM   20  C   UNL     1       8.621  23.534  55.475  1.00  0.00     0.066 A 
HETATM   21  C   UNL     1       7.611  24.354  54.934  1.00  0.00    -0.007 A 
HETATM   22  C   UNL     1       9.058  22.448  54.729  1.00  0.00     0.032 A 
HETATM   23  C   UNL     1       7.176  25.450  55.695  1.00  0.00     0.022 A 
HETATM   24  C   UNL     1       7.076  24.070  53.665  1.00  0.00     0.014 A 
HETATM   25  C   UNL     1       7.536  22.976  52.933  1.00  0.00     0.001 A 
HETATM   26  C   UNL     1       8.528  22.162  53.467  1.00  0.00     0.002 A 
ENDBRANCH  16  17
ENDBRANCH   2  16
TORSDOF 6
ENDMDL
MODEL 4
REMARK VINA RESULT:      -9.5      5.478      8.754
REMARK  6 active torsions:
REMARK  status: ('A' for Active; 'I' for Inactive)
REMARK    1  A    between atoms: C_5  and  C_6 
REMARK    2  A    between atoms: C_6  and  O_7 
REMARK    3  A    between atoms: C_6  and  C_8 
REMARK    4  A    between atoms: C_8  and  N_9 
REMARK       I    between atoms: N_9  and  C_10 
REMARK    5  A    between atoms: C_10  and  C_11 
REMARK    6  A    between atoms: C_11  and  C_12 
ROOT
HETATM    1  N   UNL     1       7.511  27.750  54.933  1.00  0.00    -0.358 N 
HETATM    2  C   UNL     1       6.279  27.131  54.974  1.00  0.00     0.222 C 
HETATM    3  O   UNL     1       5.397  27.462  55.761  1.00  0.00    -0.273 OA
HETATM    4  H   UNL     1       8.087  27.606  54.111  1.00  0.00     0.162 HD
ENDROOT
BRANCH   1   5
HETATM    5  C   UNL     1       7.759  28.965  55.708  1.00  0.00     0.159 C 
BRANCH   5   6
HETATM    6  C   UNL     1       9.212  29.093  56.212  1.00  0.00     0.169 C 
BRANCH   6   7
HETATM    7  C   UNL     1       9.269  29.887  57.502  1.00  0.00    -0.028 A 
HETATM    8  C   UNL     1      10.214  30.898  57.714  1.00  0.00     0.010 A 
HETATM    9  C   UNL     1      10.224  31.629  58.906  1.00  0.00     0.007 A 
HETATM   10  C   UNL     1       9.291  31.359  59.913  1.00  0.00    -0.062 A 
HETATM   11  C   UNL     1       9.276  32.162  61.179  1.00  0.00     0.048 C 
HETATM   12  C   UNL     1       8.335  30.360  59.700  1.00  0.00     0.007 A 
HETATM   13  C   UNL     1       8.328  29.628  58.510  1.00  0.00     0.010 A 
ENDBRANCH   6   7
BRANCH   6  14
HETATM   14  O   UNL     1      10.000  29.720  55.192  1.00  0.00    -0.389 OA
HETATM   15  H   UNL     1       9.358  30.175  54.621  1.00  0.00     0.210 HD
ENDBRANCH   6  14
ENDBRANCH   5   6
ENDBRANCH   1   5
BRANCH   2  16
HETATM   16  C   UNL     1       6.087  26.017  53.960  1.00  0.00     0.142 C 
BRANCH  16  17
HETATM   17  C   UNL     1       6.631  24.679  54.388  1.00  0.00    -0.031 A 
HETATM   18  C   UNL     1       6.829  24.330  55.718  1.00  0.00     0.125 A 
HETATM   19  N   UNL     1       7.350  23.151  56.131  1.00  0.00    -0.260 NA
HETATM   20  C   UNL     1       7.736  22.265  55.197  1.00  0.00     0.066 A 
HETATM   21  C   UNL     1       7.607  22.523  53.819  1.00  0.00    -0.007 A 
HETATM   22  C   UNL     1       8.289  21.055  55.592  1.00  0.00     0.032 A 
HETATM   23  C   UNL     1       7.046  23.750  53.429  1.00  0.00     0.022 A 
HETATM   24  C   UNL     1       8.041  21.572  52.878  1.00  0.00     0.014 A 
HETATM   25  C   UNL     1       8.598  20.366  53.301  1.00  0.00     0.001 A 
HETATM   26  C   UNL     1       8.722  20.106  54.661  1.00  0.00     0.002 A 
ENDBRANCH  16  17
ENDBRANCH   2  16
TORSDOF 6
ENDMDL
MODEL 5
REMARK VINA RESULT:      -9.4      6.493     10.116
REMARK  6 active torsions:
REMARK  status: ('A' for Active; 'I' for Inactive)
REMARK    1  A    between atoms: C_5  and  C_6 
REMARK    2  A    between atoms: C_6  and  O_7 
REMARK    3  A    between atoms: C_6  and  C_8 
REMARK    4  A    between atoms: C_8  and  N_9 
REMARK       I    between atoms: N_9  and  C_10 
REMARK    5  A    between atoms: C_10  and  C_11 
REMARK    6  A    between atoms: C_11  and  C_12 
ROOT
HETATM    1  N   UNL     1       7.180  28.286  57.641  1.00  0.00    -0.358 N 
HETATM    2  C   UNL     1       7.553  26.985  57.376  1.00  0.00     0.222 C 
HETATM    3  O   UNL     1       8.699  26.578  57.541  1.00  0.00    -0.273 OA
HETATM    4  H   UNL     1       6.190  28.487  57.726  1.00  0.00     0.162 HD
ENDROOT
BRANCH   1   5
HETATM    5  C   UNL     1       8.100  29.201  58.314  1.00  0.00     0.159 C 
BRANCH   5   6
HETATM    6  C   UNL     1       7.583  30.654  58.392  1.00  0.00     0.169 C 
BRANCH   6   7
HETATM    7  C   UNL     1       7.693  31.192  59.805  1.00  0.00    -0.028 A 
HETATM    8  C   UNL     1       8.678  30.751  60.697  1.00  0.00     0.010 A 
HETATM    9  C   UNL     1       8.768  31.286  61.986  1.00  0.00     0.007 A 
HETATM   10  C   UNL     1       7.870  32.271  62.410  1.00  0.00    -0.062 A 
HETATM   11  C   UNL     1       7.981  32.871  63.779  1.00  0.00     0.048 C 
HETATM   12  C   UNL     1       6.892  32.725  61.518  1.00  0.00     0.007 A 
HETATM   13  C   UNL     1       6.801  32.188  60.232  1.00  0.00     0.010 A 
ENDBRANCH   6   7
BRANCH   6  14
HETATM   14  O   UNL     1       6.224  30.685  57.938  1.00  0.00    -0.389 OA
HETATM   15  H   UNL     1       6.160  29.966  57.286  1.00  0.00     0.210 HD
ENDBRANCH   6  14
ENDBRANCH   5   6
ENDBRANCH   1   5
BRANCH   2  16
HETATM   16  C   UNL     1       6.435  26.086  56.879  1.00  0.00     0.142 C 
BRANCH  16  17
HETATM   17  C   UNL     1       6.852  25.091  55.827  1.00  0.00    -0.031 A 
HETATM   18  C   UNL     1       6.905  25.394  54.473  1.00  0.00     0.125 A 
HETATM   19  N   UNL     1       7.239  24.511  53.503  1.00  0.00    -0.260 NA
HETATM   20  C   UNL     1       7.506  23.245  53.861  1.00  0.00     0.066 A 
HETATM   21  C   UNL     1       7.458  22.818  55.203  1.00  0.00    -0.007 A 
HETATM   22  C   UNL     1       7.835  22.313  52.885  1.00  0.00     0.032 A 
HETATM   23  C   UNL     1       7.124  23.766  56.183  1.00  0.00     0.022 A 
HETATM   24  C   UNL     1       7.729  21.476  55.528  1.00  0.00     0.014 A 
HETATM   25  C   UNL     1       8.051  20.560  54.527  1.00  0.00     0.001 A 
HETATM   26  C   UNL     1       8.106  20.980  53.203  1.00  0.00     0.002 A 
ENDBRANCH  16  17
ENDBRANCH   2  16
TORSDOF 6
ENDMDL
MODEL 6
REMARK VINA RESULT:      -9.4      4.828      6.167
REMARK  6 active torsions:
REMARK  status: ('A' for Active; 'I' for Inactive)
REMARK    1  A    between atoms: C_5  and  C_6 
REMARK    2  A    between atoms: C_6  and  O_7 
REMARK    3  A    between atoms: C_6  and  C_8 
REMARK    4  A    between atoms: C_8  and  N_9 
REMARK       I    between atoms: N_9  and  C_10 
REMARK    5  A    between atoms: C_10  and  C_11 
REMARK    6  A    between atoms: C_11  and  C_12 
ROOT
HETATM    1  N   UNL     1       7.962  27.448  57.439  1.00  0.00    -0.358 N 
HETATM    2  C   UNL     1       7.529  26.143  57.550  1.00  0.00     0.222 C 
HETATM    3  O   UNL     1       6.341  25.836  57.536  1.00  0.00    -0.273 OA
HETATM    4  H   UNL     1       8.936  27.607  57.205  1.00  0.00     0.162 HD
ENDROOT
BRANCH   1   5
HETATM    5  C   UNL     1       7.021  28.518  57.110  1.00  0.00     0.159 C 
BRANCH   5   6
HETATM    6  C   UNL     1       7.116  28.999  55.646  1.00  0.00     0.169 C 
BRANCH   6   7
HETATM    7  C   UNL     1       6.590  27.943  54.695  1.00  0.00    -0.028 A 
HETATM    8  C   UNL     1       5.228  27.626  54.612  1.00  0.00     0.010 A 
HETATM    9  C   UNL     1       4.771  26.664  53.705  1.00  0.00     0.007 A 
HETATM   10  C   UNL     1       5.669  25.996  52.867  1.00  0.00    -0.062 A 
HETATM   11  C   UNL     1       5.181  24.987  51.870  1.00  0.00     0.048 C 
HETATM   12  C   UNL     1       7.028  26.318  52.935  1.00  0.00     0.007 A 
HETATM   13  C   UNL     1       7.485  27.277  53.843  1.00  0.00     0.010 A 
ENDBRANCH   6   7
BRANCH   6  14
HETATM   14  O   UNL     1       8.484  29.314  55.352  1.00  0.00    -0.389 OA
HETATM   15  H   UNL     1       9.005  28.770  55.967  1.00  0.00     0.210 HD
ENDBRANCH   6  14
ENDBRANCH   5   6
ENDBRANCH   1   5
BRANCH   2  16
HETATM   16  C   UNL     1       8.635  25.110  57.674  1.00  0.00     0.142 C 
BRANCH  16  17
HETATM   17  C   UNL     1       8.429  23.871  56.842  1.00  0.00    -0.031 A 
HETATM   18  C   UNL     1       8.424  22.589  57.376  1.00  0.00     0.125 A 
HETATM   19  N   UNL     1       8.280  21.457  56.649  1.00  0.00    -0.260 NA
HETATM   20  C   UNL     1       8.167  21.568  55.315  1.00  0.00     0.066 A 
HETATM   21  C   UNL     1       8.186  22.816  54.662  1.00  0.00    -0.007 A 
HETATM   22  C   UNL     1       8.035  20.422  54.543  1.00  0.00     0.032 A 
HETATM   23  C   UNL     1       8.320  23.970  55.451  1.00  0.00     0.022 A 
HETATM   24  C   UNL     1       8.082  22.881  53.261  1.00  0.00     0.014 A 
HETATM   25  C   UNL     1       7.956  21.715  52.508  1.00  0.00     0.001 A 
HETATM   26  C   UNL     1       7.931  20.482  53.150  1.00  0.00     0.002 A 
ENDBRANCH  16  17
ENDBRANCH   2  16
TORSDOF 6
ENDMDL
MODEL 7
REMARK VINA RESULT:      -9.4      7.208     10.230
REMARK  6 active torsions:
REMARK  status: ('A' for Active; 'I' for Inactive)
REMARK    1  A    between atoms: C_5  and  C_6 
REMARK    2  A    between atoms: C_6  and  O_7 
REMARK    3  A    between atoms: C_6  and  C_8 
REMARK    4  A    between atoms: C_8  and  N_9 
REMARK       I    between atoms: N_9  and  C_10 
REMARK    5  A    between atoms: C_10  and  C_11 
REMARK    6  A    between atoms: C_11  and  C_12 
ROOT
HETATM    1  N   UNL     1       7.230  28.970  56.343  1.00  0.00    -0.358 N 
HETATM    2  C   UNL     1       7.869  28.639  57.519  1.00  0.00     0.222 C 
HETATM    3  O   UNL     1       7.716  27.554  58.074  1.00  0.00    -0.273 OA
HETATM    4  H   UNL     1       7.586  29.759  55.815  1.00  0.00     0.162 HD
ENDROOT
BRANCH   1   5
HETATM    5  C   UNL     1       6.476  27.963  55.597  1.00  0.00     0.159 C 
BRANCH   5   6
HETATM    6  C   UNL     1       6.995  27.739  54.160  1.00  0.00     0.169 C 
BRANCH   6   7
HETATM    7  C   UNL     1       7.262  26.270  53.903  1.00  0.00    -0.028 A 
HETATM    8  C   UNL     1       7.165  25.306  54.915  1.00  0.00     0.010 A 
HETATM    9  C   UNL     1       7.393  23.954  54.640  1.00  0.00     0.007 A 
HETATM   10  C   UNL     1       7.727  23.539  53.347  1.00  0.00    -0.062 A 
HETATM   11  C   UNL     1       7.940  22.088  53.039  1.00  0.00     0.048 C 
HETATM   12  C   UNL     1       7.810  24.495  52.329  1.00  0.00     0.007 A 
HETATM   13  C   UNL     1       7.586  25.846  52.605  1.00  0.00     0.010 A 
ENDBRANCH   6   7
BRANCH   6  14
HETATM   14  O   UNL     1       8.187  28.514  53.974  1.00  0.00    -0.389 OA
HETATM   15  H   UNL     1       7.884  29.438  53.942  1.00  0.00     0.210 HD
ENDBRANCH   6  14
ENDBRANCH   5   6
ENDBRANCH   1   5
BRANCH   2  16
HETATM   16  C   UNL     1       8.792  29.710  58.071  1.00  0.00     0.142 C 
BRANCH  16  17
HETATM   17  C   UNL     1       8.147  30.641  59.066  1.00  0.00    -0.031 A 
HETATM   18  C   UNL     1       7.122  31.517  58.733  1.00  0.00     0.125 A 
HETATM   19  N   UNL     1       6.551  32.390  59.595  1.00  0.00    -0.260 NA
HETATM   20  C   UNL     1       7.022  32.443  60.852  1.00  0.00     0.066 A 
HETATM   21  C   UNL     1       8.076  31.619  61.293  1.00  0.00    -0.007 A 
HETATM   22  C   UNL     1       6.466  33.340  61.753  1.00  0.00     0.032 A 
HETATM   23  C   UNL     1       8.633  30.714  60.375  1.00  0.00     0.022 A 
HETATM   24  C   UNL     1       8.548  31.722  62.614  1.00  0.00     0.014 A 
HETATM   25  C   UNL     1       7.975  32.636  63.498  1.00  0.00     0.001 A 
HETATM   26  C   UNL     1       6.931  33.446  63.067  1.00  0.00     0.002 A 
ENDBRANCH  16  17
ENDBRANCH   2  16
TORSDOF 6
ENDMDL
MODEL 8
REMARK VINA RESULT:      -9.3      6.247      9.977
REMARK  6 active torsions:
REMARK  status: ('A' for Active; 'I' for Inactive)
REMARK    1  A    between atoms: C_5  and  C_6 
REMARK    2  A    between atoms: C_6  and  O_7 
REMARK    3  A    between atoms: C_6  and  C_8 
REMARK    4  A    between atoms: C_8  and  N_9 
REMARK       I    between atoms: N_9  and  C_10 
REMARK    5  A    between atoms: C_10  and  C_11 
REMARK    6  A    between atoms: C_11  and  C_12 
ROOT
HETATM    1  N   UNL     1       6.329  27.597  55.272  1.00  0.00    -0.358 N 
HETATM    2  C   UNL     1       5.856  28.334  56.338  1.00  0.00     0.222 C 
HETATM    3  O   UNL     1       5.099  27.866  57.183  1.00  0.00    -0.273 OA
HETATM    4  H   UNL     1       7.132  27.955  54.767  1.00  0.00     0.162 HD
ENDROOT
BRANCH   1   5
HETATM    5  C   UNL     1       6.093  26.156  55.202  1.00  0.00     0.159 C 
BRANCH   5   6
HETATM    6  C   UNL     1       7.169  25.316  55.924  1.00  0.00     0.169 C 
BRANCH   6   7
HETATM    7  C   UNL     1       7.475  24.048  55.152  1.00  0.00    -0.028 A 
HETATM    8  C   UNL     1       7.572  22.799  55.777  1.00  0.00     0.010 A 
HETATM    9  C   UNL     1       7.830  21.644  55.032  1.00  0.00     0.007 A 
HETATM   10  C   UNL     1       8.002  21.717  53.646  1.00  0.00    -0.062 A 
HETATM   11  C   UNL     1       8.247  20.479  52.838  1.00  0.00     0.048 C 
HETATM   12  C   UNL     1       7.893  22.961  53.014  1.00  0.00     0.007 A 
HETATM   13  C   UNL     1       7.637  24.114  53.759  1.00  0.00     0.010 A 
ENDBRANCH   6   7
BRANCH   6  14
HETATM   14  O   UNL     1       6.704  25.009  57.245  1.00  0.00    -0.389 OA
HETATM   15  H   UNL     1       5.855  25.477  57.328  1.00  0.00     0.210 HD
ENDBRANCH   6  14
ENDBRANCH   5   6
ENDBRANCH   1   5
BRANCH   2  16
HETATM   16  C   UNL     1       6.357  29.766  56.400  1.00  0.00     0.142 C 
BRANCH  16  17
HETATM   17  C   UNL     1       7.080  30.122  57.672  1.00  0.00    -0.031 A 
HETATM   18  C   UNL     1       8.151  29.390  58.168  1.00  0.00     0.125 A 
HETATM   19  N   UNL     1       8.795  29.664  59.326  1.00  0.00    -0.260 NA
HETATM   20  C   UNL     1       8.354  30.691  60.071  1.00  0.00     0.066 A 
HETATM   21  C   UNL     1       7.259  31.486  59.680  1.00  0.00    -0.007 A 
HETATM   22  C   UNL     1       8.985  30.984  61.272  1.00  0.00     0.032 A 
HETATM   23  C   UNL     1       6.627  31.183  58.463  1.00  0.00     0.022 A 
HETATM   24  C   UNL     1       6.823  32.541  60.502  1.00  0.00     0.014 A 
HETATM   25  C   UNL     1       7.471  32.811  61.706  1.00  0.00     0.001 A 
HETATM   26  C   UNL     1       8.555  32.031  62.092  1.00  0.00     0.002 A 
ENDBRANCH  16  17
ENDBRANCH   2  16
TORSDOF 6
ENDMDL
MODEL 9
REMARK VINA RESULT:      -9.1      2.309      3.224
REMARK  6 active torsions:
REMARK  status: ('A' for Active; 'I' for Inactive)
REMARK    1  A    between atoms: C_5  and  C_6 
REMARK    2  A    between atoms: C_6  and  O_7 
REMARK    3  A    between atoms: C_6  and  C_8 
REMARK    4  A    between atoms: C_8  and  N_9 
REMARK       I    between atoms: N_9  and  C_10 
REMARK    5  A    between atoms: C_10  and  C_11 
REMARK    6  A    between atoms: C_11  and  C_12 
ROOT
HETATM    1  N   UNL     1       5.924  28.831  53.198  1.00  0.00    -0.358 N 
HETATM    2  C   UNL     1       5.962  27.580  53.776  1.00  0.00     0.222 C 
HETATM    3  O   UNL     1       4.951  26.921  53.997  1.00  0.00    -0.273 OA
HETATM    4  H   UNL     1       6.786  29.205  52.817  1.00  0.00     0.162 HD
ENDROOT
BRANCH   1   5
HETATM    5  C   UNL     1       4.676  29.358  52.646  1.00  0.00     0.159 C 
BRANCH   5   6
HETATM    6  C   UNL     1       4.769  29.738  51.153  1.00  0.00     0.169 C 
BRANCH   6   7
HETATM    7  C   UNL     1       4.369  28.571  50.272  1.00  0.00    -0.028 A 
HETATM    8  C   UNL     1       5.087  27.369  50.255  1.00  0.00     0.010 A 
HETATM    9  C   UNL     1       4.677  26.302  49.449  1.00  0.00     0.007 A 
HETATM   10  C   UNL     1       3.542  26.419  48.639  1.00  0.00    -0.062 A 
HETATM   11  C   UNL     1       3.079  25.268  47.798  1.00  0.00     0.048 C 
HETATM   12  C   UNL     1       2.813  27.613  48.663  1.00  0.00     0.007 A 
HETATM   13  C   UNL     1       3.225  28.679  49.466  1.00  0.00     0.010 A 
ENDBRANCH   6   7
BRANCH   6  14
HETATM   14  O   UNL     1       6.110  30.157  50.867  1.00  0.00    -0.389 OA
HETATM   15  H   UNL     1       6.673  29.424  51.170  1.00  0.00     0.210 HD
ENDBRANCH   6  14
ENDBRANCH   5   6
ENDBRANCH   1   5
BRANCH   2  16
HETATM   16  C   UNL     1       7.353  27.068  54.104  1.00  0.00     0.142 C 
BRANCH  16  17
HETATM   17  C   UNL     1       7.562  25.602  53.829  1.00  0.00    -0.031 A 
HETATM   18  C   UNL     1       7.695  25.080  52.549  1.00  0.00     0.125 A 
HETATM   19  N   UNL     1       7.846  23.764  52.270  1.00  0.00    -0.260 NA
HETATM   20  C   UNL     1       7.834  22.892  53.292  1.00  0.00     0.066 A 
HETATM   21  C   UNL     1       7.679  23.306  54.629  1.00  0.00    -0.007 A 
HETATM   22  C   UNL     1       7.969  21.535  53.034  1.00  0.00     0.032 A 
HETATM   23  C   UNL     1       7.543  24.681  54.882  1.00  0.00     0.022 A 
HETATM   24  C   UNL     1       7.655  22.355  55.665  1.00  0.00     0.014 A 
HETATM   25  C   UNL     1       7.788  20.997  55.378  1.00  0.00     0.001 A 
HETATM   26  C   UNL     1       7.947  20.586  54.059  1.00  0.00     0.002 A 
ENDBRANCH  16  17
ENDBRANCH   2  16
TORSDOF 6
ENDMDL
MODEL 10
REMARK VINA RESULT:      -9.0      1.591      2.111
REMARK  6 active torsions:
REMARK  status: ('A' for Active; 'I' for Inactive)
REMARK    1  A    between atoms: C_5  and  C_6 
REMARK    2  A    between atoms: C_6  and  O_7 
REMARK    3  A    between atoms: C_6  and  C_8 
REMARK    4  A    between atoms: C_8  and  N_9 
REMARK       I    between atoms: N_9  and  C_10 
REMARK    5  A    between atoms: C_10  and  C_11 
REMARK    6  A    between atoms: C_11  and  C_12 
ROOT
HETATM    1  N   UNL     1       6.157  27.804  52.562  1.00  0.00    -0.358 N 
HETATM    2  C   UNL     1       5.992  27.067  53.716  1.00  0.00     0.222 C 
HETATM    3  O   UNL     1       4.890  26.712  54.124  1.00  0.00    -0.273 OA
HETATM    4  H   UNL     1       7.084  27.843  52.153  1.00  0.00     0.162 HD
ENDROOT
BRANCH   1   5
HETATM    5  C   UNL     1       5.028  28.039  51.663  1.00  0.00     0.159 C 
BRANCH   5   6
HETATM    6  C   UNL     1       5.263  27.528  50.225  1.00  0.00     0.169 C 
BRANCH   6   7
HETATM    7  C   UNL     1       3.970  27.518  49.436  1.00  0.00    -0.028 A 
HETATM    8  C   UNL     1       3.031  28.553  49.529  1.00  0.00     0.010 A 
HETATM    9  C   UNL     1       1.858  28.525  48.768  1.00  0.00     0.007 A 
HETATM   10  C   UNL     1       1.598  27.458  47.902  1.00  0.00    -0.062 A 
HETATM   11  C   UNL     1       0.358  27.439  47.060  1.00  0.00     0.048 C 
HETATM   12  C   UNL     1       2.539  26.429  47.794  1.00  0.00     0.007 A 
HETATM   13  C   UNL     1       3.709  26.455  48.557  1.00  0.00     0.010 A 
ENDBRANCH   6   7
BRANCH   6  14
HETATM   14  O   UNL     1       5.832  26.214  50.290  1.00  0.00    -0.389 OA
HETATM   15  H   UNL     1       5.878  26.006  51.239  1.00  0.00     0.210 HD
ENDBRANCH   6  14
ENDBRANCH   5   6
ENDBRANCH   1   5
BRANCH   2  16
HETATM   16  C   UNL     1       7.279  26.711  54.439  1.00  0.00     0.142 C 
BRANCH  16  17
HETATM   17  C   UNL     1       7.437  25.246  54.751  1.00  0.00    -0.031 A 
HETATM   18  C   UNL     1       7.555  24.753  56.045  1.00  0.00     0.125 A 
HETATM   19  N   UNL     1       7.736  23.448  56.353  1.00  0.00    -0.260 NA
HETATM   20  C   UNL     1       7.844  22.566  55.346  1.00  0.00     0.066 A 
HETATM   21  C   UNL     1       7.767  22.957  53.995  1.00  0.00    -0.007 A 
HETATM   22  C   UNL     1       8.047  21.223  55.633  1.00  0.00     0.032 A 
HETATM   23  C   UNL     1       7.561  24.317  53.714  1.00  0.00     0.022 A 
HETATM   24  C   UNL     1       7.903  21.999  52.974  1.00  0.00     0.014 A 
HETATM   25  C   UNL     1       8.112  20.657  53.289  1.00  0.00     0.001 A 
HETATM   26  C   UNL     1       8.182  20.268  54.622  1.00  0.00     0.002 A 
ENDBRANCH  16  17
ENDBRANCH   2  16
TORSDOF 6
ENDMDL
