MODEL 1
REMARK VINA RESULT:      -9.8      0.000      0.000
REMARK  8 active torsions:
REMARK  status: ('A' for Active; 'I' for Inactive)
REMARK    1  A    between atoms: O_2  and  C_3 
REMARK    2  A    between atoms: C_6  and  N_7 
REMARK    3  A    between atoms: N_7  and  C_8 
REMARK    4  A    between atoms: C_11  and  C_12 
REMARK    5  A    between atoms: C_15  and  C_16 
REMARK       I    between atoms: C_16  and  N_17 
REMARK    6  A    between atoms: N_17  and  C_18 
REMARK    7  A    between atoms: C_18  and  C_19 
REMARK    8  A    between atoms: C_19  and  O_20 
ROOT
HETATM    1  C   UNL     1       7.372  30.627  58.478  1.00  0.00     0.161 A 
HETATM    2  N   UNL     1       6.321  29.801  58.288  1.00  0.00    -0.131 NA
HETATM    3  N   UNL     1       6.462  28.623  57.614  1.00  0.00    -0.147 NA
HETATM    4  C   UNL     1       7.669  28.257  57.128  1.00  0.00     0.100 A 
HETATM    5  C   UNL     1       8.809  29.067  57.286  1.00  0.00     0.009 A 
HETATM    6  C   UNL     1       8.655  30.284  57.991  1.00  0.00     0.024 A 
HETATM    7  C   UNL     1      10.089  28.735  56.773  1.00  0.00     0.015 A 
HETATM    8  C   UNL     1      11.195  29.561  56.973  1.00  0.00     0.001 A 
HETATM    9  C   UNL     1      11.052  30.741  57.687  1.00  0.00     0.001 A 
HETATM   10  C   UNL     1       9.799  31.098  58.188  1.00  0.00     0.016 A 
ENDROOT
BRANCH   4  11
HETATM   11  C   UNL     1       7.648  26.957  56.441  1.00  0.00    -0.005 A 
HETATM   12  C   UNL     1       7.267  26.875  55.090  1.00  0.00     0.015 A 
HETATM   13  C   UNL     1       7.201  25.643  54.431  1.00  0.00     0.018 A 
HETATM   14  C   UNL     1       7.501  24.465  55.121  1.00  0.00     0.032 A 
HETATM   15  C   UNL     1       7.897  24.532  56.462  1.00  0.00     0.018 A 
HETATM   16  C   UNL     1       7.961  25.767  57.118  1.00  0.00     0.015 A 
BRANCH  14  17
HETATM   17  C   UNL     1       7.417  23.127  54.475  1.00  0.00     0.251 C 
HETATM   18  N   UNL     1       7.688  22.040  55.278  1.00  0.00    -0.355 N 
HETATM   19  H   UNL     1       8.058  22.174  56.209  1.00  0.00     0.162 HD
HETATM   20  O   UNL     1       7.163  23.032  53.280  1.00  0.00    -0.268 OA
BRANCH  18  21
HETATM   21  C   UNL     1       7.697  20.687  54.744  1.00  0.00     0.148 C 
BRANCH  21  22
HETATM   22  C   UNL     1       8.799  20.480  53.704  1.00  0.00     0.183 C 
BRANCH  22  23
HETATM   23  O   UNL     1       8.228  20.070  52.461  1.00  0.00    -0.399 OA
HETATM   24  H   UNL     1       8.918  20.223  51.790  1.00  0.00     0.209 HD
ENDBRANCH  22  23
ENDBRANCH  21  22
ENDBRANCH  18  21
ENDBRANCH  14  17
ENDBRANCH   4  11
BRANCH   1  25
HETATM   25  N   UNL     1       7.184  31.869  59.142  1.00  0.00    -0.339 N 
HETATM   26  H   UNL     1       6.379  32.334  58.735  1.00  0.00     0.167 HD
BRANCH  25  27
HETATM   27  C   UNL     1       7.299  32.123  60.526  1.00  0.00     0.033 A 
HETATM   28  C   UNL     1       8.358  31.623  61.293  1.00  0.00     0.032 A 
HETATM   29  C   UNL     1       8.498  31.954  62.647  1.00  0.00     0.039 A 
HETATM   30  C   UNL     1       7.586  32.814  63.255  1.00  0.00     0.068 A 
HETATM   31  C   UNL     1       6.538  33.334  62.496  1.00  0.00     0.039 A 
HETATM   32  C   UNL     1       6.404  33.006  61.142  1.00  0.00     0.032 A 
BRANCH  30  33
HETATM   33  O   UNL     1       7.611  33.223  64.559  1.00  0.00    -0.356 OA
HETATM   34  C   UNL     1       6.410  33.784  65.075  1.00  0.00     0.210 C 
ENDBRANCH  30  33
ENDBRANCH  25  27
ENDBRANCH   1  25
TORSDOF 8
ENDMDL
MODEL 2
REMARK VINA RESULT:      -9.7      1.573      2.592
REMARK  8 active torsions:
REMARK  status: ('A' for Active; 'I' for Inactive)
REMARK    1  A    between atoms: O_2  and  C_3 
REMARK    2  A    between atoms: C_6  and  N_7 
REMARK    3  A    between atoms: N_7  and  C_8 
REMARK    4  A    between atoms: C_11  and  C_12 
REMARK    5  A    between atoms: C_15  and  C_16 
REMARK       I    between atoms: C_16  and  N_17 
REMARK    6  A    between atoms: N_17  and  C_18 
REMARK    7  A    between atoms: C_18  and  C_19 
REMARK    8  A    between atoms: C_19  and  O_20 
ROOT
HETATM    1  C   UNL     1       7.906  30.448  58.251  1.00  0.00     0.161 A 
HETATM    2  N   UNL     1       8.946  29.587  58.245  1.00  0.00    -0.131 NA
HETATM    3  N   UNL     1       8.819  28.333  57.722  1.00  0.00    -0.147 NA
HETATM    4  C   UNL     1       7.642  27.931  57.192  1.00  0.00     0.100 A 
HETATM    5  C   UNL     1       6.515  28.774  57.166  1.00  0.00     0.009 A 
HETATM    6  C   UNL     1       6.657  30.075  57.704  1.00  0.00     0.024 A 
HETATM    7  C   UNL     1       5.255  28.388  56.642  1.00  0.00     0.015 A 
HETATM    8  C   UNL     1       4.171  29.266  56.618  1.00  0.00     0.001 A 
HETATM    9  C   UNL     1       4.316  30.550  57.120  1.00  0.00     0.001 A 
HETATM   10  C   UNL     1       5.541  30.948  57.656  1.00  0.00     0.016 A 
ENDROOT
BRANCH   4  11
HETATM   11  C   UNL     1       7.681  26.560  56.664  1.00  0.00    -0.005 A 
HETATM   12  C   UNL     1       7.340  26.307  55.324  1.00  0.00     0.015 A 
HETATM   13  C   UNL     1       7.330  25.004  54.814  1.00  0.00     0.018 A 
HETATM   14  C   UNL     1       7.648  23.926  55.646  1.00  0.00     0.032 A 
HETATM   15  C   UNL     1       8.006  24.165  56.978  1.00  0.00     0.018 A 
HETATM   16  C   UNL     1       8.013  25.469  57.484  1.00  0.00     0.015 A 
BRANCH  14  17
HETATM   17  C   UNL     1       7.624  22.520  55.162  1.00  0.00     0.251 C 
HETATM   18  N   UNL     1       7.781  22.334  53.805  1.00  0.00    -0.355 N 
HETATM   19  H   UNL     1       7.770  23.128  53.179  1.00  0.00     0.162 HD
HETATM   20  O   UNL     1       7.426  21.598  55.946  1.00  0.00    -0.268 OA
BRANCH  18  21
HETATM   21  C   UNL     1       7.713  21.010  53.208  1.00  0.00     0.148 C 
BRANCH  21  22
HETATM   22  C   UNL     1       9.029  20.244  53.343  1.00  0.00     0.183 C 
BRANCH  22  23
HETATM   23  O   UNL     1       8.998  19.418  54.507  1.00  0.00    -0.399 OA
HETATM   24  H   UNL     1       8.771  18.524  54.191  1.00  0.00     0.209 HD
ENDBRANCH  22  23
ENDBRANCH  21  22
ENDBRANCH  18  21
ENDBRANCH  14  17
ENDBRANCH   4  11
BRANCH   1  25
HETATM   25  N   UNL     1       8.055  31.731  58.845  1.00  0.00    -0.339 N 
HETATM   26  H   UNL     1       7.597  32.416  58.252  1.00  0.00     0.167 HD
BRANCH  25  27
HETATM   27  C   UNL     1       7.941  32.056  60.214  1.00  0.00     0.033 A 
HETATM   28  C   UNL     1       6.774  32.603  60.759  1.00  0.00     0.032 A 
HETATM   29  C   UNL     1       6.653  32.841  62.135  1.00  0.00     0.039 A 
HETATM   30  C   UNL     1       7.697  32.513  62.996  1.00  0.00     0.068 A 
HETATM   31  C   UNL     1       8.858  31.949  62.467  1.00  0.00     0.039 A 
HETATM   32  C   UNL     1       8.973  31.707  61.094  1.00  0.00     0.032 A 
BRANCH  30  33
HETATM   33  O   UNL     1       7.706  32.685  64.352  1.00  0.00    -0.356 OA
HETATM   34  C   UNL     1       6.637  33.440  64.907  1.00  0.00     0.210 C 
ENDBRANCH  30  33
ENDBRANCH  25  27
ENDBRANCH   1  25
TORSDOF 8
ENDMDL
MODEL 3
REMARK VINA RESULT:      -9.3      2.871     11.140
REMARK  8 active torsions:
REMARK  status: ('A' for Active; 'I' for Inactive)
REMARK    1  A    between atoms: O_2  and  C_3 
REMARK    2  A    between atoms: C_6  and  N_7 
REMARK    3  A    between atoms: N_7  and  C_8 
REMARK    4  A    between atoms: C_11  and  C_12 
REMARK    5  A    between atoms: C_15  and  C_16 
REMARK       I    between atoms: C_16  and  N_17 
REMARK    6  A    between atoms: N_17  and  C_18 
REMARK    7  A    between atoms: C_18  and  C_19 
REMARK    8  A    between atoms: C_19  and  O_20 
ROOT
HETATM    1  C   UNL     1       8.395  30.418  59.246  1.00  0.00     0.161 A 
HETATM    2  N   UNL     1       8.963  30.256  60.459  1.00  0.00    -0.131 NA
HETATM    3  N   UNL     1       8.470  30.896  61.559  1.00  0.00    -0.147 NA
HETATM    4  C   UNL     1       7.392  31.705  61.451  1.00  0.00     0.100 A 
HETATM    5  C   UNL     1       6.750  31.923  60.218  1.00  0.00     0.009 A 
HETATM    6  C   UNL     1       7.263  31.250  59.084  1.00  0.00     0.024 A 
HETATM    7  C   UNL     1       5.632  32.780  60.053  1.00  0.00     0.015 A 
HETATM    8  C   UNL     1       5.015  32.949  58.813  1.00  0.00     0.001 A 
HETATM    9  C   UNL     1       5.500  32.269  57.706  1.00  0.00     0.001 A 
HETATM   10  C   UNL     1       6.609  31.433  57.839  1.00  0.00     0.016 A 
ENDROOT
BRANCH   4  11
HETATM   11  C   UNL     1       6.986  32.305  62.730  1.00  0.00    -0.005 A 
HETATM   12  C   UNL     1       5.626  32.376  63.079  1.00  0.00     0.015 A 
HETATM   13  C   UNL     1       5.216  32.980  64.272  1.00  0.00     0.018 A 
HETATM   14  C   UNL     1       6.165  33.541  65.132  1.00  0.00     0.032 A 
HETATM   15  C   UNL     1       7.524  33.464  64.806  1.00  0.00     0.018 A 
HETATM   16  C   UNL     1       7.929  32.860  63.611  1.00  0.00     0.015 A 
BRANCH  14  17
HETATM   17  C   UNL     1       5.780  34.222  66.398  1.00  0.00     0.251 C 
HETATM   18  N   UNL     1       6.750  34.298  67.375  1.00  0.00    -0.355 N 
HETATM   19  H   UNL     1       7.618  33.791  67.270  1.00  0.00     0.162 HD
HETATM   20  O   UNL     1       4.639  34.642  66.553  1.00  0.00    -0.268 OA
BRANCH  18  21
HETATM   21  C   UNL     1       6.472  34.886  68.676  1.00  0.00     0.148 C 
BRANCH  21  22
HETATM   22  C   UNL     1       6.121  33.832  69.726  1.00  0.00     0.183 C 
BRANCH  22  23
HETATM   23  O   UNL     1       4.996  33.067  69.293  1.00  0.00    -0.399 OA
HETATM   24  H   UNL     1       4.797  32.452  70.023  1.00  0.00     0.209 HD
ENDBRANCH  22  23
ENDBRANCH  21  22
ENDBRANCH  18  21
ENDBRANCH  14  17
ENDBRANCH   4  11
BRANCH   1  25
HETATM   25  N   UNL     1       8.959  29.775  58.110  1.00  0.00    -0.339 N 
HETATM   26  H   UNL     1       9.887  29.444  58.354  1.00  0.00     0.167 HD
BRANCH  25  27
HETATM   27  C   UNL     1       8.306  28.905  57.210  1.00  0.00     0.033 A 
HETATM   28  C   UNL     1       8.405  29.052  55.822  1.00  0.00     0.032 A 
HETATM   29  C   UNL     1       7.817  28.129  54.947  1.00  0.00     0.039 A 
HETATM   30  C   UNL     1       7.134  27.025  55.450  1.00  0.00     0.068 A 
HETATM   31  C   UNL     1       7.046  26.857  56.832  1.00  0.00     0.039 A 
HETATM   32  C   UNL     1       7.639  27.777  57.703  1.00  0.00     0.032 A 
BRANCH  30  33
HETATM   33  O   UNL     1       6.524  26.049  54.711  1.00  0.00    -0.356 OA
HETATM   34  C   UNL     1       6.480  24.749  55.284  1.00  0.00     0.210 C 
ENDBRANCH  30  33
ENDBRANCH  25  27
ENDBRANCH   1  25
TORSDOF 8
ENDMDL
MODEL 4
REMARK VINA RESULT:      -9.2      4.906      7.066
REMARK  8 active torsions:
REMARK  status: ('A' for Active; 'I' for Inactive)
REMARK    1  A    between atoms: O_2  and  C_3 
REMARK    2  A    between atoms: C_6  and  N_7 
REMARK    3  A    between atoms: N_7  and  C_8 
REMARK    4  A    between atoms: C_11  and  C_12 
REMARK    5  A    between atoms: C_15  and  C_16 
REMARK       I    between atoms: C_16  and  N_17 
REMARK    6  A    between atoms: N_17  and  C_18 
REMARK    7  A    between atoms: C_18  and  C_19 
REMARK    8  A    between atoms: C_19  and  O_20 
ROOT
HETATM    1  C   UNL     1       7.565  27.167  55.510  1.00  0.00     0.161 A 
HETATM    2  N   UNL     1       7.075  28.255  54.880  1.00  0.00    -0.131 NA
HETATM    3  N   UNL     1       6.511  28.159  53.641  1.00  0.00    -0.147 NA
HETATM    4  C   UNL     1       6.427  26.960  53.022  1.00  0.00     0.100 A 
HETATM    5  C   UNL     1       6.919  25.783  53.616  1.00  0.00     0.009 A 
HETATM    6  C   UNL     1       7.497  25.891  54.904  1.00  0.00     0.024 A 
HETATM    7  C   UNL     1       6.874  24.509  52.996  1.00  0.00     0.015 A 
HETATM    8  C   UNL     1       7.356  23.366  53.634  1.00  0.00     0.001 A 
HETATM    9  C   UNL     1       7.897  23.465  54.906  1.00  0.00     0.001 A 
HETATM   10  C   UNL     1       7.967  24.710  55.532  1.00  0.00     0.016 A 
ENDROOT
BRANCH   4  11
HETATM   11  C   UNL     1       5.783  27.032  51.702  1.00  0.00    -0.005 A 
HETATM   12  C   UNL     1       5.723  28.253  51.009  1.00  0.00     0.015 A 
HETATM   13  C   UNL     1       5.077  28.351  49.771  1.00  0.00     0.018 A 
HETATM   14  C   UNL     1       4.465  27.224  49.213  1.00  0.00     0.032 A 
HETATM   15  C   UNL     1       4.531  25.998  49.885  1.00  0.00     0.018 A 
HETATM   16  C   UNL     1       5.176  25.906  51.122  1.00  0.00     0.015 A 
BRANCH  14  17
HETATM   17  C   UNL     1       3.740  27.281  47.915  1.00  0.00     0.251 C 
HETATM   18  N   UNL     1       2.647  28.118  47.857  1.00  0.00    -0.355 N 
HETATM   19  H   UNL     1       2.293  28.551  48.699  1.00  0.00     0.162 HD
HETATM   20  O   UNL     1       4.092  26.573  46.978  1.00  0.00    -0.268 OA
BRANCH  18  21
HETATM   21  C   UNL     1       1.824  28.211  46.661  1.00  0.00     0.148 C 
BRANCH  21  22
HETATM   22  C   UNL     1       0.471  27.521  46.833  1.00  0.00     0.183 C 
BRANCH  22  23
HETATM   23  O   UNL     1       0.439  26.806  48.069  1.00  0.00    -0.399 OA
HETATM   24  H   UNL     1       1.355  26.516  48.230  1.00  0.00     0.209 HD
ENDBRANCH  22  23
ENDBRANCH  21  22
ENDBRANCH  18  21
ENDBRANCH  14  17
ENDBRANCH   4  11
BRANCH   1  25
HETATM   25  N   UNL     1       8.190  27.306  56.779  1.00  0.00    -0.339 N 
HETATM   26  H   UNL     1       8.850  26.545  56.900  1.00  0.00     0.167 HD
BRANCH  25  27
HETATM   27  C   UNL     1       8.644  28.500  57.380  1.00  0.00     0.033 A 
HETATM   28  C   UNL     1       9.843  29.117  57.006  1.00  0.00     0.032 A 
HETATM   29  C   UNL     1      10.235  30.345  57.556  1.00  0.00     0.039 A 
HETATM   30  C   UNL     1       9.417  30.990  58.480  1.00  0.00     0.068 A 
HETATM   31  C   UNL     1       8.210  30.395  58.846  1.00  0.00     0.039 A 
HETATM   32  C   UNL     1       7.819  29.171  58.291  1.00  0.00     0.032 A 
BRANCH  30  33
HETATM   33  O   UNL     1       9.675  32.189  59.085  1.00  0.00    -0.356 OA
HETATM   34  C   UNL     1       9.088  32.397  60.364  1.00  0.00     0.210 C 
ENDBRANCH  30  33
ENDBRANCH  25  27
ENDBRANCH   1  25
TORSDOF 8
ENDMDL
MODEL 5
REMARK VINA RESULT:      -9.0      4.616     10.574
REMARK  8 active torsions:
REMARK  status: ('A' for Active; 'I' for Inactive)
REMARK    1  A    between atoms: O_2  and  C_3 
REMARK    2  A    between atoms: C_6  and  N_7 
REMARK    3  A    between atoms: N_7  and  C_8 
REMARK    4  A    between atoms: C_11  and  C_12 
REMARK    5  A    between atoms: C_15  and  C_16 
REMARK       I    between atoms: C_16  and  N_17 
REMARK    6  A    between atoms: N_17  and  C_18 
REMARK    7  A    between atoms: C_18  and  C_19 
REMARK    8  A    between atoms: C_19  and  O_20 
ROOT
HETATM    1  C   UNL     1       6.126  26.458  51.853  1.00  0.00     0.161 A 
HETATM    2  N   UNL     1       6.072  27.783  52.107  1.00  0.00    -0.131 NA
HETATM    3  N   UNL     1       6.531  28.294  53.286  1.00  0.00    -0.147 NA
HETATM    4  C   UNL     1       7.058  27.476  54.224  1.00  0.00     0.100 A 
HETATM    5  C   UNL     1       7.146  26.085  54.030  1.00  0.00     0.009 A 
HETATM    6  C   UNL     1       6.673  25.563  52.802  1.00  0.00     0.024 A 
HETATM    7  C   UNL     1       7.669  25.185  54.994  1.00  0.00     0.015 A 
HETATM    8  C   UNL     1       7.754  23.815  54.748  1.00  0.00     0.001 A 
HETATM    9  C   UNL     1       7.317  23.306  53.535  1.00  0.00     0.001 A 
HETATM   10  C   UNL     1       6.783  24.168  52.576  1.00  0.00     0.016 A 
ENDROOT
BRANCH   4  11
HETATM   11  C   UNL     1       7.515  28.189  55.426  1.00  0.00    -0.005 A 
HETATM   12  C   UNL     1       6.719  28.205  56.585  1.00  0.00     0.015 A 
HETATM   13  C   UNL     1       7.116  28.912  57.725  1.00  0.00     0.018 A 
HETATM   14  C   UNL     1       8.315  29.631  57.718  1.00  0.00     0.032 A 
HETATM   15  C   UNL     1       9.125  29.611  56.576  1.00  0.00     0.018 A 
HETATM   16  C   UNL     1       8.723  28.904  55.438  1.00  0.00     0.015 A 
BRANCH  14  17
HETATM   17  C   UNL     1       8.768  30.424  58.893  1.00  0.00     0.251 C 
HETATM   18  N   UNL     1       7.949  30.402  60.001  1.00  0.00    -0.355 N 
HETATM   19  H   UNL     1       7.031  29.982  59.947  1.00  0.00     0.162 HD
HETATM   20  O   UNL     1       9.796  31.088  58.832  1.00  0.00    -0.268 OA
BRANCH  18  21
HETATM   21  C   UNL     1       8.257  31.187  61.187  1.00  0.00     0.148 C 
BRANCH  21  22
HETATM   22  C   UNL     1       9.397  30.581  62.004  1.00  0.00     0.183 C 
BRANCH  22  23
HETATM   23  O   UNL     1       8.981  29.345  62.585  1.00  0.00    -0.399 OA
HETATM   24  H   UNL     1       9.795  28.826  62.715  1.00  0.00     0.209 HD
ENDBRANCH  22  23
ENDBRANCH  21  22
ENDBRANCH  18  21
ENDBRANCH  14  17
ENDBRANCH   4  11
BRANCH   1  25
HETATM   25  N   UNL     1       5.597  25.950  50.636  1.00  0.00    -0.339 N 
HETATM   26  H   UNL     1       5.494  24.944  50.724  1.00  0.00     0.167 HD
BRANCH  25  27
HETATM   27  C   UNL     1       4.575  26.520  49.845  1.00  0.00     0.033 A 
HETATM   28  C   UNL     1       4.001  25.843  48.763  1.00  0.00     0.032 A 
HETATM   29  C   UNL     1       2.932  26.393  48.043  1.00  0.00     0.039 A 
HETATM   30  C   UNL     1       2.403  27.627  48.411  1.00  0.00     0.068 A 
HETATM   31  C   UNL     1       2.953  28.302  49.500  1.00  0.00     0.039 A 
HETATM   32  C   UNL     1       4.017  27.748  50.220  1.00  0.00     0.032 A 
BRANCH  30  33
HETATM   33  O   UNL     1       1.361  28.270  47.802  1.00  0.00    -0.356 OA
HETATM   34  C   UNL     1       0.462  27.462  47.053  1.00  0.00     0.210 C 
ENDBRANCH  30  33
ENDBRANCH  25  27
ENDBRANCH   1  25
TORSDOF 8
ENDMDL
MODEL 6
REMARK VINA RESULT:      -8.9      1.712     10.330
REMARK  8 active torsions:
REMARK  status: ('A' for Active; 'I' for Inactive)
REMARK    1  A    between atoms: O_2  and  C_3 
REMARK    2  A    between atoms: C_6  and  N_7 
REMARK    3  A    between atoms: N_7  and  C_8 
REMARK    4  A    between atoms: C_11  and  C_12 
REMARK    5  A    between atoms: C_15  and  C_16 
REMARK       I    between atoms: C_16  and  N_17 
REMARK    6  A    between atoms: N_17  and  C_18 
REMARK    7  A    between atoms: C_18  and  C_19 
REMARK    8  A    between atoms: C_19  and  O_20 
ROOT
HETATM    1  C   UNL     1       7.243  29.370  56.221  1.00  0.00     0.161 A 
HETATM    2  N   UNL     1       6.126  29.707  56.898  1.00  0.00    -0.131 NA
HETATM    3  N   UNL     1       6.196  30.373  58.087  1.00  0.00    -0.147 NA
HETATM    4  C   UNL     1       7.396  30.715  58.607  1.00  0.00     0.100 A 
HETATM    5  C   UNL     1       8.603  30.395  57.958  1.00  0.00     0.009 A 
HETATM    6  C   UNL     1       8.521  29.709  56.722  1.00  0.00     0.024 A 
HETATM    7  C   UNL     1       9.885  30.712  58.476  1.00  0.00     0.015 A 
HETATM    8  C   UNL     1      11.054  30.392  57.785  1.00  0.00     0.001 A 
HETATM    9  C   UNL     1      10.975  29.745  56.562  1.00  0.00     0.001 A 
HETATM   10  C   UNL     1       9.726  29.408  56.038  1.00  0.00     0.016 A 
ENDROOT
BRANCH   4  11
HETATM   11  C   UNL     1       7.292  31.436  59.884  1.00  0.00    -0.005 A 
HETATM   12  C   UNL     1       8.069  31.040  60.986  1.00  0.00     0.015 A 
HETATM   13  C   UNL     1       7.954  31.687  62.222  1.00  0.00     0.018 A 
HETATM   14  C   UNL     1       7.043  32.736  62.378  1.00  0.00     0.032 A 
HETATM   15  C   UNL     1       6.275  33.152  61.284  1.00  0.00     0.018 A 
HETATM   16  C   UNL     1       6.392  32.501  60.052  1.00  0.00     0.015 A 
BRANCH  14  17
HETATM   17  C   UNL     1       6.860  33.437  63.677  1.00  0.00     0.251 C 
HETATM   18  N   UNL     1       5.658  34.086  63.861  1.00  0.00    -0.355 N 
HETATM   19  H   UNL     1       5.011  34.186  63.091  1.00  0.00     0.162 HD
HETATM   20  O   UNL     1       7.767  33.458  64.502  1.00  0.00    -0.268 OA
BRANCH  18  21
HETATM   21  C   UNL     1       5.389  34.856  65.066  1.00  0.00     0.148 C 
BRANCH  21  22
HETATM   22  C   UNL     1       4.945  33.974  66.232  1.00  0.00     0.183 C 
BRANCH  22  23
HETATM   23  O   UNL     1       6.043  33.740  67.115  1.00  0.00    -0.399 OA
HETATM   24  H   UNL     1       6.765  34.312  66.796  1.00  0.00     0.209 HD
ENDBRANCH  22  23
ENDBRANCH  21  22
ENDBRANCH  18  21
ENDBRANCH  14  17
ENDBRANCH   4  11
BRANCH   1  25
HETATM   25  N   UNL     1       7.140  28.635  55.008  1.00  0.00    -0.339 N 
HETATM   26  H   UNL     1       7.574  29.174  54.266  1.00  0.00     0.167 HD
BRANCH  25  27
HETATM   27  C   UNL     1       7.329  27.247  54.834  1.00  0.00     0.033 A 
HETATM   28  C   UNL     1       7.225  26.338  55.893  1.00  0.00     0.032 A 
HETATM   29  C   UNL     1       7.334  24.957  55.684  1.00  0.00     0.039 A 
HETATM   30  C   UNL     1       7.530  24.458  54.399  1.00  0.00     0.068 A 
HETATM   31  C   UNL     1       7.616  25.352  53.332  1.00  0.00     0.039 A 
HETATM   32  C   UNL     1       7.501  26.731  53.543  1.00  0.00     0.032 A 
BRANCH  30  33
HETATM   33  O   UNL     1       7.645  23.139  54.055  1.00  0.00    -0.356 OA
HETATM   34  C   UNL     1       7.715  22.205  55.126  1.00  0.00     0.210 C 
ENDBRANCH  30  33
ENDBRANCH  25  27
ENDBRANCH   1  25
TORSDOF 8
ENDMDL
MODEL 7
REMARK VINA RESULT:      -8.7      3.467     11.120
REMARK  8 active torsions:
REMARK  status: ('A' for Active; 'I' for Inactive)
REMARK    1  A    between atoms: O_2  and  C_3 
REMARK    2  A    between atoms: C_6  and  N_7 
REMARK    3  A    between atoms: N_7  and  C_8 
REMARK    4  A    between atoms: C_11  and  C_12 
REMARK    5  A    between atoms: C_15  and  C_16 
REMARK       I    between atoms: C_16  and  N_17 
REMARK    6  A    between atoms: N_17  and  C_18 
REMARK    7  A    between atoms: C_18  and  C_19 
REMARK    8  A    between atoms: C_19  and  O_20 
ROOT
HETATM    1  C   UNL     1       6.208  31.841  58.876  1.00  0.00     0.161 A 
HETATM    2  N   UNL     1       5.069  32.158  59.527  1.00  0.00    -0.131 NA
HETATM    3  N   UNL     1       5.085  32.508  60.846  1.00  0.00    -0.147 NA
HETATM    4  C   UNL     1       6.253  32.551  61.525  1.00  0.00     0.100 A 
HETATM    5  C   UNL     1       7.479  32.232  60.913  1.00  0.00     0.009 A 
HETATM    6  C   UNL     1       7.454  31.875  59.543  1.00  0.00     0.024 A 
HETATM    7  C   UNL     1       8.725  32.240  61.591  1.00  0.00     0.015 A 
HETATM    8  C   UNL     1       9.918  31.936  60.935  1.00  0.00     0.001 A 
HETATM    9  C   UNL     1       9.899  31.613  59.587  1.00  0.00     0.001 A 
HETATM   10  C   UNL     1       8.684  31.582  58.901  1.00  0.00     0.016 A 
ENDROOT
BRANCH   4  11
HETATM   11  C   UNL     1       6.094  32.958  62.929  1.00  0.00    -0.005 A 
HETATM   12  C   UNL     1       4.825  33.297  63.429  1.00  0.00     0.015 A 
HETATM   13  C   UNL     1       4.658  33.727  64.750  1.00  0.00     0.018 A 
HETATM   14  C   UNL     1       5.769  33.839  65.592  1.00  0.00     0.032 A 
HETATM   15  C   UNL     1       7.037  33.490  65.113  1.00  0.00     0.018 A 
HETATM   16  C   UNL     1       7.198  33.062  63.790  1.00  0.00     0.015 A 
BRANCH  14  17
HETATM   17  C   UNL     1       5.652  34.320  66.995  1.00  0.00     0.251 C 
HETATM   18  N   UNL     1       6.830  34.458  67.698  1.00  0.00    -0.355 N 
HETATM   19  H   UNL     1       7.697  34.112  67.310  1.00  0.00     0.162 HD
HETATM   20  O   UNL     1       4.549  34.529  67.487  1.00  0.00    -0.268 OA
BRANCH  18  21
HETATM   21  C   UNL     1       6.836  34.861  69.095  1.00  0.00     0.148 C 
BRANCH  21  22
HETATM   22  C   UNL     1       6.786  33.664  70.045  1.00  0.00     0.183 C 
BRANCH  22  23
HETATM   23  O   UNL     1       5.533  32.992  69.920  1.00  0.00    -0.399 OA
HETATM   24  H   UNL     1       5.143  33.312  69.086  1.00  0.00     0.209 HD
ENDBRANCH  22  23
ENDBRANCH  21  22
ENDBRANCH  18  21
ENDBRANCH  14  17
ENDBRANCH   4  11
BRANCH   1  25
HETATM   25  N   UNL     1       6.154  31.434  57.515  1.00  0.00    -0.339 N 
HETATM   26  H   UNL     1       6.781  32.023  56.976  1.00  0.00     0.167 HD
BRANCH  25  27
HETATM   27  C   UNL     1       6.116  30.112  57.021  1.00  0.00     0.033 A 
HETATM   28  C   UNL     1       7.176  29.553  56.297  1.00  0.00     0.032 A 
HETATM   29  C   UNL     1       7.153  28.213  55.887  1.00  0.00     0.039 A 
HETATM   30  C   UNL     1       6.072  27.400  56.215  1.00  0.00     0.068 A 
HETATM   31  C   UNL     1       5.018  27.940  56.953  1.00  0.00     0.039 A 
HETATM   32  C   UNL     1       5.047  29.277  57.366  1.00  0.00     0.032 A 
BRANCH  30  33
HETATM   33  O   UNL     1       5.927  26.080  55.886  1.00  0.00    -0.356 OA
HETATM   34  C   UNL     1       5.239  25.261  56.823  1.00  0.00     0.210 C 
ENDBRANCH  30  33
ENDBRANCH  25  27
ENDBRANCH   1  25
TORSDOF 8
ENDMDL
MODEL 8
REMARK VINA RESULT:      -8.5      2.201     10.425
REMARK  8 active torsions:
REMARK  status: ('A' for Active; 'I' for Inactive)
REMARK    1  A    between atoms: O_2  and  C_3 
REMARK    2  A    between atoms: C_6  and  N_7 
REMARK    3  A    between atoms: N_7  and  C_8 
REMARK    4  A    between atoms: C_11  and  C_12 
REMARK    5  A    between atoms: C_15  and  C_16 
REMARK       I    between atoms: C_16  and  N_17 
REMARK    6  A    between atoms: N_17  and  C_18 
REMARK    7  A    between atoms: C_18  and  C_19 
REMARK    8  A    between atoms: C_19  and  O_20 
ROOT
HETATM    1  C   UNL     1       7.522  28.461  55.059  1.00  0.00     0.161 A 
HETATM    2  N   UNL     1       8.608  28.695  55.825  1.00  0.00    -0.131 NA
HETATM    3  N   UNL     1       8.515  29.419  56.978  1.00  0.00    -0.147 NA
HETATM    4  C   UNL     1       7.322  29.913  57.378  1.00  0.00     0.100 A 
HETATM    5  C   UNL     1       6.148  29.712  56.629  1.00  0.00     0.009 A 
HETATM    6  C   UNL     1       6.252  28.954  55.438  1.00  0.00     0.024 A 
HETATM    7  C   UNL     1       4.879  30.230  56.996  1.00  0.00     0.015 A 
HETATM    8  C   UNL     1       3.739  29.986  56.232  1.00  0.00     0.001 A 
HETATM    9  C   UNL     1       3.834  29.222  55.080  1.00  0.00     0.001 A 
HETATM   10  C   UNL     1       5.073  28.714  54.688  1.00  0.00     0.016 A 
ENDROOT
BRANCH   4  11
HETATM   11  C   UNL     1       7.396  30.657  58.644  1.00  0.00    -0.005 A 
HETATM   12  C   UNL     1       8.328  30.288  59.629  1.00  0.00     0.015 A 
HETATM   13  C   UNL     1       8.386  30.957  60.856  1.00  0.00     0.018 A 
HETATM   14  C   UNL     1       7.496  32.001  61.125  1.00  0.00     0.032 A 
HETATM   15  C   UNL     1       6.573  32.390  60.147  1.00  0.00     0.018 A 
HETATM   16  C   UNL     1       6.518  31.717  58.922  1.00  0.00     0.015 A 
BRANCH  14  17
HETATM   17  C   UNL     1       7.495  32.725  62.425  1.00  0.00     0.251 C 
HETATM   18  N   UNL     1       6.422  33.556  62.665  1.00  0.00    -0.355 N 
HETATM   19  H   UNL     1       5.759  33.755  61.929  1.00  0.00     0.162 HD
HETATM   20  O   UNL     1       8.437  32.604  63.201  1.00  0.00    -0.268 OA
BRANCH  18  21
HETATM   21  C   UNL     1       6.342  34.361  63.874  1.00  0.00     0.148 C 
BRANCH  21  22
HETATM   22  C   UNL     1       5.628  33.632  65.011  1.00  0.00     0.183 C 
BRANCH  22  23
HETATM   23  O   UNL     1       4.681  32.705  64.480  1.00  0.00    -0.399 OA
HETATM   24  H   UNL     1       5.150  31.853  64.417  1.00  0.00     0.209 HD
ENDBRANCH  22  23
ENDBRANCH  21  22
ENDBRANCH  18  21
ENDBRANCH  14  17
ENDBRANCH   4  11
BRANCH   1  25
HETATM   25  N   UNL     1       7.658  27.744  53.839  1.00  0.00    -0.339 N 
HETATM   26  H   UNL     1       8.410  28.161  53.301  1.00  0.00     0.167 HD
BRANCH  25  27
HETATM   27  C   UNL     1       7.593  26.345  53.661  1.00  0.00     0.033 A 
HETATM   28  C   UNL     1       7.830  25.736  52.423  1.00  0.00     0.032 A 
HETATM   29  C   UNL     1       7.842  24.342  52.285  1.00  0.00     0.039 A 
HETATM   30  C   UNL     1       7.637  23.528  53.396  1.00  0.00     0.068 A 
HETATM   31  C   UNL     1       7.420  24.122  54.639  1.00  0.00     0.039 A 
HETATM   32  C   UNL     1       7.414  25.515  54.774  1.00  0.00     0.032 A 
BRANCH  30  33
HETATM   33  O   UNL     1       7.632  22.160  53.403  1.00  0.00    -0.356 OA
HETATM   34  C   UNL     1       8.609  21.522  54.214  1.00  0.00     0.210 C 
ENDBRANCH  30  33
ENDBRANCH  25  27
ENDBRANCH   1  25
TORSDOF 8
ENDMDL
MODEL 9
REMARK VINA RESULT:      -8.4      1.751      2.700
REMARK  8 active torsions:
REMARK  status: ('A' for Active; 'I' for Inactive)
REMARK    1  A    between atoms: O_2  and  C_3 
REMARK    2  A    between atoms: C_6  and  N_7 
REMARK    3  A    between atoms: N_7  and  C_8 
REMARK    4  A    between atoms: C_11  and  C_12 
REMARK    5  A    between atoms: C_15  and  C_16 
REMARK       I    between atoms: C_16  and  N_17 
REMARK    6  A    between atoms: N_17  and  C_18 
REMARK    7  A    between atoms: C_18  and  C_19 
REMARK    8  A    between atoms: C_19  and  O_20 
ROOT
HETATM    1  C   UNL     1       7.839  31.463  59.319  1.00  0.00     0.161 A 
HETATM    2  N   UNL     1       8.715  30.441  59.414  1.00  0.00    -0.131 NA
HETATM    3  N   UNL     1       8.556  29.305  58.674  1.00  0.00    -0.147 NA
HETATM    4  C   UNL     1       7.514  29.188  57.822  1.00  0.00     0.100 A 
HETATM    5  C   UNL     1       6.560  30.212  57.671  1.00  0.00     0.009 A 
HETATM    6  C   UNL     1       6.736  31.388  58.438  1.00  0.00     0.024 A 
HETATM    7  C   UNL     1       5.438  30.124  56.808  1.00  0.00     0.015 A 
HETATM    8  C   UNL     1       4.530  31.174  56.676  1.00  0.00     0.001 A 
HETATM    9  C   UNL     1       4.716  32.338  57.406  1.00  0.00     0.001 A 
HETATM   10  C   UNL     1       5.802  32.443  58.275  1.00  0.00     0.016 A 
ENDROOT
BRANCH   4  11
HETATM   11  C   UNL     1       7.498  27.909  57.095  1.00  0.00    -0.005 A 
HETATM   12  C   UNL     1       7.278  26.705  57.786  1.00  0.00     0.015 A 
HETATM   13  C   UNL     1       7.301  25.475  57.120  1.00  0.00     0.018 A 
HETATM   14  C   UNL     1       7.562  25.429  55.747  1.00  0.00     0.032 A 
HETATM   15  C   UNL     1       7.768  26.622  55.044  1.00  0.00     0.018 A 
HETATM   16  C   UNL     1       7.746  27.849  55.715  1.00  0.00     0.015 A 
BRANCH  14  17
HETATM   17  C   UNL     1       7.628  24.146  54.997  1.00  0.00     0.251 C 
HETATM   18  N   UNL     1       7.276  23.009  55.693  1.00  0.00    -0.355 N 
HETATM   19  H   UNL     1       7.123  23.051  56.691  1.00  0.00     0.162 HD
HETATM   20  O   UNL     1       8.022  24.126  53.837  1.00  0.00    -0.268 OA
BRANCH  18  21
HETATM   21  C   UNL     1       7.360  21.691  55.084  1.00  0.00     0.148 C 
BRANCH  21  22
HETATM   22  C   UNL     1       8.195  20.719  55.916  1.00  0.00     0.183 C 
BRANCH  22  23
HETATM   23  O   UNL     1       9.403  20.397  55.226  1.00  0.00    -0.399 OA
HETATM   24  H   UNL     1       9.959  21.195  55.280  1.00  0.00     0.209 HD
ENDBRANCH  22  23
ENDBRANCH  21  22
ENDBRANCH  18  21
ENDBRANCH  14  17
ENDBRANCH   4  11
BRANCH   1  25
HETATM   25  N   UNL     1       8.004  32.614  60.137  1.00  0.00    -0.339 N 
HETATM   26  H   UNL     1       7.833  33.439  59.572  1.00  0.00     0.167 HD
BRANCH  25  27
HETATM   27  C   UNL     1       7.566  32.784  61.469  1.00  0.00     0.033 A 
HETATM   28  C   UNL     1       8.328  32.365  62.566  1.00  0.00     0.032 A 
HETATM   29  C   UNL     1       7.913  32.617  63.880  1.00  0.00     0.039 A 
HETATM   30  C   UNL     1       6.733  33.316  64.120  1.00  0.00     0.068 A 
HETATM   31  C   UNL     1       5.976  33.756  63.034  1.00  0.00     0.039 A 
HETATM   32  C   UNL     1       6.395  33.508  61.723  1.00  0.00     0.032 A 
BRANCH  30  33
HETATM   33  O   UNL     1       6.220  33.635  65.347  1.00  0.00    -0.356 OA
HETATM   34  C   UNL     1       5.141  34.561  65.366  1.00  0.00     0.210 C 
ENDBRANCH  30  33
ENDBRANCH  25  27
ENDBRANCH   1  25
TORSDOF 8
ENDMDL
MODEL 10
REMARK VINA RESULT:      -8.4      7.832      9.803
REMARK  8 active torsions:
REMARK  status: ('A' for Active; 'I' for Inactive)
REMARK    1  A    between atoms: O_2  and  C_3 
REMARK    2  A    between atoms: C_6  and  N_7 
REMARK    3  A    between atoms: N_7  and  C_8 
REMARK    4  A    between atoms: C_11  and  C_12 
REMARK    5  A    between atoms: C_15  and  C_16 
REMARK       I    between atoms: C_16  and  N_17 
REMARK    6  A    between atoms: N_17  and  C_18 
REMARK    7  A    between atoms: C_18  and  C_19 
REMARK    8  A    between atoms: C_19  and  O_20 
ROOT
HETATM    1  C   UNL     1       4.614  29.425  50.374  1.00  0.00     0.161 A 
HETATM    2  N   UNL     1       5.395  29.421  51.475  1.00  0.00    -0.131 NA
HETATM    3  N   UNL     1       5.869  28.254  52.000  1.00  0.00    -0.147 NA
HETATM    4  C   UNL     1       5.566  27.073  51.418  1.00  0.00     0.100 A 
HETATM    5  C   UNL     1       4.756  26.999  50.270  1.00  0.00     0.009 A 
HETATM    6  C   UNL     1       4.274  28.214  49.728  1.00  0.00     0.024 A 
HETATM    7  C   UNL     1       4.392  25.782  49.639  1.00  0.00     0.015 A 
HETATM    8  C   UNL     1       3.603  25.759  48.489  1.00  0.00     0.001 A 
HETATM    9  C   UNL     1       3.153  26.950  47.941  1.00  0.00     0.001 A 
HETATM   10  C   UNL     1       3.483  28.160  48.552  1.00  0.00     0.016 A 
ENDROOT
BRANCH   4  11
HETATM   11  C   UNL     1       6.165  25.917  52.102  1.00  0.00    -0.005 A 
HETATM   12  C   UNL     1       5.539  25.360  53.230  1.00  0.00     0.015 A 
HETATM   13  C   UNL     1       6.114  24.287  53.920  1.00  0.00     0.018 A 
HETATM   14  C   UNL     1       7.339  23.763  53.499  1.00  0.00     0.032 A 
HETATM   15  C   UNL     1       7.966  24.298  52.367  1.00  0.00     0.018 A 
HETATM   16  C   UNL     1       7.388  25.371  51.682  1.00  0.00     0.015 A 
BRANCH  14  17
HETATM   17  C   UNL     1       8.008  22.643  54.214  1.00  0.00     0.251 C 
HETATM   18  N   UNL     1       7.713  22.507  55.554  1.00  0.00    -0.355 N 
HETATM   19  H   UNL     1       7.183  23.221  56.033  1.00  0.00     0.162 HD
HETATM   20  O   UNL     1       8.810  21.925  53.628  1.00  0.00    -0.268 OA
BRANCH  18  21
HETATM   21  C   UNL     1       8.353  21.487  56.371  1.00  0.00     0.148 C 
BRANCH  21  22
HETATM   22  C   UNL     1       7.892  20.077  56.005  1.00  0.00     0.183 C 
BRANCH  22  23
HETATM   23  O   UNL     1       8.881  19.430  55.204  1.00  0.00    -0.399 OA
HETATM   24  H   UNL     1       9.172  18.655  55.718  1.00  0.00     0.209 HD
ENDBRANCH  22  23
ENDBRANCH  21  22
ENDBRANCH  18  21
ENDBRANCH  14  17
ENDBRANCH   4  11
BRANCH   1  25
HETATM   25  N   UNL     1       4.097  30.652  49.878  1.00  0.00    -0.339 N 
HETATM   26  H   UNL     1       3.583  31.111  50.623  1.00  0.00     0.167 HD
BRANCH  25  27
HETATM   27  C   UNL     1       4.756  31.579  49.041  1.00  0.00     0.033 A 
HETATM   28  C   UNL     1       5.878  32.302  49.462  1.00  0.00     0.032 A 
HETATM   29  C   UNL     1       6.566  33.155  48.589  1.00  0.00     0.039 A 
HETATM   30  C   UNL     1       6.153  33.283  47.266  1.00  0.00     0.068 A 
HETATM   31  C   UNL     1       5.048  32.552  46.828  1.00  0.00     0.039 A 
HETATM   32  C   UNL     1       4.366  31.697  47.701  1.00  0.00     0.032 A 
BRANCH  30  33
HETATM   33  O   UNL     1       6.737  34.070  46.312  1.00  0.00    -0.356 OA
HETATM   34  C   UNL     1       6.335  35.434  46.277  1.00  0.00     0.210 C 
ENDBRANCH  30  33
ENDBRANCH  25  27
ENDBRANCH   1  25
TORSDOF 8
ENDMDL
