MODEL 1
REMARK VINA RESULT:      -8.2      0.000      0.000
REMARK  11 active torsions:
REMARK  status: ('A' for Active; 'I' for Inactive)
REMARK    1  A    between atoms: C_2  and  O_3 
REMARK    2  A    between atoms: O_3  and  C_4 
REMARK    3  A    between atoms: C_7  and  C_8 
REMARK       I    between atoms: C_8  and  N_9 
REMARK    4  A    between atoms: N_9  and  C_10 
REMARK    5  A    between atoms: C_10  and  N_11 
REMARK    6  A    between atoms: N_11  and  C_12 
REMARK    7  A    between atoms: C_13  and  C_14 
REMARK       I    between atoms: C_14  and  N_15 
REMARK    8  A    between atoms: N_15  and  C_16 
REMARK    9  A    between atoms: C_16  and  C_17 
REMARK   10  A    between atoms: C_17  and  C_18 
REMARK   11  A    between atoms: C_18  and  O_19 
ROOT
HETATM    1  N   UNL     1       6.656  29.179  57.344  1.00  0.00    -0.332 N 
HETATM    2  H   UNL     1       6.327  28.462  57.987  1.00  0.00     0.168 HD
ENDROOT
BRANCH   1   3
HETATM    3  C   UNL     1       5.809  29.384  56.254  1.00  0.00     0.179 C 
HETATM    4  S   UNL     1       5.084  30.841  55.868  1.00  0.00    -0.040 SA
BRANCH   3   5
HETATM    5  N   UNL     1       5.723  28.198  55.513  1.00  0.00    -0.299 N 
HETATM    6  C   UNL     1       5.569  26.897  55.988  1.00  0.00     0.257 C 
HETATM    7  O   UNL     1       4.955  26.578  57.000  1.00  0.00    -0.267 OA
HETATM    8  H   UNL     1       6.181  28.289  54.618  1.00  0.00     0.171 HD
BRANCH   6   9
HETATM    9  C   UNL     1       6.131  25.817  55.134  1.00  0.00     0.032 A 
HETATM   10  C   UNL     1       7.288  25.169  55.582  1.00  0.00     0.020 A 
HETATM   11  C   UNL     1       7.863  24.139  54.831  1.00  0.00     0.038 A 
HETATM   12  C   UNL     1       7.277  23.740  53.632  1.00  0.00     0.068 A 
HETATM   13  C   UNL     1       6.121  24.387  53.184  1.00  0.00     0.038 A 
HETATM   14  C   UNL     1       5.541  25.418  53.931  1.00  0.00     0.020 A 
BRANCH  12  15
HETATM   15  O   UNL     1       7.728  22.741  52.812  1.00  0.00    -0.352 OA
BRANCH  15  16
HETATM   16  C   UNL     1       8.631  21.795  53.385  1.00  0.00     0.171 C 
HETATM   17  C   UNL     1       8.193  20.407  52.954  1.00  0.00     0.034 C 
ENDBRANCH  15  16
ENDBRANCH  12  15
ENDBRANCH   6   9
ENDBRANCH   3   5
ENDBRANCH   1   3
BRANCH   1  18
HETATM   18  C   UNL     1       8.030  29.513  57.463  1.00  0.00     0.050 A 
HETATM   19  C   UNL     1       8.434  30.618  58.237  1.00  0.00     0.058 A 
HETATM   20  C   UNL     1       9.775  31.032  58.243  1.00  0.00     0.019 A 
HETATM   21  C   UNL     1      10.726  30.337  57.498  1.00  0.00     0.001 A 
HETATM   22  C   UNL     1      10.338  29.237  56.739  1.00  0.00     0.002 A 
HETATM   23  C   UNL     1       8.999  28.833  56.713  1.00  0.00     0.030 A 
BRANCH  19  24
HETATM   24  C   UNL     1       7.504  31.367  59.120  1.00  0.00     0.253 C 
HETATM   25  N   UNL     1       7.491  30.968  60.442  1.00  0.00    -0.357 N 
HETATM   26  H   UNL     1       8.223  30.337  60.756  1.00  0.00     0.162 HD
HETATM   27  O   UNL     1       6.836  32.292  58.676  1.00  0.00    -0.268 OA
BRANCH  25  28
HETATM   28  C   UNL     1       6.793  31.742  61.453  1.00  0.00     0.125 C 
BRANCH  28  29
HETATM   29  C   UNL     1       7.610  31.849  62.736  1.00  0.00     0.046 C 
BRANCH  29  30
HETATM   30  C   UNL     1       8.943  31.128  62.607  1.00  0.00     0.165 C 
BRANCH  30  31
HETATM   31  O   UNL     1       8.761  29.728  62.777  1.00  0.00    -0.401 OA
HETATM   32  H   UNL     1       8.168  29.416  62.072  1.00  0.00     0.209 HD
ENDBRANCH  30  31
ENDBRANCH  29  30
ENDBRANCH  28  29
ENDBRANCH  25  28
ENDBRANCH  19  24
ENDBRANCH   1  18
TORSDOF 11
ENDMDL
MODEL 2
REMARK VINA RESULT:      -8.0      2.449      8.942
REMARK  11 active torsions:
REMARK  status: ('A' for Active; 'I' for Inactive)
REMARK    1  A    between atoms: C_2  and  O_3 
REMARK    2  A    between atoms: O_3  and  C_4 
REMARK    3  A    between atoms: C_7  and  C_8 
REMARK       I    between atoms: C_8  and  N_9 
REMARK    4  A    between atoms: N_9  and  C_10 
REMARK    5  A    between atoms: C_10  and  N_11 
REMARK    6  A    between atoms: N_11  and  C_12 
REMARK    7  A    between atoms: C_13  and  C_14 
REMARK       I    between atoms: C_14  and  N_15 
REMARK    8  A    between atoms: N_15  and  C_16 
REMARK    9  A    between atoms: C_16  and  C_17 
REMARK   10  A    between atoms: C_17  and  C_18 
REMARK   11  A    between atoms: C_18  and  O_19 
ROOT
HETATM    1  N   UNL     1       7.348  26.348  55.749  1.00  0.00    -0.332 N 
HETATM    2  H   UNL     1       8.262  26.446  56.187  1.00  0.00     0.168 HD
ENDROOT
BRANCH   1   3
HETATM    3  C   UNL     1       6.283  26.489  56.640  1.00  0.00     0.179 C 
HETATM    4  S   UNL     1       5.138  25.311  56.954  1.00  0.00    -0.040 SA
BRANCH   3   5
HETATM    5  N   UNL     1       6.370  27.741  57.263  1.00  0.00    -0.299 N 
HETATM    6  C   UNL     1       6.826  28.940  56.721  1.00  0.00     0.257 C 
HETATM    7  O   UNL     1       6.716  29.278  55.548  1.00  0.00    -0.267 OA
HETATM    8  H   UNL     1       6.458  27.647  58.264  1.00  0.00     0.171 HD
BRANCH   6   9
HETATM    9  C   UNL     1       7.415  29.911  57.682  1.00  0.00     0.032 A 
HETATM   10  C   UNL     1       8.775  29.779  57.988  1.00  0.00     0.020 A 
HETATM   11  C   UNL     1       9.393  30.664  58.878  1.00  0.00     0.038 A 
HETATM   12  C   UNL     1       8.658  31.697  59.457  1.00  0.00     0.068 A 
HETATM   13  C   UNL     1       7.301  31.828  59.150  1.00  0.00     0.038 A 
HETATM   14  C   UNL     1       6.676  30.947  58.261  1.00  0.00     0.020 A 
BRANCH  12  15
HETATM   15  O   UNL     1       9.142  32.635  60.327  1.00  0.00    -0.352 OA
BRANCH  15  16
HETATM   16  C   UNL     1       9.659  32.157  61.569  1.00  0.00     0.171 C 
HETATM   17  C   UNL     1       8.533  32.186  62.589  1.00  0.00     0.034 C 
ENDBRANCH  15  16
ENDBRANCH  12  15
ENDBRANCH   6   9
ENDBRANCH   3   5
ENDBRANCH   1   3
BRANCH   1  18
HETATM   18  C   UNL     1       7.353  25.715  54.478  1.00  0.00     0.050 A 
HETATM   19  C   UNL     1       7.882  24.420  54.325  1.00  0.00     0.058 A 
HETATM   20  C   UNL     1       8.014  23.851  53.049  1.00  0.00     0.019 A 
HETATM   21  C   UNL     1       7.600  24.556  51.921  1.00  0.00     0.001 A 
HETATM   22  C   UNL     1       7.065  25.833  52.064  1.00  0.00     0.002 A 
HETATM   23  C   UNL     1       6.951  26.414  53.331  1.00  0.00     0.030 A 
BRANCH  19  24
HETATM   24  C   UNL     1       8.276  23.569  55.477  1.00  0.00     0.253 C 
HETATM   25  N   UNL     1       7.699  22.314  55.510  1.00  0.00    -0.357 N 
HETATM   26  H   UNL     1       7.205  21.995  54.682  1.00  0.00     0.162 HD
HETATM   27  O   UNL     1       9.086  23.973  56.300  1.00  0.00    -0.268 OA
BRANCH  25  28
HETATM   28  C   UNL     1       8.148  21.306  56.454  1.00  0.00     0.125 C 
BRANCH  28  29
HETATM   29  C   UNL     1       8.387  19.966  55.766  1.00  0.00     0.046 C 
BRANCH  29  30
HETATM   30  C   UNL     1       8.819  20.153  54.320  1.00  0.00     0.165 C 
BRANCH  30  31
HETATM   31  O   UNL     1       7.681  20.344  53.490  1.00  0.00    -0.401 OA
HETATM   32  H   UNL     1       6.887  20.199  54.033  1.00  0.00     0.209 HD
ENDBRANCH  30  31
ENDBRANCH  29  30
ENDBRANCH  28  29
ENDBRANCH  25  28
ENDBRANCH  19  24
ENDBRANCH   1  18
TORSDOF 11
ENDMDL
MODEL 3
REMARK VINA RESULT:      -7.9      3.654      5.149
REMARK  11 active torsions:
REMARK  status: ('A' for Active; 'I' for Inactive)
REMARK    1  A    between atoms: C_2  and  O_3 
REMARK    2  A    between atoms: O_3  and  C_4 
REMARK    3  A    between atoms: C_7  and  C_8 
REMARK       I    between atoms: C_8  and  N_9 
REMARK    4  A    between atoms: N_9  and  C_10 
REMARK    5  A    between atoms: C_10  and  N_11 
REMARK    6  A    between atoms: N_11  and  C_12 
REMARK    7  A    between atoms: C_13  and  C_14 
REMARK       I    between atoms: C_14  and  N_15 
REMARK    8  A    between atoms: N_15  and  C_16 
REMARK    9  A    between atoms: C_16  and  C_17 
REMARK   10  A    between atoms: C_17  and  C_18 
REMARK   11  A    between atoms: C_18  and  O_19 
ROOT
HETATM    1  N   UNL     1       5.939  28.315  52.056  1.00  0.00    -0.332 N 
HETATM    2  H   UNL     1       6.355  29.142  51.632  1.00  0.00     0.168 HD
ENDROOT
BRANCH   1   3
HETATM    3  C   UNL     1       5.686  27.287  51.147  1.00  0.00     0.179 C 
HETATM    4  S   UNL     1       4.839  27.463  49.716  1.00  0.00    -0.040 SA
BRANCH   3   5
HETATM    5  N   UNL     1       6.308  26.115  51.599  1.00  0.00    -0.299 N 
HETATM    6  C   UNL     1       5.736  25.049  52.288  1.00  0.00     0.257 C 
HETATM    7  O   UNL     1       4.581  24.659  52.162  1.00  0.00    -0.267 OA
HETATM    8  H   UNL     1       7.296  26.258  51.749  1.00  0.00     0.171 HD
BRANCH   6   9
HETATM    9  C   UNL     1       6.645  24.284  53.184  1.00  0.00     0.032 A 
HETATM   10  C   UNL     1       6.479  24.439  54.565  1.00  0.00     0.020 A 
HETATM   11  C   UNL     1       7.295  23.742  55.463  1.00  0.00     0.038 A 
HETATM   12  C   UNL     1       8.274  22.874  54.984  1.00  0.00     0.068 A 
HETATM   13  C   UNL     1       8.439  22.719  53.604  1.00  0.00     0.038 A 
HETATM   14  C   UNL     1       7.626  23.413  52.701  1.00  0.00     0.020 A 
BRANCH  12  15
HETATM   15  O   UNL     1       9.125  22.125  55.750  1.00  0.00    -0.352 OA
BRANCH  15  16
HETATM   16  C   UNL     1       8.532  21.299  56.752  1.00  0.00     0.171 C 
HETATM   17  C   UNL     1       7.902  20.102  56.063  1.00  0.00     0.034 C 
ENDBRANCH  15  16
ENDBRANCH  12  15
ENDBRANCH   6   9
ENDBRANCH   3   5
ENDBRANCH   1   3
BRANCH   1  18
HETATM   18  C   UNL     1       5.355  28.521  53.334  1.00  0.00     0.050 A 
HETATM   19  C   UNL     1       6.135  28.424  54.501  1.00  0.00     0.058 A 
HETATM   20  C   UNL     1       5.534  28.489  55.768  1.00  0.00     0.019 A 
HETATM   21  C   UNL     1       4.157  28.673  55.880  1.00  0.00     0.001 A 
HETATM   22  C   UNL     1       3.379  28.781  54.732  1.00  0.00     0.002 A 
HETATM   23  C   UNL     1       3.970  28.696  53.467  1.00  0.00     0.030 A 
BRANCH  19  24
HETATM   24  C   UNL     1       7.616  28.305  54.474  1.00  0.00     0.253 C 
HETATM   25  N   UNL     1       8.302  29.302  55.139  1.00  0.00    -0.357 N 
HETATM   26  H   UNL     1       7.771  29.928  55.737  1.00  0.00     0.162 HD
HETATM   27  O   UNL     1       8.152  27.355  53.920  1.00  0.00    -0.268 OA
BRANCH  25  28
HETATM   28  C   UNL     1       9.732  29.202  55.372  1.00  0.00     0.125 C 
BRANCH  28  29
HETATM   29  C   UNL     1      10.046  29.070  56.859  1.00  0.00     0.046 C 
BRANCH  29  30
HETATM   30  C   UNL     1      10.950  30.196  57.337  1.00  0.00     0.165 C 
BRANCH  30  31
HETATM   31  O   UNL     1      12.314  29.834  57.165  1.00  0.00    -0.401 OA
HETATM   32  H   UNL     1      12.781  30.022  57.998  1.00  0.00     0.209 HD
ENDBRANCH  30  31
ENDBRANCH  29  30
ENDBRANCH  28  29
ENDBRANCH  25  28
ENDBRANCH  19  24
ENDBRANCH   1  18
TORSDOF 11
ENDMDL
MODEL 4
REMARK VINA RESULT:      -7.9      2.479      8.525
REMARK  11 active torsions:
REMARK  status: ('A' for Active; 'I' for Inactive)
REMARK    1  A    between atoms: C_2  and  O_3 
REMARK    2  A    between atoms: O_3  and  C_4 
REMARK    3  A    between atoms: C_7  and  C_8 
REMARK       I    between atoms: C_8  and  N_9 
REMARK    4  A    between atoms: N_9  and  C_10 
REMARK    5  A    between atoms: C_10  and  N_11 
REMARK    6  A    between atoms: N_11  and  C_12 
REMARK    7  A    between atoms: C_13  and  C_14 
REMARK       I    between atoms: C_14  and  N_15 
REMARK    8  A    between atoms: N_15  and  C_16 
REMARK    9  A    between atoms: C_16  and  C_17 
REMARK   10  A    between atoms: C_17  and  C_18 
REMARK   11  A    between atoms: C_18  and  O_19 
ROOT
HETATM    1  N   UNL     1       7.730  25.537  56.046  1.00  0.00    -0.332 N 
HETATM    2  H   UNL     1       8.583  26.006  56.343  1.00  0.00     0.168 HD
ENDROOT
BRANCH   1   3
HETATM    3  C   UNL     1       6.571  26.072  56.612  1.00  0.00     0.179 C 
HETATM    4  S   UNL     1       5.197  25.195  56.983  1.00  0.00    -0.040 SA
BRANCH   3   5
HETATM    5  N   UNL     1       6.776  27.434  56.871  1.00  0.00    -0.299 N 
HETATM    6  C   UNL     1       7.749  28.274  56.335  1.00  0.00     0.257 C 
HETATM    7  O   UNL     1       8.225  28.183  55.209  1.00  0.00    -0.267 OA
HETATM    8  H   UNL     1       6.422  27.692  57.781  1.00  0.00     0.171 HD
BRANCH   6   9
HETATM    9  C   UNL     1       8.166  29.419  57.187  1.00  0.00     0.032 A 
HETATM   10  C   UNL     1       7.164  30.128  57.861  1.00  0.00     0.020 A 
HETATM   11  C   UNL     1       7.490  31.210  58.685  1.00  0.00     0.038 A 
HETATM   12  C   UNL     1       8.823  31.583  58.853  1.00  0.00     0.068 A 
HETATM   13  C   UNL     1       9.823  30.874  58.181  1.00  0.00     0.038 A 
HETATM   14  C   UNL     1       9.504  29.790  57.355  1.00  0.00     0.020 A 
BRANCH  12  15
HETATM   15  O   UNL     1       9.276  32.607  59.639  1.00  0.00    -0.352 OA
BRANCH  15  16
HETATM   16  C   UNL     1       8.701  32.724  60.940  1.00  0.00     0.171 C 
HETATM   17  C   UNL     1       9.348  31.682  61.835  1.00  0.00     0.034 C 
ENDBRANCH  15  16
ENDBRANCH  12  15
ENDBRANCH   6   9
ENDBRANCH   3   5
ENDBRANCH   1   3
BRANCH   1  18
HETATM   18  C   UNL     1       7.915  24.251  55.476  1.00  0.00     0.050 A 
HETATM   19  C   UNL     1       7.568  24.006  54.134  1.00  0.00     0.058 A 
HETATM   20  C   UNL     1       7.620  22.705  53.610  1.00  0.00     0.019 A 
HETATM   21  C   UNL     1       8.038  21.644  54.411  1.00  0.00     0.001 A 
HETATM   22  C   UNL     1       8.394  21.878  55.736  1.00  0.00     0.002 A 
HETATM   23  C   UNL     1       8.324  23.169  56.269  1.00  0.00     0.030 A 
BRANCH  19  24
HETATM   24  C   UNL     1       7.187  25.087  53.190  1.00  0.00     0.253 C 
HETATM   25  N   UNL     1       5.856  25.107  52.818  1.00  0.00    -0.357 N 
HETATM   26  H   UNL     1       5.209  24.518  53.335  1.00  0.00     0.162 HD
HETATM   27  O   UNL     1       8.015  25.908  52.818  1.00  0.00    -0.268 OA
BRANCH  25  28
HETATM   28  C   UNL     1       5.302  26.223  52.073  1.00  0.00     0.125 C 
BRANCH  28  29
HETATM   29  C   UNL     1       4.762  27.302  53.006  1.00  0.00     0.046 C 
BRANCH  29  30
HETATM   30  C   UNL     1       5.363  28.663  52.686  1.00  0.00     0.165 C 
BRANCH  30  31
HETATM   31  O   UNL     1       6.766  28.643  52.912  1.00  0.00    -0.401 OA
HETATM   32  H   UNL     1       7.182  29.238  52.265  1.00  0.00     0.209 HD
ENDBRANCH  30  31
ENDBRANCH  29  30
ENDBRANCH  28  29
ENDBRANCH  25  28
ENDBRANCH  19  24
ENDBRANCH   1  18
TORSDOF 11
ENDMDL
MODEL 5
REMARK VINA RESULT:      -7.8      2.343      3.699
REMARK  11 active torsions:
REMARK  status: ('A' for Active; 'I' for Inactive)
REMARK    1  A    between atoms: C_2  and  O_3 
REMARK    2  A    between atoms: O_3  and  C_4 
REMARK    3  A    between atoms: C_7  and  C_8 
REMARK       I    between atoms: C_8  and  N_9 
REMARK    4  A    between atoms: N_9  and  C_10 
REMARK    5  A    between atoms: C_10  and  N_11 
REMARK    6  A    between atoms: N_11  and  C_12 
REMARK    7  A    between atoms: C_13  and  C_14 
REMARK       I    between atoms: C_14  and  N_15 
REMARK    8  A    between atoms: N_15  and  C_16 
REMARK    9  A    between atoms: C_16  and  C_17 
REMARK   10  A    between atoms: C_17  and  C_18 
REMARK   11  A    between atoms: C_18  and  O_19 
ROOT
HETATM    1  N   UNL     1       5.641  28.896  55.529  1.00  0.00    -0.332 N 
HETATM    2  H   UNL     1       5.221  29.667  56.043  1.00  0.00     0.168 HD
ENDROOT
BRANCH   1   3
HETATM    3  C   UNL     1       5.321  28.889  54.170  1.00  0.00     0.179 C 
HETATM    4  S   UNL     1       4.370  30.033  53.407  1.00  0.00    -0.040 SA
BRANCH   3   5
HETATM    5  N   UNL     1       5.973  27.813  53.552  1.00  0.00    -0.299 N 
HETATM    6  C   UNL     1       5.423  26.611  53.114  1.00  0.00     0.257 C 
HETATM    7  O   UNL     1       4.286  26.466  52.681  1.00  0.00    -0.267 OA
HETATM    8  H   UNL     1       6.952  27.787  53.799  1.00  0.00     0.171 HD
BRANCH   6   9
HETATM    9  C   UNL     1       6.338  25.439  53.102  1.00  0.00     0.032 A 
HETATM   10  C   UNL     1       6.252  24.535  54.169  1.00  0.00     0.020 A 
HETATM   11  C   UNL     1       7.078  23.407  54.214  1.00  0.00     0.038 A 
HETATM   12  C   UNL     1       7.987  23.167  53.185  1.00  0.00     0.068 A 
HETATM   13  C   UNL     1       8.072  24.069  52.120  1.00  0.00     0.038 A 
HETATM   14  C   UNL     1       7.248  25.199  52.068  1.00  0.00     0.020 A 
BRANCH  12  15
HETATM   15  O   UNL     1       8.838  22.099  53.100  1.00  0.00    -0.352 OA
BRANCH  15  16
HETATM   16  C   UNL     1       8.244  20.800  53.099  1.00  0.00     0.171 C 
HETATM   17  C   UNL     1       8.596  20.123  54.412  1.00  0.00     0.034 C 
ENDBRANCH  15  16
ENDBRANCH  12  15
ENDBRANCH   6   9
ENDBRANCH   3   5
ENDBRANCH   1   3
BRANCH   1  18
HETATM   18  C   UNL     1       6.102  27.817  56.328  1.00  0.00     0.050 A 
HETATM   19  C   UNL     1       7.479  27.621  56.539  1.00  0.00     0.058 A 
HETATM   20  C   UNL     1       7.942  26.478  57.211  1.00  0.00     0.019 A 
HETATM   21  C   UNL     1       7.036  25.536  57.695  1.00  0.00     0.001 A 
HETATM   22  C   UNL     1       5.671  25.727  57.500  1.00  0.00     0.002 A 
HETATM   23  C   UNL     1       5.206  26.853  56.813  1.00  0.00     0.030 A 
BRANCH  19  24
HETATM   24  C   UNL     1       8.507  28.610  56.126  1.00  0.00     0.253 C 
HETATM   25  N   UNL     1       9.323  29.075  57.140  1.00  0.00    -0.357 N 
HETATM   26  H   UNL     1       9.291  28.595  58.034  1.00  0.00     0.162 HD
HETATM   27  O   UNL     1       8.617  28.939  54.953  1.00  0.00    -0.268 OA
BRANCH  25  28
HETATM   28  C   UNL     1      10.497  29.879  56.850  1.00  0.00     0.125 C 
BRANCH  28  29
HETATM   29  C   UNL     1      10.602  31.073  57.791  1.00  0.00     0.046 C 
BRANCH  29  30
HETATM   30  C   UNL     1       9.349  31.222  58.642  1.00  0.00     0.165 C 
BRANCH  30  31
HETATM   31  O   UNL     1       9.319  32.508  59.247  1.00  0.00    -0.401 OA
HETATM   32  H   UNL     1       9.680  33.147  58.609  1.00  0.00     0.209 HD
ENDBRANCH  30  31
ENDBRANCH  29  30
ENDBRANCH  28  29
ENDBRANCH  25  28
ENDBRANCH  19  24
ENDBRANCH   1  18
TORSDOF 11
ENDMDL
MODEL 6
REMARK VINA RESULT:      -7.7      2.847      9.266
REMARK  11 active torsions:
REMARK  status: ('A' for Active; 'I' for Inactive)
REMARK    1  A    between atoms: C_2  and  O_3 
REMARK    2  A    between atoms: O_3  and  C_4 
REMARK    3  A    between atoms: C_7  and  C_8 
REMARK       I    between atoms: C_8  and  N_9 
REMARK    4  A    between atoms: N_9  and  C_10 
REMARK    5  A    between atoms: C_10  and  N_11 
REMARK    6  A    between atoms: N_11  and  C_12 
REMARK    7  A    between atoms: C_13  and  C_14 
REMARK       I    between atoms: C_14  and  N_15 
REMARK    8  A    between atoms: N_15  and  C_16 
REMARK    9  A    between atoms: C_16  and  C_17 
REMARK   10  A    between atoms: C_17  and  C_18 
REMARK   11  A    between atoms: C_18  and  O_19 
ROOT
HETATM    1  N   UNL     1       6.878  26.420  55.422  1.00  0.00    -0.332 N 
HETATM    2  H   UNL     1       7.487  27.229  55.322  1.00  0.00     0.168 HD
ENDROOT
BRANCH   1   3
HETATM    3  C   UNL     1       6.047  26.479  56.542  1.00  0.00     0.179 C 
HETATM    4  S   UNL     1       5.064  25.233  57.068  1.00  0.00    -0.040 SA
BRANCH   3   5
HETATM    5  N   UNL     1       6.223  27.716  57.177  1.00  0.00    -0.299 N 
HETATM    6  C   UNL     1       6.643  28.918  56.614  1.00  0.00     0.257 C 
HETATM    7  O   UNL     1       6.418  29.283  55.465  1.00  0.00    -0.267 OA
HETATM    8  H   UNL     1       6.412  27.599  58.162  1.00  0.00     0.171 HD
BRANCH   6   9
HETATM    9  C   UNL     1       7.347  29.858  57.527  1.00  0.00     0.032 A 
HETATM   10  C   UNL     1       6.598  30.895  58.097  1.00  0.00     0.020 A 
HETATM   11  C   UNL     1       7.197  31.809  58.971  1.00  0.00     0.038 A 
HETATM   12  C   UNL     1       8.547  31.682  59.293  1.00  0.00     0.068 A 
HETATM   13  C   UNL     1       9.294  30.646  58.725  1.00  0.00     0.038 A 
HETATM   14  C   UNL     1       8.701  29.729  57.850  1.00  0.00     0.020 A 
BRANCH  12  15
HETATM   15  O   UNL     1       9.249  32.495  60.141  1.00  0.00    -0.352 OA
BRANCH  15  16
HETATM   16  C   UNL     1       9.711  31.909  61.359  1.00  0.00     0.171 C 
HETATM   17  C   UNL     1       8.601  32.025  62.388  1.00  0.00     0.034 C 
ENDBRANCH  15  16
ENDBRANCH  12  15
ENDBRANCH   6   9
ENDBRANCH   3   5
ENDBRANCH   1   3
BRANCH   1  18
HETATM   18  C   UNL     1       7.266  25.276  54.676  1.00  0.00     0.050 A 
HETATM   19  C   UNL     1       6.692  25.014  53.418  1.00  0.00     0.058 A 
HETATM   20  C   UNL     1       6.970  23.815  52.743  1.00  0.00     0.019 A 
HETATM   21  C   UNL     1       7.837  22.881  53.306  1.00  0.00     0.001 A 
HETATM   22  C   UNL     1       8.418  23.136  54.544  1.00  0.00     0.002 A 
HETATM   23  C   UNL     1       8.128  24.320  55.230  1.00  0.00     0.030 A 
BRANCH  19  24
HETATM   24  C   UNL     1       5.819  25.986  52.711  1.00  0.00     0.253 C 
HETATM   25  N   UNL     1       6.229  26.334  51.438  1.00  0.00    -0.357 N 
HETATM   26  H   UNL     1       6.970  25.786  51.011  1.00  0.00     0.162 HD
HETATM   27  O   UNL     1       4.796  26.401  53.239  1.00  0.00    -0.268 OA
BRANCH  25  28
HETATM   28  C   UNL     1       5.370  27.105  50.558  1.00  0.00     0.125 C 
BRANCH  28  29
HETATM   29  C   UNL     1       4.608  26.204  49.593  1.00  0.00     0.046 C 
BRANCH  29  30
HETATM   30  C   UNL     1       4.441  26.862  48.232  1.00  0.00     0.165 C 
BRANCH  30  31
HETATM   31  O   UNL     1       5.545  26.541  47.396  1.00  0.00    -0.401 OA
HETATM   32  H   UNL     1       5.638  27.251  46.736  1.00  0.00     0.209 HD
ENDBRANCH  30  31
ENDBRANCH  29  30
ENDBRANCH  28  29
ENDBRANCH  25  28
ENDBRANCH  19  24
ENDBRANCH   1  18
TORSDOF 11
ENDMDL
MODEL 7
REMARK VINA RESULT:      -7.7      2.505      8.923
REMARK  11 active torsions:
REMARK  status: ('A' for Active; 'I' for Inactive)
REMARK    1  A    between atoms: C_2  and  O_3 
REMARK    2  A    between atoms: O_3  and  C_4 
REMARK    3  A    between atoms: C_7  and  C_8 
REMARK       I    between atoms: C_8  and  N_9 
REMARK    4  A    between atoms: N_9  and  C_10 
REMARK    5  A    between atoms: C_10  and  N_11 
REMARK    6  A    between atoms: N_11  and  C_12 
REMARK    7  A    between atoms: C_13  and  C_14 
REMARK       I    between atoms: C_14  and  N_15 
REMARK    8  A    between atoms: N_15  and  C_16 
REMARK    9  A    between atoms: C_16  and  C_17 
REMARK   10  A    between atoms: C_17  and  C_18 
REMARK   11  A    between atoms: C_18  and  O_19 
ROOT
HETATM    1  N   UNL     1       7.445  27.861  57.378  1.00  0.00    -0.332 N 
HETATM    2  H   UNL     1       6.485  28.178  57.267  1.00  0.00     0.168 HD
ENDROOT
BRANCH   1   3
HETATM    3  C   UNL     1       8.330  28.875  57.747  1.00  0.00     0.179 C 
HETATM    4  S   UNL     1       9.729  29.270  56.920  1.00  0.00    -0.040 SA
BRANCH   3   5
HETATM    5  N   UNL     1       7.823  29.538  58.873  1.00  0.00    -0.299 N 
HETATM    6  C   UNL     1       7.497  30.885  59.002  1.00  0.00     0.257 C 
HETATM    7  O   UNL     1       7.070  31.603  58.105  1.00  0.00    -0.267 OA
HETATM    8  H   UNL     1       8.078  29.061  59.725  1.00  0.00     0.171 HD
BRANCH   6   9
HETATM    9  C   UNL     1       7.603  31.456  60.372  1.00  0.00     0.032 A 
HETATM   10  C   UNL     1       8.562  30.907  61.233  1.00  0.00     0.020 A 
HETATM   11  C   UNL     1       8.719  31.403  62.531  1.00  0.00     0.038 A 
HETATM   12  C   UNL     1       7.928  32.461  62.974  1.00  0.00     0.068 A 
HETATM   13  C   UNL     1       6.972  33.009  62.114  1.00  0.00     0.038 A 
HETATM   14  C   UNL     1       6.809  32.518  60.814  1.00  0.00     0.020 A 
BRANCH  12  15
HETATM   15  O   UNL     1       7.991  33.047  64.209  1.00  0.00    -0.352 OA
BRANCH  15  16
HETATM   16  C   UNL     1       6.957  33.978  64.533  1.00  0.00     0.171 C 
HETATM   17  C   UNL     1       6.706  33.898  66.028  1.00  0.00     0.034 C 
ENDBRANCH  15  16
ENDBRANCH  12  15
ENDBRANCH   6   9
ENDBRANCH   3   5
ENDBRANCH   1   3
BRANCH   1  18
HETATM   18  C   UNL     1       7.744  26.613  56.770  1.00  0.00     0.050 A 
HETATM   19  C   UNL     1       7.455  26.392  55.410  1.00  0.00     0.058 A 
HETATM   20  C   UNL     1       7.620  25.119  54.844  1.00  0.00     0.019 A 
HETATM   21  C   UNL     1       8.094  24.064  55.621  1.00  0.00     0.001 A 
HETATM   22  C   UNL     1       8.393  24.275  56.964  1.00  0.00     0.002 A 
HETATM   23  C   UNL     1       8.211  25.537  57.538  1.00  0.00     0.030 A 
BRANCH  19  24
HETATM   24  C   UNL     1       7.020  27.476  54.492  1.00  0.00     0.253 C 
HETATM   25  N   UNL     1       5.654  27.600  54.327  1.00  0.00    -0.357 N 
HETATM   26  H   UNL     1       5.049  27.083  54.960  1.00  0.00     0.162 HD
HETATM   27  O   UNL     1       7.843  28.211  53.965  1.00  0.00    -0.268 OA
BRANCH  25  28
HETATM   28  C   UNL     1       5.082  28.738  53.631  1.00  0.00     0.125 C 
BRANCH  28  29
HETATM   29  C   UNL     1       4.076  29.479  54.505  1.00  0.00     0.046 C 
BRANCH  29  30
HETATM   30  C   UNL     1       4.726  30.003  55.777  1.00  0.00     0.165 C 
BRANCH  30  31
HETATM   31  O   UNL     1       6.106  30.261  55.551  1.00  0.00    -0.401 OA
HETATM   32  H   UNL     1       6.188  31.165  55.203  1.00  0.00     0.209 HD
ENDBRANCH  30  31
ENDBRANCH  29  30
ENDBRANCH  28  29
ENDBRANCH  25  28
ENDBRANCH  19  24
ENDBRANCH   1  18
TORSDOF 11
ENDMDL
MODEL 8
REMARK VINA RESULT:      -7.6      3.195      9.315
REMARK  11 active torsions:
REMARK  status: ('A' for Active; 'I' for Inactive)
REMARK    1  A    between atoms: C_2  and  O_3 
REMARK    2  A    between atoms: O_3  and  C_4 
REMARK    3  A    between atoms: C_7  and  C_8 
REMARK       I    between atoms: C_8  and  N_9 
REMARK    4  A    between atoms: N_9  and  C_10 
REMARK    5  A    between atoms: C_10  and  N_11 
REMARK    6  A    between atoms: N_11  and  C_12 
REMARK    7  A    between atoms: C_13  and  C_14 
REMARK       I    between atoms: C_14  and  N_15 
REMARK    8  A    between atoms: N_15  and  C_16 
REMARK    9  A    between atoms: C_16  and  C_17 
REMARK   10  A    between atoms: C_17  and  C_18 
REMARK   11  A    between atoms: C_18  and  O_19 
ROOT
HETATM    1  N   UNL     1       4.670  26.590  53.925  1.00  0.00    -0.332 N 
HETATM    2  H   UNL     1       3.774  26.136  53.761  1.00  0.00     0.168 HD
ENDROOT
BRANCH   1   3
HETATM    3  C   UNL     1       4.576  27.973  54.086  1.00  0.00     0.179 C 
HETATM    4  S   UNL     1       3.443  28.948  53.336  1.00  0.00    -0.040 SA
BRANCH   3   5
HETATM    5  N   UNL     1       5.536  28.390  55.018  1.00  0.00    -0.299 N 
HETATM    6  C   UNL     1       5.527  28.211  56.399  1.00  0.00     0.257 C 
HETATM    7  O   UNL     1       5.040  27.253  56.989  1.00  0.00    -0.267 OA
HETATM    8  H   UNL     1       6.053  29.188  54.680  1.00  0.00     0.171 HD
BRANCH   6   9
HETATM    9  C   UNL     1       6.250  29.237  57.197  1.00  0.00     0.032 A 
HETATM   10  C   UNL     1       5.644  30.491  57.346  1.00  0.00     0.020 A 
HETATM   11  C   UNL     1       6.267  31.498  58.091  1.00  0.00     0.038 A 
HETATM   12  C   UNL     1       7.494  31.254  58.705  1.00  0.00     0.068 A 
HETATM   13  C   UNL     1       8.097  30.001  58.557  1.00  0.00     0.038 A 
HETATM   14  C   UNL     1       7.480  28.990  57.813  1.00  0.00     0.020 A 
BRANCH  12  15
HETATM   15  O   UNL     1       8.199  32.142  59.470  1.00  0.00    -0.352 OA
BRANCH  15  16
HETATM   16  C   UNL     1       8.062  32.023  60.887  1.00  0.00     0.171 C 
HETATM   17  C   UNL     1       9.454  31.917  61.485  1.00  0.00     0.034 C 
ENDBRANCH  15  16
ENDBRANCH  12  15
ENDBRANCH   6   9
ENDBRANCH   3   5
ENDBRANCH   1   3
BRANCH   1  18
HETATM   18  C   UNL     1       5.809  25.823  53.565  1.00  0.00     0.050 A 
HETATM   19  C   UNL     1       6.203  25.715  52.218  1.00  0.00     0.058 A 
HETATM   20  C   UNL     1       7.243  24.848  51.847  1.00  0.00     0.019 A 
HETATM   21  C   UNL     1       7.910  24.100  52.815  1.00  0.00     0.001 A 
HETATM   22  C   UNL     1       7.534  24.208  54.151  1.00  0.00     0.002 A 
HETATM   23  C   UNL     1       6.486  25.055  54.524  1.00  0.00     0.030 A 
BRANCH  19  24
HETATM   24  C   UNL     1       5.600  26.532  51.134  1.00  0.00     0.253 C 
HETATM   25  N   UNL     1       4.701  25.867  50.323  1.00  0.00    -0.357 N 
HETATM   26  H   UNL     1       4.381  24.949  50.619  1.00  0.00     0.162 HD
HETATM   27  O   UNL     1       5.878  27.718  51.021  1.00  0.00    -0.268 OA
BRANCH  25  28
HETATM   28  C   UNL     1       3.883  26.586  49.362  1.00  0.00     0.125 C 
BRANCH  28  29
HETATM   29  C   UNL     1       4.418  26.426  47.944  1.00  0.00     0.046 C 
BRANCH  29  30
HETATM   30  C   UNL     1       5.180  27.663  47.494  1.00  0.00     0.165 C 
BRANCH  30  31
HETATM   31  O   UNL     1       6.363  27.285  46.804  1.00  0.00    -0.401 OA
HETATM   32  H   UNL     1       7.076  27.195  47.459  1.00  0.00     0.209 HD
ENDBRANCH  30  31
ENDBRANCH  29  30
ENDBRANCH  28  29
ENDBRANCH  25  28
ENDBRANCH  19  24
ENDBRANCH   1  18
TORSDOF 11
ENDMDL
MODEL 9
REMARK VINA RESULT:      -7.6      2.500      3.743
REMARK  11 active torsions:
REMARK  status: ('A' for Active; 'I' for Inactive)
REMARK    1  A    between atoms: C_2  and  O_3 
REMARK    2  A    between atoms: O_3  and  C_4 
REMARK    3  A    between atoms: C_7  and  C_8 
REMARK       I    between atoms: C_8  and  N_9 
REMARK    4  A    between atoms: N_9  and  C_10 
REMARK    5  A    between atoms: C_10  and  N_11 
REMARK    6  A    between atoms: N_11  and  C_12 
REMARK    7  A    between atoms: C_13  and  C_14 
REMARK       I    between atoms: C_14  and  N_15 
REMARK    8  A    between atoms: N_15  and  C_16 
REMARK    9  A    between atoms: C_16  and  C_17 
REMARK   10  A    between atoms: C_17  and  C_18 
REMARK   11  A    between atoms: C_18  and  O_19 
ROOT
HETATM    1  N   UNL     1       8.066  29.770  59.101  1.00  0.00    -0.332 N 
HETATM    2  H   UNL     1       7.529  28.921  59.265  1.00  0.00     0.168 HD
ENDROOT
BRANCH   1   3
HETATM    3  C   UNL     1       8.928  29.684  58.006  1.00  0.00     0.179 C 
HETATM    4  S   UNL     1      10.233  30.694  57.737  1.00  0.00    -0.040 SA
BRANCH   3   5
HETATM    5  N   UNL     1       8.558  28.585  57.219  1.00  0.00    -0.299 N 
HETATM    6  C   UNL     1       7.355  27.885  57.232  1.00  0.00     0.257 C 
HETATM    7  O   UNL     1       6.255  28.365  57.482  1.00  0.00    -0.267 OA
HETATM    8  H   UNL     1       9.368  28.067  56.909  1.00  0.00     0.171 HD
BRANCH   6   9
HETATM    9  C   UNL     1       7.424  26.456  56.823  1.00  0.00     0.032 A 
HETATM   10  C   UNL     1       8.373  25.644  57.456  1.00  0.00     0.020 A 
HETATM   11  C   UNL     1       8.485  24.290  57.124  1.00  0.00     0.038 A 
HETATM   12  C   UNL     1       7.638  23.734  56.166  1.00  0.00     0.068 A 
HETATM   13  C   UNL     1       6.690  24.546  55.536  1.00  0.00     0.038 A 
HETATM   14  C   UNL     1       6.573  25.901  55.863  1.00  0.00     0.020 A 
BRANCH  12  15
HETATM   15  O   UNL     1       7.632  22.427  55.762  1.00  0.00    -0.352 OA
BRANCH  15  16
HETATM   16  C   UNL     1       7.619  22.188  54.354  1.00  0.00     0.171 C 
HETATM   17  C   UNL     1       8.006  20.739  54.120  1.00  0.00     0.034 C 
ENDBRANCH  15  16
ENDBRANCH  12  15
ENDBRANCH   6   9
ENDBRANCH   3   5
ENDBRANCH   1   3
BRANCH   1  18
HETATM   18  C   UNL     1       8.129  30.667  60.199  1.00  0.00     0.050 A 
HETATM   19  C   UNL     1       7.279  31.787  60.258  1.00  0.00     0.058 A 
HETATM   20  C   UNL     1       7.434  32.748  61.269  1.00  0.00     0.019 A 
HETATM   21  C   UNL     1       8.421  32.589  62.240  1.00  0.00     0.001 A 
HETATM   22  C   UNL     1       9.259  31.480  62.196  1.00  0.00     0.002 A 
HETATM   23  C   UNL     1       9.122  30.530  61.179  1.00  0.00     0.030 A 
BRANCH  19  24
HETATM   24  C   UNL     1       6.153  31.995  59.311  1.00  0.00     0.253 C 
HETATM   25  N   UNL     1       4.890  31.883  59.859  1.00  0.00    -0.357 N 
HETATM   26  H   UNL     1       4.812  31.849  60.871  1.00  0.00     0.162 HD
HETATM   27  O   UNL     1       6.370  32.280  58.141  1.00  0.00    -0.268 OA
BRANCH  25  28
HETATM   28  C   UNL     1       3.709  32.265  59.106  1.00  0.00     0.125 C 
BRANCH  28  29
HETATM   29  C   UNL     1       3.337  33.722  59.354  1.00  0.00     0.046 C 
BRANCH  29  30
HETATM   30  C   UNL     1       3.272  34.034  60.842  1.00  0.00     0.165 C 
BRANCH  30  31
HETATM   31  O   UNL     1       2.681  32.948  61.543  1.00  0.00    -0.401 OA
HETATM   32  H   UNL     1       1.738  33.152  61.670  1.00  0.00     0.209 HD
ENDBRANCH  30  31
ENDBRANCH  29  30
ENDBRANCH  28  29
ENDBRANCH  25  28
ENDBRANCH  19  24
ENDBRANCH   1  18
TORSDOF 11
ENDMDL
MODEL 10
REMARK VINA RESULT:      -7.4      2.493      9.831
REMARK  11 active torsions:
REMARK  status: ('A' for Active; 'I' for Inactive)
REMARK    1  A    between atoms: C_2  and  O_3 
REMARK    2  A    between atoms: O_3  and  C_4 
REMARK    3  A    between atoms: C_7  and  C_8 
REMARK       I    between atoms: C_8  and  N_9 
REMARK    4  A    between atoms: N_9  and  C_10 
REMARK    5  A    between atoms: C_10  and  N_11 
REMARK    6  A    between atoms: N_11  and  C_12 
REMARK    7  A    between atoms: C_13  and  C_14 
REMARK       I    between atoms: C_14  and  N_15 
REMARK    8  A    between atoms: N_15  and  C_16 
REMARK    9  A    between atoms: C_16  and  C_17 
REMARK   10  A    between atoms: C_17  and  C_18 
REMARK   11  A    between atoms: C_18  and  O_19 
ROOT
HETATM    1  N   UNL     1       7.595  28.760  58.533  1.00  0.00    -0.332 N 
HETATM    2  H   UNL     1       7.558  28.239  59.407  1.00  0.00     0.168 HD
ENDROOT
BRANCH   1   3
HETATM    3  C   UNL     1       8.392  29.904  58.596  1.00  0.00     0.179 C 
HETATM    4  S   UNL     1       9.785  30.148  57.703  1.00  0.00    -0.040 SA
BRANCH   3   5
HETATM    5  N   UNL     1       7.802  30.824  59.473  1.00  0.00    -0.299 N 
HETATM    6  C   UNL     1       8.368  31.972  60.023  1.00  0.00     0.257 C 
HETATM    7  O   UNL     1       9.206  32.682  59.478  1.00  0.00    -0.267 OA
HETATM    8  H   UNL     1       7.061  30.397  60.009  1.00  0.00     0.171 HD
BRANCH   6   9
HETATM    9  C   UNL     1       7.833  32.398  61.344  1.00  0.00     0.032 A 
HETATM   10  C   UNL     1       6.554  32.967  61.374  1.00  0.00     0.020 A 
HETATM   11  C   UNL     1       5.989  33.381  62.585  1.00  0.00     0.038 A 
HETATM   12  C   UNL     1       6.693  33.216  63.776  1.00  0.00     0.068 A 
HETATM   13  C   UNL     1       7.969  32.646  63.745  1.00  0.00     0.038 A 
HETATM   14  C   UNL     1       8.541  32.229  62.537  1.00  0.00     0.020 A 
BRANCH  12  15
HETATM   15  O   UNL     1       6.251  33.562  65.024  1.00  0.00    -0.352 OA
BRANCH  15  16
HETATM   16  C   UNL     1       4.837  33.636  65.209  1.00  0.00     0.171 C 
HETATM   17  C   UNL     1       4.574  34.104  66.629  1.00  0.00     0.034 C 
ENDBRANCH  15  16
ENDBRANCH  12  15
ENDBRANCH   6   9
ENDBRANCH   3   5
ENDBRANCH   1   3
BRANCH   1  18
HETATM   18  C   UNL     1       6.562  28.459  57.607  1.00  0.00     0.050 A 
HETATM   19  C   UNL     1       6.526  27.213  56.954  1.00  0.00     0.058 A 
HETATM   20  C   UNL     1       5.590  26.967  55.938  1.00  0.00     0.019 A 
HETATM   21  C   UNL     1       4.670  27.951  55.581  1.00  0.00     0.001 A 
HETATM   22  C   UNL     1       4.690  29.183  56.229  1.00  0.00     0.002 A 
HETATM   23  C   UNL     1       5.635  29.440  57.227  1.00  0.00     0.030 A 
BRANCH  19  24
HETATM   24  C   UNL     1       7.417  26.083  57.324  1.00  0.00     0.253 C 
HETATM   25  N   UNL     1       7.626  25.145  56.332  1.00  0.00    -0.357 N 
HETATM   26  H   UNL     1       7.319  25.371  55.390  1.00  0.00     0.162 HD
HETATM   27  O   UNL     1       7.940  26.041  58.429  1.00  0.00    -0.268 OA
BRANCH  25  28
HETATM   28  C   UNL     1       8.632  24.108  56.480  1.00  0.00     0.125 C 
BRANCH  28  29
HETATM   29  C   UNL     1       8.245  22.844  55.719  1.00  0.00     0.046 C 
BRANCH  29  30
HETATM   30  C   UNL     1       8.044  23.127  54.238  1.00  0.00     0.165 C 
BRANCH  30  31
HETATM   31  O   UNL     1       6.736  23.634  54.010  1.00  0.00    -0.401 OA
HETATM   32  H   UNL     1       6.257  23.617  54.857  1.00  0.00     0.209 HD
ENDBRANCH  30  31
ENDBRANCH  29  30
ENDBRANCH  28  29
ENDBRANCH  25  28
ENDBRANCH  19  24
ENDBRANCH   1  18
TORSDOF 11
ENDMDL
