MODEL 1
REMARK VINA RESULT:      -8.3      0.000      0.000
REMARK  5 active torsions:
REMARK  status: ('A' for Active; 'I' for Inactive)
REMARK    1  A    between atoms: C_2  and  O_3 
REMARK    2  A    between atoms: O_3  and  C_4 
REMARK    3  A    between atoms: C_8  and  N_9 
REMARK       I    between atoms: N_9  and  C_10 
REMARK       I    between atoms: C_10  and  N_11 
REMARK    4  A    between atoms: N_11  and  C_12 
REMARK    5  A    between atoms: C_12  and  C_13 
ROOT
HETATM    1  N   UNL     1       6.971  28.863  54.338  1.00  0.00    -0.309 N 
HETATM    2  C   UNL     1       6.916  27.781  53.520  1.00  0.00     0.321 C 
HETATM    3  N   UNL     1       7.723  26.727  53.777  1.00  0.00    -0.337 N 
HETATM    4  O   UNL     1       6.155  27.808  52.554  1.00  0.00    -0.247 OA
HETATM    5  H   UNL     1       6.429  29.620  53.938  1.00  0.00     0.170 HD
HETATM    6  H   UNL     1       8.609  26.919  54.222  1.00  0.00     0.164 HD
ENDROOT
BRANCH   1   7
HETATM    7  C   UNL     1       7.566  29.119  55.586  1.00  0.00     0.038 A 
HETATM    8  C   UNL     1       8.932  29.282  55.810  1.00  0.00     0.056 A 
HETATM    9  C   UNL     1       9.408  29.547  57.103  1.00  0.00     0.069 A 
HETATM   10  C   UNL     1       8.534  29.633  58.199  1.00  0.00     0.090 A 
HETATM   11 CL   UNL     1      11.115  29.763  57.305  1.00  0.00    -0.081 Cl
HETATM   12  C   UNL     1       7.173  29.426  57.976  1.00  0.00     0.041 A 
HETATM   13  C   UNL     1       6.698  29.170  56.684  1.00  0.00     0.032 A 
BRANCH  10  14
HETATM   14  O   UNL     1       9.086  29.905  59.423  1.00  0.00    -0.350 OA
BRANCH  14  15
HETATM   15  C   UNL     1       8.404  30.826  60.270  1.00  0.00     0.171 C 
HETATM   16  C   UNL     1       9.440  31.561  61.102  1.00  0.00     0.034 C 
ENDBRANCH  14  15
ENDBRANCH  10  14
ENDBRANCH   1   7
BRANCH   3  17
HETATM   17  C   UNL     1       7.747  25.595  52.876  1.00  0.00     0.183 C 
BRANCH  17  18
HETATM   18  C   UNL     1       7.759  24.270  53.609  1.00  0.00     0.053 A 
HETATM   19  N   UNL     1       7.568  24.275  54.957  1.00  0.00    -0.264 NA
HETATM   20  C   UNL     1       7.571  23.083  55.595  1.00  0.00     0.118 A 
HETATM   21  C   UNL     1       7.781  21.875  54.961  1.00  0.00     0.043 A 
HETATM   22  C   UNL     1       8.000  21.898  53.591  1.00  0.00     0.037 A 
HETATM   23 CL   UNL     1       8.282  20.426  52.745  1.00  0.00    -0.084 Cl
HETATM   24  C   UNL     1       7.991  23.100  52.895  1.00  0.00     0.052 A 
ENDBRANCH  17  18
ENDBRANCH   3  17
TORSDOF 5
ENDMDL
MODEL 2
REMARK VINA RESULT:      -7.9      2.710      7.914
REMARK  5 active torsions:
REMARK  status: ('A' for Active; 'I' for Inactive)
REMARK    1  A    between atoms: C_2  and  O_3 
REMARK    2  A    between atoms: O_3  and  C_4 
REMARK    3  A    between atoms: C_8  and  N_9 
REMARK       I    between atoms: N_9  and  C_10 
REMARK       I    between atoms: C_10  and  N_11 
REMARK    4  A    between atoms: N_11  and  C_12 
REMARK    5  A    between atoms: C_12  and  C_13 
ROOT
HETATM    1  N   UNL     1       4.969  26.281  55.458  1.00  0.00    -0.309 N 
HETATM    2  C   UNL     1       5.050  27.502  56.045  1.00  0.00     0.321 C 
HETATM    3  N   UNL     1       6.157  27.811  56.758  1.00  0.00    -0.337 N 
HETATM    4  O   UNL     1       4.100  28.275  55.936  1.00  0.00    -0.247 OA
HETATM    5  H   UNL     1       4.034  26.139  55.094  1.00  0.00     0.170 HD
HETATM    6  H   UNL     1       6.643  27.051  57.212  1.00  0.00     0.164 HD
ENDROOT
BRANCH   1   7
HETATM    7  C   UNL     1       5.887  25.241  55.229  1.00  0.00     0.038 A 
HETATM    8  C   UNL     1       6.625  24.585  56.212  1.00  0.00     0.056 A 
HETATM    9  C   UNL     1       7.505  23.549  55.861  1.00  0.00     0.069 A 
HETATM   10  C   UNL     1       7.680  23.163  54.522  1.00  0.00     0.090 A 
HETATM   11 CL   UNL     1       8.373  22.761  57.138  1.00  0.00    -0.081 Cl
HETATM   12  C   UNL     1       6.971  23.851  53.538  1.00  0.00     0.041 A 
HETATM   13  C   UNL     1       6.088  24.879  53.891  1.00  0.00     0.032 A 
BRANCH  10  14
HETATM   14  O   UNL     1       8.552  22.136  54.274  1.00  0.00    -0.350 OA
BRANCH  14  15
HETATM   15  C   UNL     1       8.007  20.831  54.092  1.00  0.00     0.171 C 
HETATM   16  C   UNL     1       8.354  20.364  52.689  1.00  0.00     0.034 C 
ENDBRANCH  14  15
ENDBRANCH  10  14
ENDBRANCH   1   7
BRANCH   3  17
HETATM   17  C   UNL     1       6.237  29.071  57.464  1.00  0.00     0.183 C 
BRANCH  17  18
HETATM   18  C   UNL     1       7.662  29.558  57.623  1.00  0.00     0.053 A 
HETATM   19  N   UNL     1       8.606  29.087  56.764  1.00  0.00    -0.264 NA
HETATM   20  C   UNL     1       9.872  29.539  56.913  1.00  0.00     0.118 A 
HETATM   21  C   UNL     1      10.258  30.426  57.898  1.00  0.00     0.043 A 
HETATM   22  C   UNL     1       9.282  30.872  58.778  1.00  0.00     0.037 A 
HETATM   23 CL   UNL     1       9.702  31.968  60.037  1.00  0.00    -0.084 Cl
HETATM   24  C   UNL     1       7.968  30.443  58.652  1.00  0.00     0.052 A 
ENDBRANCH  17  18
ENDBRANCH   3  17
TORSDOF 5
ENDMDL
MODEL 3
REMARK VINA RESULT:      -7.9      4.487      6.524
REMARK  5 active torsions:
REMARK  status: ('A' for Active; 'I' for Inactive)
REMARK    1  A    between atoms: C_2  and  O_3 
REMARK    2  A    between atoms: O_3  and  C_4 
REMARK    3  A    between atoms: C_8  and  N_9 
REMARK       I    between atoms: N_9  and  C_10 
REMARK       I    between atoms: C_10  and  N_11 
REMARK    4  A    between atoms: N_11  and  C_12 
REMARK    5  A    between atoms: C_12  and  C_13 
ROOT
HETATM    1  N   UNL     1       4.982  25.793  54.806  1.00  0.00    -0.309 N 
HETATM    2  C   UNL     1       5.906  25.288  55.664  1.00  0.00     0.321 C 
HETATM    3  N   UNL     1       7.137  24.987  55.193  1.00  0.00    -0.337 N 
HETATM    4  O   UNL     1       5.582  25.092  56.834  1.00  0.00    -0.247 OA
HETATM    5  H   UNL     1       4.077  25.825  55.262  1.00  0.00     0.170 HD
HETATM    6  H   UNL     1       7.207  24.704  54.226  1.00  0.00     0.164 HD
ENDROOT
BRANCH   1   7
HETATM    7  C   UNL     1       5.033  26.292  53.494  1.00  0.00     0.038 A 
HETATM    8  C   UNL     1       5.039  27.641  53.144  1.00  0.00     0.056 A 
HETATM    9  C   UNL     1       5.105  28.020  51.794  1.00  0.00     0.069 A 
HETATM   10  C   UNL     1       5.145  27.061  50.768  1.00  0.00     0.090 A 
HETATM   11 CL   UNL     1       5.133  29.715  51.432  1.00  0.00    -0.081 Cl
HETATM   12  C   UNL     1       5.095  25.713  51.122  1.00  0.00     0.041 A 
HETATM   13  C   UNL     1       5.038  25.337  52.469  1.00  0.00     0.032 A 
BRANCH  10  14
HETATM   14  O   UNL     1       5.219  27.522  49.480  1.00  0.00    -0.350 OA
BRANCH  14  15
HETATM   15  C   UNL     1       4.302  26.988  48.529  1.00  0.00     0.171 C 
HETATM   16  C   UNL     1       2.952  27.647  48.751  1.00  0.00     0.034 C 
ENDBRANCH  14  15
ENDBRANCH  10  14
ENDBRANCH   1   7
BRANCH   3  17
HETATM   17  C   UNL     1       8.116  24.370  56.062  1.00  0.00     0.183 C 
BRANCH  17  18
HETATM   18  C   UNL     1       8.245  22.880  55.825  1.00  0.00     0.053 A 
HETATM   19  N   UNL     1       8.415  22.067  56.903  1.00  0.00    -0.264 NA
HETATM   20  C   UNL     1       8.519  20.738  56.676  1.00  0.00     0.118 A 
HETATM   21  C   UNL     1       8.486  20.171  55.418  1.00  0.00     0.043 A 
HETATM   22  C   UNL     1       8.338  21.023  54.334  1.00  0.00     0.037 A 
HETATM   23 CL   UNL     1       8.305  20.378  52.738  1.00  0.00    -0.084 Cl
HETATM   24  C   UNL     1       8.215  22.393  54.524  1.00  0.00     0.052 A 
ENDBRANCH  17  18
ENDBRANCH   3  17
TORSDOF 5
ENDMDL
MODEL 4
REMARK VINA RESULT:      -7.8      4.534      6.868
REMARK  5 active torsions:
REMARK  status: ('A' for Active; 'I' for Inactive)
REMARK    1  A    between atoms: C_2  and  O_3 
REMARK    2  A    between atoms: O_3  and  C_4 
REMARK    3  A    between atoms: C_8  and  N_9 
REMARK       I    between atoms: N_9  and  C_10 
REMARK       I    between atoms: C_10  and  N_11 
REMARK    4  A    between atoms: N_11  and  C_12 
REMARK    5  A    between atoms: C_12  and  C_13 
ROOT
HETATM    1  N   UNL     1       9.085  32.420  60.274  1.00  0.00    -0.309 N 
HETATM    2  C   UNL     1       9.388  31.660  59.190  1.00  0.00     0.321 C 
HETATM    3  N   UNL     1       8.680  30.530  58.969  1.00  0.00    -0.337 N 
HETATM    4  O   UNL     1      10.316  32.009  58.463  1.00  0.00    -0.247 OA
HETATM    5  H   UNL     1       9.788  33.141  60.391  1.00  0.00     0.170 HD
HETATM    6  H   UNL     1       8.309  30.049  59.776  1.00  0.00     0.164 HD
ENDROOT
BRANCH   1   7
HETATM    7  C   UNL     1       8.025  32.433  61.197  1.00  0.00     0.038 A 
HETATM    8  C   UNL     1       6.673  32.510  60.871  1.00  0.00     0.056 A 
HETATM    9  C   UNL     1       5.701  32.503  61.883  1.00  0.00     0.069 A 
HETATM   10  C   UNL     1       6.060  32.441  63.239  1.00  0.00     0.090 A 
HETATM   11 CL   UNL     1       4.037  32.577  61.404  1.00  0.00    -0.081 Cl
HETATM   12  C   UNL     1       7.417  32.408  63.562  1.00  0.00     0.041 A 
HETATM   13  C   UNL     1       8.385  32.406  62.551  1.00  0.00     0.032 A 
BRANCH  10  14
HETATM   14  O   UNL     1       5.045  32.429  64.158  1.00  0.00    -0.350 OA
BRANCH  14  15
HETATM   15  C   UNL     1       4.951  33.529  65.060  1.00  0.00     0.171 C 
HETATM   16  C   UNL     1       3.731  34.350  64.679  1.00  0.00     0.034 C 
ENDBRANCH  14  15
ENDBRANCH  10  14
ENDBRANCH   1   7
BRANCH   3  17
HETATM   17  C   UNL     1       9.033  29.656  57.871  1.00  0.00     0.183 C 
BRANCH  17  18
HETATM   18  C   UNL     1       7.944  28.652  57.555  1.00  0.00     0.053 A 
HETATM   19  N   UNL     1       8.212  27.329  57.732  1.00  0.00    -0.264 NA
HETATM   20  C   UNL     1       7.226  26.447  57.455  1.00  0.00     0.118 A 
HETATM   21  C   UNL     1       5.982  26.812  56.981  1.00  0.00     0.043 A 
HETATM   22  C   UNL     1       5.742  28.164  56.783  1.00  0.00     0.037 A 
HETATM   23 CL   UNL     1       4.214  28.682  56.181  1.00  0.00    -0.084 Cl
HETATM   24  C   UNL     1       6.722  29.104  57.069  1.00  0.00     0.052 A 
ENDBRANCH  17  18
ENDBRANCH   3  17
TORSDOF 5
ENDMDL
MODEL 5
REMARK VINA RESULT:      -7.7      4.607      7.143
REMARK  5 active torsions:
REMARK  status: ('A' for Active; 'I' for Inactive)
REMARK    1  A    between atoms: C_2  and  O_3 
REMARK    2  A    between atoms: O_3  and  C_4 
REMARK    3  A    between atoms: C_8  and  N_9 
REMARK       I    between atoms: N_9  and  C_10 
REMARK       I    between atoms: C_10  and  N_11 
REMARK    4  A    between atoms: N_11  and  C_12 
REMARK    5  A    between atoms: C_12  and  C_13 
ROOT
HETATM    1  N   UNL     1       5.055  26.126  54.174  1.00  0.00    -0.309 N 
HETATM    2  C   UNL     1       4.765  27.087  53.260  1.00  0.00     0.321 C 
HETATM    3  N   UNL     1       5.702  27.420  52.344  1.00  0.00    -0.337 N 
HETATM    4  O   UNL     1       3.670  27.645  53.315  1.00  0.00    -0.247 OA
HETATM    5  H   UNL     1       4.326  26.094  54.877  1.00  0.00     0.170 HD
HETATM    6  H   UNL     1       6.670  27.323  52.614  1.00  0.00     0.164 HD
ENDROOT
BRANCH   1   7
HETATM    7  C   UNL     1       6.091  25.187  54.312  1.00  0.00     0.038 A 
HETATM    8  C   UNL     1       6.976  25.114  55.386  1.00  0.00     0.056 A 
HETATM    9  C   UNL     1       7.966  24.119  55.419  1.00  0.00     0.069 A 
HETATM   10  C   UNL     1       8.105  23.194  54.372  1.00  0.00     0.090 A 
HETATM   11 CL   UNL     1       9.017  24.073  56.796  1.00  0.00    -0.081 Cl
HETATM   12  C   UNL     1       7.245  23.298  53.279  1.00  0.00     0.041 A 
HETATM   13  C   UNL     1       6.252  24.285  53.252  1.00  0.00     0.032 A 
BRANCH  10  14
HETATM   14  O   UNL     1       9.093  22.252  54.493  1.00  0.00    -0.350 OA
BRANCH  14  15
HETATM   15  C   UNL     1       8.715  20.879  54.422  1.00  0.00     0.171 C 
HETATM   16  C   UNL     1       8.001  20.517  55.713  1.00  0.00     0.034 C 
ENDBRANCH  14  15
ENDBRANCH  10  14
ENDBRANCH   1   7
BRANCH   3  17
HETATM   17  C   UNL     1       5.453  28.497  51.410  1.00  0.00     0.183 C 
BRANCH  17  18
HETATM   18  C   UNL     1       5.181  27.999  50.007  1.00  0.00     0.053 A 
HETATM   19  N   UNL     1       5.699  28.697  48.960  1.00  0.00    -0.264 NA
HETATM   20  C   UNL     1       5.454  28.233  47.714  1.00  0.00     0.118 A 
HETATM   21  C   UNL     1       4.693  27.112  47.449  1.00  0.00     0.043 A 
HETATM   22  C   UNL     1       4.154  26.432  48.532  1.00  0.00     0.037 A 
HETATM   23 CL   UNL     1       3.185  25.035  48.266  1.00  0.00    -0.084 Cl
HETATM   24  C   UNL     1       4.392  26.868  49.828  1.00  0.00     0.052 A 
ENDBRANCH  17  18
ENDBRANCH   3  17
TORSDOF 5
ENDMDL
MODEL 6
REMARK VINA RESULT:      -7.7      1.696      1.983
REMARK  5 active torsions:
REMARK  status: ('A' for Active; 'I' for Inactive)
REMARK    1  A    between atoms: C_2  and  O_3 
REMARK    2  A    between atoms: O_3  and  C_4 
REMARK    3  A    between atoms: C_8  and  N_9 
REMARK       I    between atoms: N_9  and  C_10 
REMARK       I    between atoms: C_10  and  N_11 
REMARK    4  A    between atoms: N_11  and  C_12 
REMARK    5  A    between atoms: C_12  and  C_13 
ROOT
HETATM    1  N   UNL     1       6.920  27.546  53.461  1.00  0.00    -0.309 N 
HETATM    2  C   UNL     1       6.978  26.372  52.782  1.00  0.00     0.321 C 
HETATM    3  N   UNL     1       7.785  25.391  53.245  1.00  0.00    -0.337 N 
HETATM    4  O   UNL     1       6.319  26.252  51.750  1.00  0.00    -0.247 OA
HETATM    5  H   UNL     1       6.400  28.227  52.919  1.00  0.00     0.170 HD
HETATM    6  H   UNL     1       8.615  25.671  53.747  1.00  0.00     0.164 HD
ENDROOT
BRANCH   1   7
HETATM    7  C   UNL     1       7.377  27.974  54.719  1.00  0.00     0.038 A 
HETATM    8  C   UNL     1       8.557  28.678  54.952  1.00  0.00     0.056 A 
HETATM    9  C   UNL     1       8.904  29.064  56.256  1.00  0.00     0.069 A 
HETATM   10  C   UNL     1       8.091  28.736  57.354  1.00  0.00     0.090 A 
HETATM   11 CL   UNL     1      10.373  29.957  56.470  1.00  0.00    -0.081 Cl
HETATM   12  C   UNL     1       6.933  27.995  57.121  1.00  0.00     0.041 A 
HETATM   13  C   UNL     1       6.585  27.618  55.818  1.00  0.00     0.032 A 
BRANCH  10  14
HETATM   14  O   UNL     1       8.502  29.162  58.589  1.00  0.00    -0.350 OA
BRANCH  14  15
HETATM   15  C   UNL     1       7.962  30.385  59.085  1.00  0.00     0.171 C 
HETATM   16  C   UNL     1       9.048  31.096  59.874  1.00  0.00     0.034 C 
ENDBRANCH  14  15
ENDBRANCH  10  14
ENDBRANCH   1   7
BRANCH   3  17
HETATM   17  C   UNL     1       7.932  24.160  52.498  1.00  0.00     0.183 C 
BRANCH  17  18
HETATM   18  C   UNL     1       7.963  22.939  53.392  1.00  0.00     0.053 A 
HETATM   19  N   UNL     1       7.826  21.712  52.817  1.00  0.00    -0.264 NA
HETATM   20  C   UNL     1       7.866  20.632  53.628  1.00  0.00     0.118 A 
HETATM   21  C   UNL     1       8.012  20.707  54.999  1.00  0.00     0.043 A 
HETATM   22  C   UNL     1       8.123  21.969  55.564  1.00  0.00     0.037 A 
HETATM   23 CL   UNL     1       8.294  22.130  57.269  1.00  0.00    -0.084 Cl
HETATM   24  C   UNL     1       8.101  23.104  54.765  1.00  0.00     0.052 A 
ENDBRANCH  17  18
ENDBRANCH   3  17
TORSDOF 5
ENDMDL
MODEL 7
REMARK VINA RESULT:      -7.6      4.215      9.401
REMARK  5 active torsions:
REMARK  status: ('A' for Active; 'I' for Inactive)
REMARK    1  A    between atoms: C_2  and  O_3 
REMARK    2  A    between atoms: O_3  and  C_4 
REMARK    3  A    between atoms: C_8  and  N_9 
REMARK       I    between atoms: N_9  and  C_10 
REMARK       I    between atoms: C_10  and  N_11 
REMARK    4  A    between atoms: N_11  and  C_12 
REMARK    5  A    between atoms: C_12  and  C_13 
ROOT
HETATM    1  N   UNL     1       8.162  30.713  58.131  1.00  0.00    -0.309 N 
HETATM    2  C   UNL     1       8.639  31.257  59.279  1.00  0.00     0.321 C 
HETATM    3  N   UNL     1       8.432  30.605  60.445  1.00  0.00    -0.337 N 
HETATM    4  O   UNL     1       9.216  32.342  59.224  1.00  0.00    -0.247 OA
HETATM    5  H   UNL     1       8.258  31.378  57.373  1.00  0.00     0.170 HD
HETATM    6  H   UNL     1       7.599  30.039  60.519  1.00  0.00     0.164 HD
ENDROOT
BRANCH   1   7
HETATM    7  C   UNL     1       7.625  29.459  57.790  1.00  0.00     0.038 A 
HETATM    8  C   UNL     1       8.351  28.274  57.680  1.00  0.00     0.056 A 
HETATM    9  C   UNL     1       7.700  27.076  57.344  1.00  0.00     0.069 A 
HETATM   10  C   UNL     1       6.319  27.043  57.090  1.00  0.00     0.090 A 
HETATM   11 CL   UNL     1       8.660  25.637  57.248  1.00  0.00    -0.081 Cl
HETATM   12  C   UNL     1       5.605  28.239  57.160  1.00  0.00     0.041 A 
HETATM   13  C   UNL     1       6.254  29.431  57.503  1.00  0.00     0.032 A 
BRANCH  10  14
HETATM   14  O   UNL     1       5.767  25.828  56.779  1.00  0.00    -0.350 OA
BRANCH  14  15
HETATM   15  C   UNL     1       5.408  25.590  55.420  1.00  0.00     0.171 C 
HETATM   16  C   UNL     1       6.391  24.588  54.840  1.00  0.00     0.034 C 
ENDBRANCH  14  15
ENDBRANCH  10  14
ENDBRANCH   1   7
BRANCH   3  17
HETATM   17  C   UNL     1       8.855  31.201  61.694  1.00  0.00     0.183 C 
BRANCH  17  18
HETATM   18  C   UNL     1       7.699  31.781  62.481  1.00  0.00     0.053 A 
HETATM   19  N   UNL     1       6.434  31.565  62.027  1.00  0.00    -0.264 NA
HETATM   20  C   UNL     1       5.413  32.081  62.746  1.00  0.00     0.118 A 
HETATM   21  C   UNL     1       5.584  32.831  63.893  1.00  0.00     0.043 A 
HETATM   22  C   UNL     1       6.884  33.061  64.320  1.00  0.00     0.037 A 
HETATM   23 CL   UNL     1       7.165  34.000  65.735  1.00  0.00    -0.084 Cl
HETATM   24  C   UNL     1       7.961  32.537  63.618  1.00  0.00     0.052 A 
ENDBRANCH  17  18
ENDBRANCH   3  17
TORSDOF 5
ENDMDL
MODEL 8
REMARK VINA RESULT:      -7.3      3.503      7.683
REMARK  5 active torsions:
REMARK  status: ('A' for Active; 'I' for Inactive)
REMARK    1  A    between atoms: C_2  and  O_3 
REMARK    2  A    between atoms: O_3  and  C_4 
REMARK    3  A    between atoms: C_8  and  N_9 
REMARK       I    between atoms: N_9  and  C_10 
REMARK       I    between atoms: C_10  and  N_11 
REMARK    4  A    between atoms: N_11  and  C_12 
REMARK    5  A    between atoms: C_12  and  C_13 
ROOT
HETATM    1  N   UNL     1       8.341  26.515  57.171  1.00  0.00    -0.309 N 
HETATM    2  C   UNL     1       7.541  27.543  57.553  1.00  0.00     0.321 C 
HETATM    3  N   UNL     1       6.266  27.578  57.106  1.00  0.00    -0.337 N 
HETATM    4  O   UNL     1       8.013  28.424  58.269  1.00  0.00    -0.247 OA
HETATM    5  H   UNL     1       9.296  26.702  57.457  1.00  0.00     0.170 HD
HETATM    6  H   UNL     1       6.080  27.164  56.204  1.00  0.00     0.164 HD
ENDROOT
BRANCH   1   7
HETATM    7  C   UNL     1       8.117  25.285  56.527  1.00  0.00     0.038 A 
HETATM    8  C   UNL     1       7.575  25.129  55.253  1.00  0.00     0.056 A 
HETATM    9  C   UNL     1       7.409  23.846  54.708  1.00  0.00     0.069 A 
HETATM   10  C   UNL     1       7.761  22.696  55.433  1.00  0.00     0.090 A 
HETATM   11 CL   UNL     1       6.753  23.727  53.109  1.00  0.00    -0.081 Cl
HETATM   12  C   UNL     1       8.262  22.855  56.724  1.00  0.00     0.041 A 
HETATM   13  C   UNL     1       8.435  24.136  57.263  1.00  0.00     0.032 A 
BRANCH  10  14
HETATM   14  O   UNL     1       7.574  21.485  54.819  1.00  0.00    -0.350 OA
BRANCH  14  15
HETATM   15  C   UNL     1       8.716  20.840  54.260  1.00  0.00     0.171 C 
HETATM   16  C   UNL     1       8.388  20.455  52.827  1.00  0.00     0.034 C 
ENDBRANCH  14  15
ENDBRANCH  10  14
ENDBRANCH   1   7
BRANCH   3  17
HETATM   17  C   UNL     1       5.415  28.703  57.427  1.00  0.00     0.183 C 
BRANCH  17  18
HETATM   18  C   UNL     1       4.898  29.412  56.193  1.00  0.00     0.053 A 
HETATM   19  N   UNL     1       4.943  30.772  56.161  1.00  0.00    -0.264 NA
HETATM   20  C   UNL     1       4.487  31.389  55.048  1.00  0.00     0.118 A 
HETATM   21  C   UNL     1       3.960  30.719  53.962  1.00  0.00     0.043 A 
HETATM   22  C   UNL     1       3.901  29.335  54.029  1.00  0.00     0.037 A 
HETATM   23 CL   UNL     1       3.242  28.443  52.712  1.00  0.00    -0.084 Cl
HETATM   24  C   UNL     1       4.371  28.661  55.148  1.00  0.00     0.052 A 
ENDBRANCH  17  18
ENDBRANCH   3  17
TORSDOF 5
ENDMDL
MODEL 9
REMARK VINA RESULT:      -7.2      3.487      8.385
REMARK  5 active torsions:
REMARK  status: ('A' for Active; 'I' for Inactive)
REMARK    1  A    between atoms: C_2  and  O_3 
REMARK    2  A    between atoms: O_3  and  C_4 
REMARK    3  A    between atoms: C_8  and  N_9 
REMARK       I    between atoms: N_9  and  C_10 
REMARK       I    between atoms: C_10  and  N_11 
REMARK    4  A    between atoms: N_11  and  C_12 
REMARK    5  A    between atoms: C_12  and  C_13 
ROOT
HETATM    1  N   UNL     1       4.405  28.864  57.178  1.00  0.00    -0.309 N 
HETATM    2  C   UNL     1       4.540  30.100  57.724  1.00  0.00     0.321 C 
HETATM    3  N   UNL     1       5.783  30.574  57.966  1.00  0.00    -0.337 N 
HETATM    4  O   UNL     1       3.526  30.734  58.010  1.00  0.00    -0.247 OA
HETATM    5  H   UNL     1       3.430  28.588  57.197  1.00  0.00     0.170 HD
HETATM    6  H   UNL     1       6.504  29.899  58.177  1.00  0.00     0.164 HD
ENDROOT
BRANCH   1   7
HETATM    7  C   UNL     1       5.296  27.953  56.584  1.00  0.00     0.038 A 
HETATM    8  C   UNL     1       6.320  27.279  57.245  1.00  0.00     0.056 A 
HETATM    9  C   UNL     1       7.141  26.380  56.546  1.00  0.00     0.069 A 
HETATM   10  C   UNL     1       6.968  26.154  55.171  1.00  0.00     0.090 A 
HETATM   11 CL   UNL     1       8.379  25.558  57.437  1.00  0.00    -0.081 Cl
HETATM   12  C   UNL     1       5.969  26.863  54.505  1.00  0.00     0.041 A 
HETATM   13  C   UNL     1       5.146  27.753  55.206  1.00  0.00     0.032 A 
BRANCH  10  14
HETATM   14  O   UNL     1       7.808  25.252  54.572  1.00  0.00    -0.350 OA
BRANCH  14  15
HETATM   15  C   UNL     1       7.309  23.939  54.327  1.00  0.00     0.171 C 
HETATM   16  C   UNL     1       7.723  23.529  52.925  1.00  0.00     0.034 C 
ENDBRANCH  14  15
ENDBRANCH  10  14
ENDBRANCH   1   7
BRANCH   3  17
HETATM   17  C   UNL     1       5.957  31.851  58.624  1.00  0.00     0.183 C 
BRANCH  17  18
HETATM   18  C   UNL     1       7.215  31.904  59.464  1.00  0.00     0.053 A 
HETATM   19  N   UNL     1       8.414  31.718  58.847  1.00  0.00    -0.264 NA
HETATM   20  C   UNL     1       9.528  31.778  59.610  1.00  0.00     0.118 A 
HETATM   21  C   UNL     1       9.513  31.991  60.974  1.00  0.00     0.043 A 
HETATM   22  C   UNL     1       8.277  32.152  61.584  1.00  0.00     0.037 A 
HETATM   23 CL   UNL     1       8.190  32.408  63.284  1.00  0.00    -0.084 Cl
HETATM   24  C   UNL     1       7.109  32.111  60.835  1.00  0.00     0.052 A 
ENDBRANCH  17  18
ENDBRANCH   3  17
TORSDOF 5
ENDMDL
MODEL 10
REMARK VINA RESULT:      -7.2      5.164      7.857
REMARK  5 active torsions:
REMARK  status: ('A' for Active; 'I' for Inactive)
REMARK    1  A    between atoms: C_2  and  O_3 
REMARK    2  A    between atoms: O_3  and  C_4 
REMARK    3  A    between atoms: C_8  and  N_9 
REMARK       I    between atoms: N_9  and  C_10 
REMARK       I    between atoms: C_10  and  N_11 
REMARK    4  A    between atoms: N_11  and  C_12 
REMARK    5  A    between atoms: C_12  and  C_13 
ROOT
HETATM    1  N   UNL     1       6.261  27.980  52.499  1.00  0.00    -0.309 N 
HETATM    2  C   UNL     1       5.267  28.548  51.770  1.00  0.00     0.321 C 
HETATM    3  N   UNL     1       4.354  27.747  51.177  1.00  0.00    -0.337 N 
HETATM    4  O   UNL     1       5.248  29.772  51.648  1.00  0.00    -0.247 OA
HETATM    5  H   UNL     1       6.944  28.685  52.751  1.00  0.00     0.170 HD
HETATM    6  H   UNL     1       4.658  26.826  50.896  1.00  0.00     0.164 HD
ENDROOT
BRANCH   1   7
HETATM    7  C   UNL     1       6.502  26.683  52.984  1.00  0.00     0.038 A 
HETATM    8  C   UNL     1       6.323  26.269  54.303  1.00  0.00     0.056 A 
HETATM    9  C   UNL     1       6.586  24.939  54.667  1.00  0.00     0.069 A 
HETATM   10  C   UNL     1       7.052  24.004  53.729  1.00  0.00     0.090 A 
HETATM   11 CL   UNL     1       6.318  24.488  56.319  1.00  0.00    -0.081 Cl
HETATM   12  C   UNL     1       7.271  24.434  52.420  1.00  0.00     0.041 A 
HETATM   13  C   UNL     1       7.000  25.759  52.056  1.00  0.00     0.032 A 
BRANCH  10  14
HETATM   14  O   UNL     1       7.273  22.727  54.171  1.00  0.00    -0.350 OA
BRANCH  14  15
HETATM   15  C   UNL     1       8.397  22.025  53.646  1.00  0.00     0.171 C 
HETATM   16  C   UNL     1       7.916  20.684  53.122  1.00  0.00     0.034 C 
ENDBRANCH  14  15
ENDBRANCH  10  14
ENDBRANCH   1   7
BRANCH   3  17
HETATM   17  C   UNL     1       3.332  28.317  50.325  1.00  0.00     0.183 C 
BRANCH  17  18
HETATM   18  C   UNL     1       3.045  27.462  49.110  1.00  0.00     0.053 A 
HETATM   19  N   UNL     1       3.899  26.443  48.819  1.00  0.00    -0.264 NA
HETATM   20  C   UNL     1       3.624  25.683  47.736  1.00  0.00     0.118 A 
HETATM   21  C   UNL     1       2.545  25.899  46.902  1.00  0.00     0.043 A 
HETATM   22  C   UNL     1       1.703  26.960  47.204  1.00  0.00     0.037 A 
HETATM   23 CL   UNL     1       0.348  27.289  46.195  1.00  0.00    -0.084 Cl
HETATM   24  C   UNL     1       1.943  27.757  48.315  1.00  0.00     0.052 A 
ENDBRANCH  17  18
ENDBRANCH   3  17
TORSDOF 5
ENDMDL
