MODEL 1
REMARK VINA RESULT:      -8.7      0.000      0.000
REMARK  3 active torsions:
REMARK  status: ('A' for Active; 'I' for Inactive)
REMARK    1  A    between atoms: C_8  and  C_9 
REMARK    2  A    between atoms: C_16  and  O_17 
REMARK    3  A    between atoms: C_24  and  N_25 
ROOT
HETATM    1  C   UNL     1       9.846  28.487  56.686  1.00  0.00     0.073 C 
HETATM    2  C   UNL     1       8.613  29.031  57.308  1.00  0.00     0.062 A 
HETATM    3  N   UNL     1       8.681  29.716  58.463  1.00  0.00    -0.177 NA
HETATM    4  N   UNL     1       7.403  30.061  58.722  1.00  0.00    -0.256 N 
HETATM    5  H   UNL     1       7.200  30.605  59.552  1.00  0.00     0.191 HD
HETATM    6  C   UNL     1       6.539  29.618  57.774  1.00  0.00     0.175 A 
HETATM    7  C   UNL     1       7.279  28.932  56.847  1.00  0.00     0.034 A 
HETATM    8  C   UNL     1       6.614  28.332  55.655  1.00  0.00     0.106 A 
HETATM    9  C   UNL     1       5.118  28.667  55.656  1.00  0.00     0.081 A 
HETATM   10  C   UNL     1       4.371  28.244  54.519  1.00  0.00     0.100 C 
HETATM   11  N   UNL     1       3.752  27.902  53.598  1.00  0.00    -0.191 NA
HETATM   12  C   UNL     1       4.515  29.368  56.656  1.00  0.00     0.140 A 
HETATM   13  O   UNL     1       5.230  29.839  57.774  1.00  0.00    -0.279 OA
ENDROOT
BRANCH   8  14
HETATM   14  C   UNL     1       6.896  26.828  55.721  1.00  0.00    -0.033 A 
HETATM   15  C   UNL     1       7.227  26.053  54.566  1.00  0.00    -0.016 A 
HETATM   16  C   UNL     1       7.458  24.653  54.717  1.00  0.00     0.008 A 
HETATM   17  C   UNL     1       7.343  26.591  53.257  1.00  0.00     0.013 A 
HETATM   18  C   UNL     1       7.788  23.886  53.577  1.00  0.00     0.015 A 
HETATM   19  C   UNL     1       7.350  24.046  55.993  1.00  0.00     0.079 A 
HETATM   20  C   UNL     1       7.895  24.450  52.309  1.00  0.00     0.001 A 
HETATM   21  C   UNL     1       7.671  25.805  52.149  1.00  0.00     0.001 A 
HETATM   22  C   UNL     1       7.022  24.813  57.106  1.00  0.00     0.038 A 
HETATM   23  C   UNL     1       6.795  26.178  56.971  1.00  0.00     0.012 A 
BRANCH  19  24
HETATM   24  O   UNL     1       7.588  22.691  56.048  1.00  0.00    -0.355 OA
HETATM   25  C   UNL     1       8.361  22.194  57.132  1.00  0.00     0.210 C 
ENDBRANCH  19  24
ENDBRANCH   8  14
BRANCH  12  26
HETATM   26  N   UNL     1       3.180  29.700  56.705  1.00  0.00    -0.282 NA
HETATM   27  H   UNL     1       2.568  29.005  57.125  1.00  0.00     0.126 HD
HETATM   28  H   UNL     1       3.029  30.638  57.069  1.00  0.00     0.126 HD
ENDBRANCH  12  26
TORSDOF 3
ENDMDL
MODEL 2
REMARK VINA RESULT:      -7.8      7.947     11.930
REMARK  3 active torsions:
REMARK  status: ('A' for Active; 'I' for Inactive)
REMARK    1  A    between atoms: C_8  and  C_9 
REMARK    2  A    between atoms: C_16  and  O_17 
REMARK    3  A    between atoms: C_24  and  N_25 
ROOT
HETATM    1  C   UNL     1       7.422  32.759  63.697  1.00  0.00     0.073 C 
HETATM    2  C   UNL     1       7.077  32.706  62.255  1.00  0.00     0.062 A 
HETATM    3  N   UNL     1       7.964  32.234  61.362  1.00  0.00    -0.177 NA
HETATM    4  N   UNL     1       7.325  32.321  60.177  1.00  0.00    -0.256 N 
HETATM    5  H   UNL     1       7.799  32.006  59.339  1.00  0.00     0.191 HD
HETATM    6  C   UNL     1       6.072  32.830  60.295  1.00  0.00     0.175 A 
HETATM    7  C   UNL     1       5.877  33.107  61.623  1.00  0.00     0.034 A 
HETATM    8  C   UNL     1       4.574  33.665  62.085  1.00  0.00     0.106 A 
HETATM    9  C   UNL     1       3.597  33.781  60.909  1.00  0.00     0.081 A 
HETATM   10  C   UNL     1       2.273  34.206  61.222  1.00  0.00     0.100 C 
HETATM   11  N   UNL     1       1.192  34.552  61.464  1.00  0.00    -0.191 NA
HETATM   12  C   UNL     1       3.936  33.462  59.629  1.00  0.00     0.140 A 
HETATM   13  O   UNL     1       5.222  32.999  59.290  1.00  0.00    -0.279 OA
ENDROOT
BRANCH   8  14
HETATM   14  C   UNL     1       4.894  35.013  62.739  1.00  0.00    -0.033 A 
HETATM   15  C   UNL     1       4.648  35.278  64.122  1.00  0.00    -0.016 A 
HETATM   16  C   UNL     1       4.963  36.568  64.644  1.00  0.00     0.008 A 
HETATM   17  C   UNL     1       4.102  34.329  65.026  1.00  0.00     0.013 A 
HETATM   18  C   UNL     1       4.722  36.832  66.011  1.00  0.00     0.015 A 
HETATM   19  C   UNL     1       5.502  37.569  63.797  1.00  0.00     0.079 A 
HETATM   20  C   UNL     1       4.187  35.875  66.869  1.00  0.00     0.001 A 
HETATM   21  C   UNL     1       3.876  34.621  66.374  1.00  0.00     0.001 A 
HETATM   22  C   UNL     1       5.730  37.296  62.452  1.00  0.00     0.038 A 
HETATM   23  C   UNL     1       5.428  36.042  61.932  1.00  0.00     0.012 A 
BRANCH  19  24
HETATM   24  O   UNL     1       5.775  38.784  64.383  1.00  0.00    -0.355 OA
HETATM   25  C   UNL     1       6.822  39.569  63.830  1.00  0.00     0.210 C 
ENDBRANCH  19  24
ENDBRANCH   8  14
BRANCH  12  26
HETATM   26  N   UNL     1       3.100  33.543  58.538  1.00  0.00    -0.282 NA
HETATM   27  H   UNL     1       2.292  32.926  58.555  1.00  0.00     0.126 HD
HETATM   28  H   UNL     1       2.864  34.504  58.304  1.00  0.00     0.126 HD
ENDBRANCH  12  26
TORSDOF 3
ENDMDL
MODEL 3
REMARK VINA RESULT:      -7.7      9.295     11.335
REMARK  3 active torsions:
REMARK  status: ('A' for Active; 'I' for Inactive)
REMARK    1  A    between atoms: C_8  and  C_9 
REMARK    2  A    between atoms: C_16  and  O_17 
REMARK    3  A    between atoms: C_24  and  N_25 
ROOT
HETATM    1  C   UNL     1       6.274  37.949  61.944  1.00  0.00     0.073 C 
HETATM    2  C   UNL     1       4.895  38.006  61.401  1.00  0.00     0.062 A 
HETATM    3  N   UNL     1       4.288  39.191  61.215  1.00  0.00    -0.177 NA
HETATM    4  N   UNL     1       3.079  38.872  60.709  1.00  0.00    -0.256 N 
HETATM    5  H   UNL     1       2.433  39.616  60.473  1.00  0.00     0.191 HD
HETATM    6  C   UNL     1       2.907  37.532  60.571  1.00  0.00     0.175 A 
HETATM    7  C   UNL     1       4.054  36.934  61.022  1.00  0.00     0.034 A 
HETATM    8  C   UNL     1       4.186  35.449  60.982  1.00  0.00     0.106 A 
HETATM    9  C   UNL     1       2.943  34.821  60.342  1.00  0.00     0.081 A 
HETATM   10  C   UNL     1       2.974  33.410  60.145  1.00  0.00     0.100 C 
HETATM   11  N   UNL     1       2.988  32.261  59.980  1.00  0.00    -0.191 NA
HETATM   12  C   UNL     1       1.868  35.552  59.936  1.00  0.00     0.140 A 
HETATM   13  O   UNL     1       1.821  36.952  60.077  1.00  0.00    -0.279 OA
ENDROOT
BRANCH   8  14
HETATM   14  C   UNL     1       4.412  35.002  62.430  1.00  0.00    -0.033 A 
HETATM   15  C   UNL     1       5.550  34.234  62.833  1.00  0.00    -0.016 A 
HETATM   16  C   UNL     1       5.671  33.846  64.200  1.00  0.00     0.008 A 
HETATM   17  C   UNL     1       6.582  33.825  61.949  1.00  0.00     0.013 A 
HETATM   18  C   UNL     1       6.796  33.091  64.601  1.00  0.00     0.015 A 
HETATM   19  C   UNL     1       4.673  34.212  65.137  1.00  0.00     0.079 A 
HETATM   20  C   UNL     1       7.790  32.708  63.705  1.00  0.00     0.001 A 
HETATM   21  C   UNL     1       7.683  33.076  62.376  1.00  0.00     0.001 A 
HETATM   22  C   UNL     1       3.569  34.955  64.728  1.00  0.00     0.038 A 
HETATM   23  C   UNL     1       3.440  35.339  63.398  1.00  0.00     0.012 A 
BRANCH  19  24
HETATM   24  O   UNL     1       4.869  33.796  66.434  1.00  0.00    -0.355 OA
HETATM   25  C   UNL     1       4.968  34.790  67.445  1.00  0.00     0.210 C 
ENDBRANCH  19  24
ENDBRANCH   8  14
BRANCH  12  26
HETATM   26  N   UNL     1       0.730  35.041  59.353  1.00  0.00    -0.282 NA
HETATM   27  H   UNL     1       0.488  34.090  59.617  1.00  0.00     0.126 HD
HETATM   28  H   UNL     1      -0.055  35.685  59.411  1.00  0.00     0.126 HD
ENDBRANCH  12  26
TORSDOF 3
ENDMDL
MODEL 4
REMARK VINA RESULT:      -7.7      3.055      5.902
REMARK  3 active torsions:
REMARK  status: ('A' for Active; 'I' for Inactive)
REMARK    1  A    between atoms: C_8  and  C_9 
REMARK    2  A    between atoms: C_16  and  O_17 
REMARK    3  A    between atoms: C_24  and  N_25 
ROOT
HETATM    1  C   UNL     1       6.462  24.651  56.267  1.00  0.00     0.073 C 
HETATM    2  C   UNL     1       6.560  24.518  54.793  1.00  0.00     0.062 A 
HETATM    3  N   UNL     1       7.061  23.397  54.245  1.00  0.00    -0.177 NA
HETATM    4  N   UNL     1       6.991  23.615  52.916  1.00  0.00    -0.256 N 
HETATM    5  H   UNL     1       7.307  22.889  52.282  1.00  0.00     0.191 HD
HETATM    6  C   UNL     1       6.466  24.829  52.611  1.00  0.00     0.175 A 
HETATM    7  C   UNL     1       6.187  25.452  53.799  1.00  0.00     0.034 A 
HETATM    8  C   UNL     1       5.575  26.812  53.802  1.00  0.00     0.106 A 
HETATM    9  C   UNL     1       5.296  27.273  52.367  1.00  0.00     0.081 A 
HETATM   10  C   UNL     1       4.615  28.517  52.221  1.00  0.00     0.100 C 
HETATM   11  N   UNL     1       4.062  29.529  52.089  1.00  0.00    -0.191 NA
HETATM   12  C   UNL     1       5.630  26.536  51.273  1.00  0.00     0.140 A 
HETATM   13  O   UNL     1       6.265  25.284  51.381  1.00  0.00    -0.279 OA
ENDROOT
BRANCH   8  14
HETATM   14  C   UNL     1       6.558  27.721  54.548  1.00  0.00    -0.033 A 
HETATM   15  C   UNL     1       6.158  28.565  55.631  1.00  0.00    -0.016 A 
HETATM   16  C   UNL     1       7.137  29.392  56.259  1.00  0.00     0.008 A 
HETATM   17  C   UNL     1       4.832  28.639  56.132  1.00  0.00     0.013 A 
HETATM   18  C   UNL     1       6.746  30.225  57.330  1.00  0.00     0.015 A 
HETATM   19  C   UNL     1       8.480  29.378  55.805  1.00  0.00     0.079 A 
HETATM   20  C   UNL     1       5.434  30.269  57.795  1.00  0.00     0.001 A 
HETATM   21  C   UNL     1       4.476  29.474  57.194  1.00  0.00     0.001 A 
HETATM   22  C   UNL     1       8.851  28.554  54.747  1.00  0.00     0.038 A 
HETATM   23  C   UNL     1       7.905  27.744  54.128  1.00  0.00     0.012 A 
BRANCH  19  24
HETATM   24  O   UNL     1       9.358  30.206  56.466  1.00  0.00    -0.355 OA
HETATM   25  C   UNL     1      10.703  29.771  56.613  1.00  0.00     0.210 C 
ENDBRANCH  19  24
ENDBRANCH   8  14
BRANCH  12  26
HETATM   26  N   UNL     1       5.399  26.899  49.965  1.00  0.00    -0.282 NA
HETATM   27  H   UNL     1       6.085  27.528  49.554  1.00  0.00     0.126 HD
HETATM   28  H   UNL     1       5.186  26.099  49.374  1.00  0.00     0.126 HD
ENDBRANCH  12  26
TORSDOF 3
ENDMDL
MODEL 5
REMARK VINA RESULT:      -7.6      8.373     11.784
REMARK  3 active torsions:
REMARK  status: ('A' for Active; 'I' for Inactive)
REMARK    1  A    between atoms: C_8  and  C_9 
REMARK    2  A    between atoms: C_16  and  O_17 
REMARK    3  A    between atoms: C_24  and  N_25 
ROOT
HETATM    1  C   UNL     1       3.557  34.909  65.590  1.00  0.00     0.073 C 
HETATM    2  C   UNL     1       4.947  34.393  65.552  1.00  0.00     0.062 A 
HETATM    3  N   UNL     1       5.699  34.385  66.667  1.00  0.00    -0.177 NA
HETATM    4  N   UNL     1       6.874  33.851  66.275  1.00  0.00    -0.256 N 
HETATM    5  H   UNL     1       7.611  33.730  66.960  1.00  0.00     0.191 HD
HETATM    6  C   UNL     1       6.887  33.526  64.957  1.00  0.00     0.175 A 
HETATM    7  C   UNL     1       5.664  33.875  64.448  1.00  0.00     0.034 A 
HETATM    8  C   UNL     1       5.354  33.623  63.011  1.00  0.00     0.106 A 
HETATM    9  C   UNL     1       6.530  32.913  62.330  1.00  0.00     0.081 A 
HETATM   10  C   UNL     1       6.334  32.516  60.975  1.00  0.00     0.100 C 
HETATM   11  N   UNL     1       6.187  32.190  59.871  1.00  0.00    -0.191 NA
HETATM   12  C   UNL     1       7.696  32.626  62.972  1.00  0.00     0.140 A 
HETATM   13  O   UNL     1       7.908  32.966  64.322  1.00  0.00    -0.279 OA
ENDROOT
BRANCH   8  14
HETATM   14  C   UNL     1       5.036  34.990  62.397  1.00  0.00    -0.033 A 
HETATM   15  C   UNL     1       3.875  35.225  61.595  1.00  0.00    -0.016 A 
HETATM   16  C   UNL     1       3.665  36.526  61.048  1.00  0.00     0.008 A 
HETATM   17  C   UNL     1       2.902  34.234  61.300  1.00  0.00     0.013 A 
HETATM   18  C   UNL     1       2.518  36.760  60.258  1.00  0.00     0.015 A 
HETATM   19  C   UNL     1       4.601  37.562  61.294  1.00  0.00     0.079 A 
HETATM   20  C   UNL     1       1.584  35.763  59.991  1.00  0.00     0.001 A 
HETATM   21  C   UNL     1       1.777  34.498  60.513  1.00  0.00     0.001 A 
HETATM   22  C   UNL     1       5.728  37.315  62.072  1.00  0.00     0.038 A 
HETATM   23  C   UNL     1       5.943  36.051  62.610  1.00  0.00     0.012 A 
BRANCH  19  24
HETATM   24  O   UNL     1       4.322  38.785  60.728  1.00  0.00    -0.355 OA
HETATM   25  C   UNL     1       4.563  39.949  61.506  1.00  0.00     0.210 C 
ENDBRANCH  19  24
ENDBRANCH   8  14
BRANCH  12  26
HETATM   26  N   UNL     1       8.780  31.989  62.411  1.00  0.00    -0.282 NA
HETATM   27  H   UNL     1       9.129  32.391  61.545  1.00  0.00     0.126 HD
HETATM   28  H   UNL     1       9.513  31.805  63.092  1.00  0.00     0.126 HD
ENDBRANCH  12  26
TORSDOF 3
ENDMDL
MODEL 6
REMARK VINA RESULT:      -7.5      9.480     12.359
REMARK  3 active torsions:
REMARK  status: ('A' for Active; 'I' for Inactive)
REMARK    1  A    between atoms: C_8  and  C_9 
REMARK    2  A    between atoms: C_16  and  O_17 
REMARK    3  A    between atoms: C_24  and  N_25 
ROOT
HETATM    1  C   UNL     1       1.866  34.000  63.389  1.00  0.00     0.073 C 
HETATM    2  C   UNL     1       2.051  34.898  62.222  1.00  0.00     0.062 A 
HETATM    3  N   UNL     1       1.307  34.734  61.115  1.00  0.00    -0.177 NA
HETATM    4  N   UNL     1       1.726  35.709  60.283  1.00  0.00    -0.256 N 
HETATM    5  H   UNL     1       1.293  35.795  59.370  1.00  0.00     0.191 HD
HETATM    6  C   UNL     1       2.704  36.477  60.827  1.00  0.00     0.175 A 
HETATM    7  C   UNL     1       2.955  35.976  62.077  1.00  0.00     0.034 A 
HETATM    8  C   UNL     1       3.978  36.623  62.948  1.00  0.00     0.106 A 
HETATM    9  C   UNL     1       4.564  37.858  62.254  1.00  0.00     0.081 A 
HETATM   10  C   UNL     1       5.484  38.638  63.014  1.00  0.00     0.100 C 
HETATM   11  N   UNL     1       6.235  39.279  63.624  1.00  0.00    -0.191 NA
HETATM   12  C   UNL     1       4.211  38.238  60.995  1.00  0.00     0.140 A 
HETATM   13  O   UNL     1       3.274  37.517  60.232  1.00  0.00    -0.279 OA
ENDROOT
BRANCH   8  14
HETATM   14  C   UNL     1       5.025  35.546  63.249  1.00  0.00    -0.033 A 
HETATM   15  C   UNL     1       5.380  35.164  64.581  1.00  0.00    -0.016 A 
HETATM   16  C   UNL     1       6.378  34.163  64.769  1.00  0.00     0.008 A 
HETATM   17  C   UNL     1       4.797  35.725  65.748  1.00  0.00     0.013 A 
HETATM   18  C   UNL     1       6.729  33.783  66.084  1.00  0.00     0.015 A 
HETATM   19  C   UNL     1       7.010  33.566  63.650  1.00  0.00     0.079 A 
HETATM   20  C   UNL     1       6.134  34.355  67.205  1.00  0.00     0.001 A 
HETATM   21  C   UNL     1       5.166  35.328  67.036  1.00  0.00     0.001 A 
HETATM   22  C   UNL     1       6.657  33.952  62.360  1.00  0.00     0.038 A 
HETATM   23  C   UNL     1       5.685  34.927  62.165  1.00  0.00     0.012 A 
BRANCH  19  24
HETATM   24  O   UNL     1       7.962  32.610  63.922  1.00  0.00    -0.355 OA
HETATM   25  C   UNL     1       8.334  31.723  62.876  1.00  0.00     0.210 C 
ENDBRANCH  19  24
ENDBRANCH   8  14
BRANCH  12  26
HETATM   26  N   UNL     1       4.702  39.338  60.328  1.00  0.00    -0.282 NA
HETATM   27  H   UNL     1       4.012  40.036  60.060  1.00  0.00     0.126 HD
HETATM   28  H   UNL     1       5.516  39.737  60.788  1.00  0.00     0.126 HD
ENDBRANCH  12  26
TORSDOF 3
ENDMDL
MODEL 7
REMARK VINA RESULT:      -7.4      8.176     10.920
REMARK  3 active torsions:
REMARK  status: ('A' for Active; 'I' for Inactive)
REMARK    1  A    between atoms: C_8  and  C_9 
REMARK    2  A    between atoms: C_16  and  O_17 
REMARK    3  A    between atoms: C_24  and  N_25 
ROOT
HETATM    1  C   UNL     1       6.535  37.954  61.419  1.00  0.00     0.073 C 
HETATM    2  C   UNL     1       6.152  37.969  62.852  1.00  0.00     0.062 A 
HETATM    3  N   UNL     1       6.662  38.896  63.682  1.00  0.00    -0.177 NA
HETATM    4  N   UNL     1       6.099  38.621  64.876  1.00  0.00    -0.256 N 
HETATM    5  H   UNL     1       6.327  39.205  65.672  1.00  0.00     0.191 HD
HETATM    6  C   UNL     1       5.256  37.558  64.826  1.00  0.00     0.175 A 
HETATM    7  C   UNL     1       5.273  37.096  63.536  1.00  0.00     0.034 A 
HETATM    8  C   UNL     1       4.424  35.934  63.148  1.00  0.00     0.106 A 
HETATM    9  C   UNL     1       3.581  35.469  64.342  1.00  0.00     0.081 A 
HETATM   10  C   UNL     1       2.643  34.425  64.090  1.00  0.00     0.100 C 
HETATM   11  N   UNL     1       1.877  33.575  63.896  1.00  0.00    -0.191 NA
HETATM   12  C   UNL     1       3.672  36.033  65.578  1.00  0.00     0.140 A 
HETATM   13  O   UNL     1       4.557  37.093  65.853  1.00  0.00    -0.279 OA
ENDROOT
BRANCH   8  14
HETATM   14  C   UNL     1       5.384  34.857  62.632  1.00  0.00    -0.033 A 
HETATM   15  C   UNL     1       5.260  34.269  61.334  1.00  0.00    -0.016 A 
HETATM   16  C   UNL     1       6.189  33.261  60.941  1.00  0.00     0.008 A 
HETATM   17  C   UNL     1       4.256  34.627  60.395  1.00  0.00     0.013 A 
HETATM   18  C   UNL     1       6.069  32.681  59.658  1.00  0.00     0.015 A 
HETATM   19  C   UNL     1       7.212  32.847  61.831  1.00  0.00     0.079 A 
HETATM   20  C   UNL     1       5.072  33.059  58.763  1.00  0.00     0.001 A 
HETATM   21  C   UNL     1       4.164  34.033  59.133  1.00  0.00     0.001 A 
HETATM   22  C   UNL     1       7.316  33.426  63.092  1.00  0.00     0.038 A 
HETATM   23  C   UNL     1       6.416  34.410  63.486  1.00  0.00     0.012 A 
BRANCH  19  24
HETATM   24  O   UNL     1       8.064  31.869  61.371  1.00  0.00    -0.355 OA
HETATM   25  C   UNL     1       8.478  30.863  62.285  1.00  0.00     0.210 C 
ENDBRANCH  19  24
ENDBRANCH   8  14
BRANCH  12  26
HETATM   26  N   UNL     1       2.938  35.658  66.681  1.00  0.00    -0.282 NA
HETATM   27  H   UNL     1       2.885  36.344  67.430  1.00  0.00     0.126 HD
HETATM   28  H   UNL     1       2.032  35.272  66.428  1.00  0.00     0.126 HD
ENDBRANCH  12  26
TORSDOF 3
ENDMDL
MODEL 8
REMARK VINA RESULT:      -7.3      3.848      7.305
REMARK  3 active torsions:
REMARK  status: ('A' for Active; 'I' for Inactive)
REMARK    1  A    between atoms: C_8  and  C_9 
REMARK    2  A    between atoms: C_16  and  O_17 
REMARK    3  A    between atoms: C_24  and  N_25 
ROOT
HETATM    1  C   UNL     1       5.129  33.672  55.865  1.00  0.00     0.073 C 
HETATM    2  C   UNL     1       4.406  32.386  55.707  1.00  0.00     0.062 A 
HETATM    3  N   UNL     1       3.237  32.341  55.045  1.00  0.00    -0.177 NA
HETATM    4  N   UNL     1       2.879  31.041  55.087  1.00  0.00    -0.256 N 
HETATM    5  H   UNL     1       2.019  30.754  54.634  1.00  0.00     0.191 HD
HETATM    6  C   UNL     1       3.780  30.272  55.750  1.00  0.00     0.175 A 
HETATM    7  C   UNL     1       4.777  31.106  56.181  1.00  0.00     0.034 A 
HETATM    8  C   UNL     1       5.939  30.553  56.934  1.00  0.00     0.106 A 
HETATM    9  C   UNL     1       5.824  29.028  57.045  1.00  0.00     0.081 A 
HETATM   10  C   UNL     1       6.921  28.351  57.654  1.00  0.00     0.100 C 
HETATM   11  N   UNL     1       7.808  27.789  58.149  1.00  0.00    -0.191 NA
HETATM   12  C   UNL     1       4.763  28.327  56.560  1.00  0.00     0.140 A 
HETATM   13  O   UNL     1       3.682  28.959  55.916  1.00  0.00    -0.279 OA
ENDROOT
BRANCH   8  14
HETATM   14  C   UNL     1       5.942  31.259  58.294  1.00  0.00    -0.033 A 
HETATM   15  C   UNL     1       7.146  31.562  59.004  1.00  0.00    -0.016 A 
HETATM   16  C   UNL     1       7.055  32.207  60.273  1.00  0.00     0.008 A 
HETATM   17  C   UNL     1       8.447  31.258  58.524  1.00  0.00     0.013 A 
HETATM   18  C   UNL     1       8.243  32.510  60.975  1.00  0.00     0.015 A 
HETATM   19  C   UNL     1       5.787  32.532  60.819  1.00  0.00     0.079 A 
HETATM   20  C   UNL     1       9.502  32.198  60.472  1.00  0.00     0.001 A 
HETATM   21  C   UNL     1       9.604  31.570  59.243  1.00  0.00     0.001 A 
HETATM   22  C   UNL     1       4.626  32.226  60.117  1.00  0.00     0.038 A 
HETATM   23  C   UNL     1       4.702  31.597  58.879  1.00  0.00     0.012 A 
BRANCH  19  24
HETATM   24  O   UNL     1       5.791  33.152  62.048  1.00  0.00    -0.355 OA
HETATM   25  C   UNL     1       5.284  32.428  63.161  1.00  0.00     0.210 C 
ENDBRANCH  19  24
ENDBRANCH   8  14
BRANCH  12  26
HETATM   26  N   UNL     1       4.611  26.960  56.628  1.00  0.00    -0.282 NA
HETATM   27  H   UNL     1       3.670  26.630  56.826  1.00  0.00     0.126 HD
HETATM   28  H   UNL     1       5.045  26.484  55.841  1.00  0.00     0.126 HD
ENDBRANCH  12  26
TORSDOF 3
ENDMDL
MODEL 9
REMARK VINA RESULT:      -7.1      2.932      5.041
REMARK  3 active torsions:
REMARK  status: ('A' for Active; 'I' for Inactive)
REMARK    1  A    between atoms: C_8  and  C_9 
REMARK    2  A    between atoms: C_16  and  O_17 
REMARK    3  A    between atoms: C_24  and  N_25 
ROOT
HETATM    1  C   UNL     1       4.568  26.925  53.374  1.00  0.00     0.073 C 
HETATM    2  C   UNL     1       4.094  28.325  53.256  1.00  0.00     0.062 A 
HETATM    3  N   UNL     1       3.848  28.859  52.047  1.00  0.00    -0.177 NA
HETATM    4  N   UNL     1       3.432  30.114  52.313  1.00  0.00    -0.256 N 
HETATM    5  H   UNL     1       3.172  30.719  51.543  1.00  0.00     0.191 HD
HETATM    6  C   UNL     1       3.408  30.386  53.643  1.00  0.00     0.175 A 
HETATM    7  C   UNL     1       3.844  29.259  54.289  1.00  0.00     0.034 A 
HETATM    8  C   UNL     1       3.913  29.232  55.778  1.00  0.00     0.106 A 
HETATM    9  C   UNL     1       3.390  30.551  56.359  1.00  0.00     0.081 A 
HETATM   10  C   UNL     1       3.301  30.629  57.780  1.00  0.00     0.100 C 
HETATM   11  N   UNL     1       3.226  30.704  58.936  1.00  0.00    -0.191 NA
HETATM   12  C   UNL     1       2.983  31.594  55.583  1.00  0.00     0.140 A 
HETATM   13  O   UNL     1       3.017  31.536  54.177  1.00  0.00    -0.279 OA
ENDROOT
BRANCH   8  14
HETATM   14  C   UNL     1       5.378  28.956  56.133  1.00  0.00    -0.033 A 
HETATM   15  C   UNL     1       5.839  27.673  56.567  1.00  0.00    -0.016 A 
HETATM   16  C   UNL     1       7.218  27.509  56.892  1.00  0.00     0.008 A 
HETATM   17  C   UNL     1       5.002  26.534  56.699  1.00  0.00     0.013 A 
HETATM   18  C   UNL     1       7.676  26.243  57.318  1.00  0.00     0.015 A 
HETATM   19  C   UNL     1       8.110  28.607  56.792  1.00  0.00     0.079 A 
HETATM   20  C   UNL     1       6.825  25.147  57.435  1.00  0.00     0.001 A 
HETATM   21  C   UNL     1       5.486  25.293  57.124  1.00  0.00     0.001 A 
HETATM   22  C   UNL     1       7.644  29.849  56.373  1.00  0.00     0.038 A 
HETATM   23  C   UNL     1       6.302  30.021  56.053  1.00  0.00     0.012 A 
BRANCH  19  24
HETATM   24  O   UNL     1       9.422  28.361  57.126  1.00  0.00    -0.355 OA
HETATM   25  C   UNL     1      10.368  29.400  56.919  1.00  0.00     0.210 C 
ENDBRANCH  19  24
ENDBRANCH   8  14
BRANCH  12  26
HETATM   26  N   UNL     1       2.502  32.796  56.051  1.00  0.00    -0.282 NA
HETATM   27  H   UNL     1       3.164  33.566  56.052  1.00  0.00     0.126 HD
HETATM   28  H   UNL     1       1.605  33.039  55.637  1.00  0.00     0.126 HD
ENDBRANCH  12  26
TORSDOF 3
ENDMDL
MODEL 10
REMARK VINA RESULT:      -6.9      7.271     10.450
REMARK  3 active torsions:
REMARK  status: ('A' for Active; 'I' for Inactive)
REMARK    1  A    between atoms: C_8  and  C_9 
REMARK    2  A    between atoms: C_16  and  O_17 
REMARK    3  A    between atoms: C_24  and  N_25 
ROOT
HETATM    1  C   UNL     1       3.930  29.140  51.484  1.00  0.00     0.073 C 
HETATM    2  C   UNL     1       4.258  28.005  50.588  1.00  0.00     0.062 A 
HETATM    3  N   UNL     1       5.314  27.215  50.852  1.00  0.00    -0.177 NA
HETATM    4  N   UNL     1       5.304  26.302  49.859  1.00  0.00    -0.256 N 
HETATM    5  H   UNL     1       6.014  25.579  49.851  1.00  0.00     0.191 HD
HETATM    6  C   UNL     1       4.284  26.491  48.983  1.00  0.00     0.175 A 
HETATM    7  C   UNL     1       3.591  27.593  49.410  1.00  0.00     0.034 A 
HETATM    8  C   UNL     1       2.386  28.053  48.662  1.00  0.00     0.106 A 
HETATM    9  C   UNL     1       2.089  27.102  47.496  1.00  0.00     0.081 A 
HETATM   10  C   UNL     1       0.901  27.362  46.752  1.00  0.00     0.100 C 
HETATM   11  N   UNL     1      -0.063  27.565  46.138  1.00  0.00    -0.191 NA
HETATM   12  C   UNL     1       2.876  26.034  47.192  1.00  0.00     0.140 A 
HETATM   13  O   UNL     1       4.033  25.723  47.931  1.00  0.00    -0.279 OA
ENDROOT
BRANCH   8  14
HETATM   14  C   UNL     1       2.686  29.487  48.210  1.00  0.00    -0.033 A 
HETATM   15  C   UNL     1       1.945  30.616  48.681  1.00  0.00    -0.016 A 
HETATM   16  C   UNL     1       2.281  31.914  48.195  1.00  0.00     0.008 A 
HETATM   17  C   UNL     1       0.878  30.530  49.614  1.00  0.00     0.013 A 
HETATM   18  C   UNL     1       1.552  33.030  48.660  1.00  0.00     0.015 A 
HETATM   19  C   UNL     1       3.329  32.073  47.253  1.00  0.00     0.079 A 
HETATM   20  C   UNL     1       0.512  32.908  49.578  1.00  0.00     0.001 A 
HETATM   21  C   UNL     1       0.175  31.654  50.055  1.00  0.00     0.001 A 
HETATM   22  C   UNL     1       4.037  30.964  46.802  1.00  0.00     0.038 A 
HETATM   23  C   UNL     1       3.718  29.694  47.269  1.00  0.00     0.012 A 
BRANCH  19  24
HETATM   24  O   UNL     1       3.586  33.360  46.837  1.00  0.00    -0.355 OA
HETATM   25  C   UNL     1       4.942  33.737  46.641  1.00  0.00     0.210 C 
ENDBRANCH  19  24
ENDBRANCH   8  14
BRANCH  12  26
HETATM   26  N   UNL     1       2.653  25.147  46.162  1.00  0.00    -0.282 NA
HETATM   27  H   UNL     1       2.050  25.481  45.415  1.00  0.00     0.126 HD
HETATM   28  H   UNL     1       3.515  24.727  45.822  1.00  0.00     0.126 HD
ENDBRANCH  12  26
TORSDOF 3
ENDMDL
