MODEL 1
REMARK VINA RESULT:      -8.9      0.000      0.000
REMARK  8 active torsions:
REMARK  status: ('A' for Active; 'I' for Inactive)
REMARK    1  A    between atoms: C_2  and  N_3 
REMARK       I    between atoms: N_3  and  C_4 
REMARK    2  A    between atoms: C_4  and  C_5 
REMARK    3  A    between atoms: C_5  and  O_6 
REMARK    4  A    between atoms: O_6  and  C_7 
REMARK    5  A    between atoms: C_8  and  O_9 
REMARK    6  A    between atoms: C_12  and  C_13 
REMARK    7  A    between atoms: C_13  and  N_14 
REMARK    8  A    between atoms: N_14  and  C_15 
ROOT
HETATM    1  C   UNL     1       7.294  29.177  57.735  1.00  0.00     0.102 A 
HETATM    2  C   UNL     1       8.211  28.622  56.827  1.00  0.00     0.102 A 
HETATM    3  C   UNL     1       7.736  27.910  55.714  1.00  0.00     0.048 A 
HETATM    4  C   UNL     1       6.366  27.774  55.461  1.00  0.00    -0.042 A 
HETATM    5  C   UNL     1       5.462  28.332  56.369  1.00  0.00     0.011 A 
HETATM    6  C   UNL     1       5.921  29.031  57.489  1.00  0.00     0.040 A 
ENDROOT
BRANCH   4   7
HETATM    7  C   UNL     1       5.871  27.038  54.241  1.00  0.00     0.131 C 
BRANCH   7   8
HETATM    8  N   UNL     1       5.438  25.700  54.623  1.00  0.00    -0.289 NA
HETATM    9  H   UNL     1       4.992  25.698  55.537  1.00  0.00     0.128 HD
BRANCH   8  10
HETATM   10  C   UNL     1       6.339  24.634  54.474  1.00  0.00     0.010 A 
HETATM   11  C   UNL     1       6.795  23.980  55.633  1.00  0.00     0.055 A 
HETATM   12  C   UNL     1       7.629  22.896  55.476  1.00  0.00     0.065 A 
HETATM   13  C   UNL     1       7.995  22.417  54.223  1.00  0.00     0.063 A 
HETATM   14  N   UNL     1       8.239  22.092  56.435  1.00  0.00    -0.306 N 
HETATM   15  N   UNL     1       8.829  21.322  54.406  1.00  0.00    -0.307 N 
HETATM   16  C   UNL     1       7.541  22.993  53.065  1.00  0.00     0.034 A 
HETATM   17  C   UNL     1       8.993  21.106  55.783  1.00  0.00     0.325 A 
HETATM   18  H   UNL     1       9.257  20.751  53.695  1.00  0.00     0.170 HD
HETATM   19  O   UNL     1       9.659  20.232  56.308  1.00  0.00    -0.247 OA
HETATM   20  C   UNL     1       6.695  24.103  53.205  1.00  0.00     0.026 A 
HETATM   21  H   UNL     1       8.170  22.175  57.436  1.00  0.00     0.170 HD
ENDBRANCH   8  10
ENDBRANCH   7   8
ENDBRANCH   4   7
BRANCH   2  22
HETATM   22  O   UNL     1       9.581  28.649  56.876  1.00  0.00    -0.353 OA
HETATM   23  C   UNL     1      10.267  29.714  56.236  1.00  0.00     0.210 C 
ENDBRANCH   2  22
BRANCH   1  24
HETATM   24  O   UNL     1       7.773  29.894  58.800  1.00  0.00    -0.339 OA
BRANCH  24  25
HETATM   25  C   UNL     1       7.751  31.317  58.719  1.00  0.00     0.278 C 
BRANCH  25  26
HETATM   26  C   UNL     1       7.905  32.039  60.064  1.00  0.00     0.242 C 
HETATM   27  N   UNL     1       6.882  31.801  60.957  1.00  0.00    -0.351 N 
HETATM   28  H   UNL     1       6.089  31.288  60.585  1.00  0.00     0.163 HD
HETATM   29  O   UNL     1       8.873  32.757  60.297  1.00  0.00    -0.271 OA
BRANCH  27  30
HETATM   30  C   UNL     1       6.751  32.399  62.291  1.00  0.00     0.022 C 
HETATM   31  C   UNL     1       6.513  33.912  62.180  1.00  0.00     0.037 C 
HETATM   32  C   UNL     1       7.992  32.122  63.155  1.00  0.00     0.037 C 
HETATM   33  C   UNL     1       5.534  31.757  62.982  1.00  0.00     0.037 C 
ENDBRANCH  27  30
ENDBRANCH  25  26
ENDBRANCH  24  25
ENDBRANCH   1  24
TORSDOF 8
ENDMDL
MODEL 2
REMARK VINA RESULT:      -8.8      2.667     10.669
REMARK  8 active torsions:
REMARK  status: ('A' for Active; 'I' for Inactive)
REMARK    1  A    between atoms: C_2  and  N_3 
REMARK       I    between atoms: N_3  and  C_4 
REMARK    2  A    between atoms: C_4  and  C_5 
REMARK    3  A    between atoms: C_5  and  O_6 
REMARK    4  A    between atoms: O_6  and  C_7 
REMARK    5  A    between atoms: C_8  and  O_9 
REMARK    6  A    between atoms: C_12  and  C_13 
REMARK    7  A    between atoms: C_13  and  N_14 
REMARK    8  A    between atoms: N_14  and  C_15 
ROOT
HETATM    1  C   UNL     1       7.558  28.792  56.963  1.00  0.00     0.102 A 
HETATM    2  C   UNL     1       8.706  29.352  57.549  1.00  0.00     0.102 A 
HETATM    3  C   UNL     1       8.570  30.423  58.447  1.00  0.00     0.048 A 
HETATM    4  C   UNL     1       7.314  30.921  58.808  1.00  0.00    -0.042 A 
HETATM    5  C   UNL     1       6.178  30.357  58.222  1.00  0.00     0.011 A 
HETATM    6  C   UNL     1       6.300  29.300  57.316  1.00  0.00     0.040 A 
ENDROOT
BRANCH   4   7
HETATM    7  C   UNL     1       7.182  32.048  59.803  1.00  0.00     0.131 C 
BRANCH   7   8
HETATM    8  N   UNL     1       6.336  31.624  60.910  1.00  0.00    -0.289 NA
HETATM    9  H   UNL     1       5.357  31.577  60.636  1.00  0.00     0.128 HD
BRANCH   8  10
HETATM   10  C   UNL     1       6.502  32.243  62.160  1.00  0.00     0.010 A 
HETATM   11  C   UNL     1       5.356  32.516  62.927  1.00  0.00     0.055 A 
HETATM   12  C   UNL     1       5.532  33.065  64.176  1.00  0.00     0.065 A 
HETATM   13  C   UNL     1       6.793  33.316  64.705  1.00  0.00     0.063 A 
HETATM   14  N   UNL     1       4.588  33.453  65.123  1.00  0.00    -0.306 N 
HETATM   15  N   UNL     1       6.630  33.860  65.973  1.00  0.00    -0.307 N 
HETATM   16  C   UNL     1       7.941  33.026  64.014  1.00  0.00     0.034 A 
HETATM   17  C   UNL     1       5.258  33.953  66.249  1.00  0.00     0.325 A 
HETATM   18  H   UNL     1       7.351  34.144  66.616  1.00  0.00     0.170 HD
HETATM   19  O   UNL     1       4.748  34.384  67.268  1.00  0.00    -0.247 OA
HETATM   20  C   UNL     1       7.782  32.472  62.735  1.00  0.00     0.026 A 
HETATM   21  H   UNL     1       3.586  33.397  65.045  1.00  0.00     0.170 HD
ENDBRANCH   8  10
ENDBRANCH   7   8
ENDBRANCH   4   7
BRANCH   2  22
HETATM   22  O   UNL     1      10.019  29.010  57.348  1.00  0.00    -0.353 OA
HETATM   23  C   UNL     1      10.988  30.043  57.268  1.00  0.00     0.210 C 
ENDBRANCH   2  22
BRANCH   1  24
HETATM   24  O   UNL     1       7.706  27.728  56.112  1.00  0.00    -0.339 OA
BRANCH  24  25
HETATM   25  C   UNL     1       7.757  26.419  56.672  1.00  0.00     0.278 C 
BRANCH  25  26
HETATM   26  C   UNL     1       7.187  25.313  55.774  1.00  0.00     0.242 C 
HETATM   27  N   UNL     1       7.501  25.449  54.438  1.00  0.00    -0.351 N 
HETATM   28  H   UNL     1       7.955  26.321  54.183  1.00  0.00     0.163 HD
HETATM   29  O   UNL     1       6.518  24.395  56.237  1.00  0.00    -0.271 OA
BRANCH  27  30
HETATM   30  C   UNL     1       7.048  24.566  53.356  1.00  0.00     0.022 C 
HETATM   31  C   UNL     1       5.529  24.687  53.165  1.00  0.00     0.037 C 
HETATM   32  C   UNL     1       7.431  23.103  53.628  1.00  0.00     0.037 C 
HETATM   33  C   UNL     1       7.746  25.011  52.058  1.00  0.00     0.037 C 
ENDBRANCH  27  30
ENDBRANCH  25  26
ENDBRANCH  24  25
ENDBRANCH   1  24
TORSDOF 8
ENDMDL
MODEL 3
REMARK VINA RESULT:      -8.8      4.582      8.489
REMARK  8 active torsions:
REMARK  status: ('A' for Active; 'I' for Inactive)
REMARK    1  A    between atoms: C_2  and  N_3 
REMARK       I    between atoms: N_3  and  C_4 
REMARK    2  A    between atoms: C_4  and  C_5 
REMARK    3  A    between atoms: C_5  and  O_6 
REMARK    4  A    between atoms: O_6  and  C_7 
REMARK    5  A    between atoms: C_8  and  O_9 
REMARK    6  A    between atoms: C_12  and  C_13 
REMARK    7  A    between atoms: C_13  and  N_14 
REMARK    8  A    between atoms: N_14  and  C_15 
ROOT
HETATM    1  C   UNL     1       5.615  33.183  64.751  1.00  0.00     0.102 A 
HETATM    2  C   UNL     1       5.344  32.523  63.541  1.00  0.00     0.102 A 
HETATM    3  C   UNL     1       6.399  32.233  62.661  1.00  0.00     0.048 A 
HETATM    4  C   UNL     1       7.726  32.546  62.979  1.00  0.00    -0.042 A 
HETATM    5  C   UNL     1       7.986  33.200  64.186  1.00  0.00     0.011 A 
HETATM    6  C   UNL     1       6.943  33.508  65.064  1.00  0.00     0.040 A 
ENDROOT
BRANCH   4   7
HETATM    7  C   UNL     1       8.853  32.194  62.041  1.00  0.00     0.131 C 
BRANCH   7   8
HETATM    8  N   UNL     1       8.440  32.449  60.667  1.00  0.00    -0.289 NA
HETATM    9  H   UNL     1       7.460  32.716  60.615  1.00  0.00     0.128 HD
BRANCH   8  10
HETATM   10  C   UNL     1       8.784  31.514  59.677  1.00  0.00     0.010 A 
HETATM   11  C   UNL     1       7.883  30.470  59.404  1.00  0.00     0.055 A 
HETATM   12  C   UNL     1       8.198  29.595  58.389  1.00  0.00     0.065 A 
HETATM   13  C   UNL     1       9.345  29.737  57.617  1.00  0.00     0.063 A 
HETATM   14  N   UNL     1       7.511  28.475  57.930  1.00  0.00    -0.306 N 
HETATM   15  N   UNL     1       9.369  28.707  56.685  1.00  0.00    -0.307 N 
HETATM   16  C   UNL     1      10.232  30.763  57.816  1.00  0.00     0.034 A 
HETATM   17  C   UNL     1       8.230  27.909  56.867  1.00  0.00     0.325 A 
HETATM   18  H   UNL     1      10.065  28.536  55.978  1.00  0.00     0.170 HD
HETATM   19  O   UNL     1       7.925  26.919  56.227  1.00  0.00    -0.247 OA
HETATM   20  C   UNL     1       9.931  31.662  58.850  1.00  0.00     0.026 A 
HETATM   21  H   UNL     1       6.641  28.107  58.277  1.00  0.00     0.170 HD
ENDBRANCH   8  10
ENDBRANCH   7   8
ENDBRANCH   4   7
BRANCH   2  22
HETATM   22  O   UNL     1       4.132  32.117  63.045  1.00  0.00    -0.353 OA
HETATM   23  C   UNL     1       3.456  32.957  62.122  1.00  0.00     0.210 C 
ENDBRANCH   2  22
BRANCH   1  24
HETATM   24  O   UNL     1       4.579  33.433  65.612  1.00  0.00    -0.339 OA
BRANCH  24  25
HETATM   25  C   UNL     1       4.708  34.519  66.525  1.00  0.00     0.278 C 
BRANCH  25  26
HETATM   26  C   UNL     1       5.012  34.109  67.972  1.00  0.00     0.242 C 
HETATM   27  N   UNL     1       6.201  34.605  68.464  1.00  0.00    -0.351 N 
HETATM   28  H   UNL     1       6.795  35.069  67.783  1.00  0.00     0.163 HD
HETATM   29  O   UNL     1       4.239  33.404  68.613  1.00  0.00    -0.271 OA
BRANCH  27  30
HETATM   30  C   UNL     1       6.760  34.331  69.793  1.00  0.00     0.022 C 
HETATM   31  C   UNL     1       8.221  34.797  69.868  1.00  0.00     0.037 C 
HETATM   32  C   UNL     1       6.663  32.838  70.147  1.00  0.00     0.037 C 
HETATM   33  C   UNL     1       5.936  35.122  70.826  1.00  0.00     0.037 C 
ENDBRANCH  27  30
ENDBRANCH  25  26
ENDBRANCH  24  25
ENDBRANCH   1  24
TORSDOF 8
ENDMDL
MODEL 4
REMARK VINA RESULT:      -8.7      1.402      1.758
REMARK  8 active torsions:
REMARK  status: ('A' for Active; 'I' for Inactive)
REMARK    1  A    between atoms: C_2  and  N_3 
REMARK       I    between atoms: N_3  and  C_4 
REMARK    2  A    between atoms: C_4  and  C_5 
REMARK    3  A    between atoms: C_5  and  O_6 
REMARK    4  A    between atoms: O_6  and  C_7 
REMARK    5  A    between atoms: C_8  and  O_9 
REMARK    6  A    between atoms: C_12  and  C_13 
REMARK    7  A    between atoms: C_13  and  N_14 
REMARK    8  A    between atoms: N_14  and  C_15 
ROOT
HETATM    1  C   UNL     1       7.519  30.566  58.112  1.00  0.00     0.102 A 
HETATM    2  C   UNL     1       8.525  29.645  57.775  1.00  0.00     0.102 A 
HETATM    3  C   UNL     1       8.167  28.385  57.271  1.00  0.00     0.048 A 
HETATM    4  C   UNL     1       6.830  28.036  57.052  1.00  0.00    -0.042 A 
HETATM    5  C   UNL     1       5.836  28.959  57.389  1.00  0.00     0.011 A 
HETATM    6  C   UNL     1       6.177  30.211  57.906  1.00  0.00     0.040 A 
ENDROOT
BRANCH   4   7
HETATM    7  C   UNL     1       6.462  26.691  56.474  1.00  0.00     0.131 C 
BRANCH   7   8
HETATM    8  N   UNL     1       6.742  26.683  55.044  1.00  0.00    -0.289 NA
HETATM    9  H   UNL     1       5.979  27.097  54.513  1.00  0.00     0.128 HD
BRANCH   8  10
HETATM   10  C   UNL     1       7.209  25.497  54.457  1.00  0.00     0.010 A 
HETATM   11  C   UNL     1       7.240  24.331  55.244  1.00  0.00     0.055 A 
HETATM   12  C   UNL     1       7.640  23.159  54.643  1.00  0.00     0.065 A 
HETATM   13  C   UNL     1       7.972  23.092  53.295  1.00  0.00     0.063 A 
HETATM   14  N   UNL     1       7.785  21.884  55.182  1.00  0.00    -0.306 N 
HETATM   15  N   UNL     1       8.323  21.781  53.001  1.00  0.00    -0.307 N 
HETATM   16  C   UNL     1       7.915  24.191  52.478  1.00  0.00     0.034 A 
HETATM   17  C   UNL     1       8.213  21.012  54.170  1.00  0.00     0.325 A 
HETATM   18  H   UNL     1       8.607  21.407  52.110  1.00  0.00     0.170 HD
HETATM   19  O   UNL     1       8.443  19.822  54.283  1.00  0.00    -0.247 OA
HETATM   20  C   UNL     1       7.516  25.397  53.073  1.00  0.00     0.026 A 
HETATM   21  H   UNL     1       7.618  21.600  56.133  1.00  0.00     0.170 HD
ENDBRANCH   8  10
ENDBRANCH   7   8
ENDBRANCH   4   7
BRANCH   2  22
HETATM   22  O   UNL     1       9.883  29.786  57.894  1.00  0.00    -0.353 OA
HETATM   23  C   UNL     1      10.682  29.720  56.723  1.00  0.00     0.210 C 
ENDBRANCH   2  22
BRANCH   1  24
HETATM   24  O   UNL     1       7.885  31.802  58.576  1.00  0.00    -0.339 OA
BRANCH  24  25
HETATM   25  C   UNL     1       8.226  31.931  59.953  1.00  0.00     0.278 C 
BRANCH  25  26
HETATM   26  C   UNL     1       7.112  32.501  60.841  1.00  0.00     0.242 C 
HETATM   27  N   UNL     1       7.501  32.772  62.135  1.00  0.00    -0.351 N 
HETATM   28  H   UNL     1       8.429  32.448  62.390  1.00  0.00     0.163 HD
HETATM   29  O   UNL     1       5.982  32.694  60.403  1.00  0.00    -0.271 OA
BRANCH  27  30
HETATM   30  C   UNL     1       6.630  33.275  63.205  1.00  0.00     0.022 C 
HETATM   31  C   UNL     1       5.448  32.321  63.427  1.00  0.00     0.037 C 
HETATM   32  C   UNL     1       6.115  34.689  62.893  1.00  0.00     0.037 C 
HETATM   33  C   UNL     1       7.460  33.343  64.500  1.00  0.00     0.037 C 
ENDBRANCH  27  30
ENDBRANCH  25  26
ENDBRANCH  24  25
ENDBRANCH   1  24
TORSDOF 8
ENDMDL
MODEL 5
REMARK VINA RESULT:      -8.7      1.625      2.752
REMARK  8 active torsions:
REMARK  status: ('A' for Active; 'I' for Inactive)
REMARK    1  A    between atoms: C_2  and  N_3 
REMARK       I    between atoms: N_3  and  C_4 
REMARK    2  A    between atoms: C_4  and  C_5 
REMARK    3  A    between atoms: C_5  and  O_6 
REMARK    4  A    between atoms: O_6  and  C_7 
REMARK    5  A    between atoms: C_8  and  O_9 
REMARK    6  A    between atoms: C_12  and  C_13 
REMARK    7  A    between atoms: C_13  and  N_14 
REMARK    8  A    between atoms: N_14  and  C_15 
ROOT
HETATM    1  C   UNL     1       8.613  31.178  58.583  1.00  0.00     0.102 A 
HETATM    2  C   UNL     1       7.216  31.303  58.501  1.00  0.00     0.102 A 
HETATM    3  C   UNL     1       6.460  30.254  57.951  1.00  0.00     0.048 A 
HETATM    4  C   UNL     1       7.061  29.066  57.521  1.00  0.00    -0.042 A 
HETATM    5  C   UNL     1       8.450  28.951  57.608  1.00  0.00     0.011 A 
HETATM    6  C   UNL     1       9.216  29.992  58.140  1.00  0.00     0.040 A 
ENDROOT
BRANCH   4   7
HETATM    7  C   UNL     1       6.231  27.934  56.967  1.00  0.00     0.131 C 
BRANCH   7   8
HETATM    8  N   UNL     1       6.796  27.492  55.698  1.00  0.00    -0.289 NA
HETATM    9  H   UNL     1       6.300  27.897  54.907  1.00  0.00     0.128 HD
BRANCH   8  10
HETATM   10  C   UNL     1       7.049  26.123  55.515  1.00  0.00     0.010 A 
HETATM   11  C   UNL     1       7.593  25.396  56.590  1.00  0.00     0.055 A 
HETATM   12  C   UNL     1       7.779  24.043  56.423  1.00  0.00     0.065 A 
HETATM   13  C   UNL     1       7.415  23.382  55.255  1.00  0.00     0.063 A 
HETATM   14  N   UNL     1       8.313  23.101  57.297  1.00  0.00    -0.306 N 
HETATM   15  N   UNL     1       7.725  22.036  55.406  1.00  0.00    -0.307 N 
HETATM   16  C   UNL     1       6.842  24.039  54.198  1.00  0.00     0.034 A 
HETATM   17  C   UNL     1       8.288  21.843  56.676  1.00  0.00     0.325 A 
HETATM   18  H   UNL     1       7.579  21.295  54.740  1.00  0.00     0.170 HD
HETATM   19  O   UNL     1       8.677  20.790  57.147  1.00  0.00    -0.247 OA
HETATM   20  C   UNL     1       6.650  25.421  54.346  1.00  0.00     0.026 A 
HETATM   21  H   UNL     1       8.665  23.260  58.227  1.00  0.00     0.170 HD
ENDBRANCH   8  10
ENDBRANCH   7   8
ENDBRANCH   4   7
BRANCH   2  22
HETATM   22  O   UNL     1       6.432  32.363  58.874  1.00  0.00    -0.353 OA
HETATM   23  C   UNL     1       5.034  32.162  59.017  1.00  0.00     0.210 C 
ENDBRANCH   2  22
BRANCH   1  24
HETATM   24  O   UNL     1       9.333  32.197  59.149  1.00  0.00    -0.339 OA
BRANCH  24  25
HETATM   25  C   UNL     1       9.896  31.988  60.441  1.00  0.00     0.278 C 
BRANCH  25  26
HETATM   26  C   UNL     1       8.871  31.831  61.571  1.00  0.00     0.242 C 
HETATM   27  N   UNL     1       7.966  32.867  61.664  1.00  0.00    -0.351 N 
HETATM   28  H   UNL     1       8.156  33.668  61.069  1.00  0.00     0.163 HD
HETATM   29  O   UNL     1       8.878  30.851  62.310  1.00  0.00    -0.271 OA
BRANCH  27  30
HETATM   30  C   UNL     1       6.914  32.998  62.679  1.00  0.00     0.022 C 
HETATM   31  C   UNL     1       5.986  31.775  62.652  1.00  0.00     0.037 C 
HETATM   32  C   UNL     1       6.097  34.285  62.478  1.00  0.00     0.037 C 
HETATM   33  C   UNL     1       7.592  33.073  64.059  1.00  0.00     0.037 C 
ENDBRANCH  27  30
ENDBRANCH  25  26
ENDBRANCH  24  25
ENDBRANCH   1  24
TORSDOF 8
ENDMDL
MODEL 6
REMARK VINA RESULT:      -8.6      2.430     10.036
REMARK  8 active torsions:
REMARK  status: ('A' for Active; 'I' for Inactive)
REMARK    1  A    between atoms: C_2  and  N_3 
REMARK       I    between atoms: N_3  and  C_4 
REMARK    2  A    between atoms: C_4  and  C_5 
REMARK    3  A    between atoms: C_5  and  O_6 
REMARK    4  A    between atoms: O_6  and  C_7 
REMARK    5  A    between atoms: C_8  and  O_9 
REMARK    6  A    between atoms: C_12  and  C_13 
REMARK    7  A    between atoms: C_13  and  N_14 
REMARK    8  A    between atoms: N_14  and  C_15 
ROOT
HETATM    1  C   UNL     1       6.622  26.336  55.474  1.00  0.00     0.102 A 
HETATM    2  C   UNL     1       7.388  25.978  56.596  1.00  0.00     0.102 A 
HETATM    3  C   UNL     1       8.095  26.970  57.295  1.00  0.00     0.048 A 
HETATM    4  C   UNL     1       8.020  28.319  56.929  1.00  0.00    -0.042 A 
HETATM    5  C   UNL     1       7.254  28.665  55.813  1.00  0.00     0.011 A 
HETATM    6  C   UNL     1       6.558  27.686  55.099  1.00  0.00     0.040 A 
ENDROOT
BRANCH   4   7
HETATM    7  C   UNL     1       8.755  29.378  57.713  1.00  0.00     0.131 C 
BRANCH   7   8
HETATM    8  N   UNL     1       7.804  30.364  58.209  1.00  0.00    -0.289 NA
HETATM    9  H   UNL     1       7.615  31.083  57.514  1.00  0.00     0.128 HD
BRANCH   8  10
HETATM   10  C   UNL     1       8.005  30.907  59.488  1.00  0.00     0.010 A 
HETATM   11  C   UNL     1       7.045  31.805  59.989  1.00  0.00     0.055 A 
HETATM   12  C   UNL     1       7.216  32.284  61.268  1.00  0.00     0.065 A 
HETATM   13  C   UNL     1       8.274  31.882  62.075  1.00  0.00     0.063 A 
HETATM   14  N   UNL     1       6.446  33.188  61.994  1.00  0.00    -0.306 N 
HETATM   15  N   UNL     1       8.160  32.537  63.295  1.00  0.00    -0.307 N 
HETATM   16  C   UNL     1       9.211  30.977  61.647  1.00  0.00     0.034 A 
HETATM   17  C   UNL     1       7.023  33.357  63.261  1.00  0.00     0.325 A 
HETATM   18  H   UNL     1       8.768  32.455  64.094  1.00  0.00     0.170 HD
HETATM   19  O   UNL     1       6.617  34.076  64.156  1.00  0.00    -0.247 OA
HETATM   20  C   UNL     1       9.056  30.482  60.344  1.00  0.00     0.026 A 
HETATM   21  H   UNL     1       5.609  33.658  61.691  1.00  0.00     0.170 HD
ENDBRANCH   8  10
ENDBRANCH   7   8
ENDBRANCH   4   7
BRANCH   2  22
HETATM   22  O   UNL     1       7.585  24.731  57.131  1.00  0.00    -0.353 OA
HETATM   23  C   UNL     1       8.901  24.344  57.494  1.00  0.00     0.210 C 
ENDBRANCH   2  22
BRANCH   1  24
HETATM   24  O   UNL     1       5.916  25.361  54.821  1.00  0.00    -0.339 OA
BRANCH  24  25
HETATM   25  C   UNL     1       6.294  25.035  53.486  1.00  0.00     0.278 C 
BRANCH  25  26
HETATM   26  C   UNL     1       7.263  23.853  53.363  1.00  0.00     0.242 C 
HETATM   27  N   UNL     1       7.165  22.930  54.383  1.00  0.00    -0.351 N 
HETATM   28  H   UNL     1       6.565  23.197  55.157  1.00  0.00     0.163 HD
HETATM   29  O   UNL     1       8.044  23.761  52.420  1.00  0.00    -0.271 OA
BRANCH  27  30
HETATM   30  C   UNL     1       8.002  21.734  54.541  1.00  0.00     0.022 C 
HETATM   31  C   UNL     1       7.863  20.816  53.319  1.00  0.00     0.037 C 
HETATM   32  C   UNL     1       7.645  20.964  55.823  1.00  0.00     0.037 C 
HETATM   33  C   UNL     1       9.468  22.192  54.651  1.00  0.00     0.037 C 
ENDBRANCH  27  30
ENDBRANCH  25  26
ENDBRANCH  24  25
ENDBRANCH   1  24
TORSDOF 8
ENDMDL
MODEL 7
REMARK VINA RESULT:      -8.6      0.886      1.787
REMARK  8 active torsions:
REMARK  status: ('A' for Active; 'I' for Inactive)
REMARK    1  A    between atoms: C_2  and  N_3 
REMARK       I    between atoms: N_3  and  C_4 
REMARK    2  A    between atoms: C_4  and  C_5 
REMARK    3  A    between atoms: C_5  and  O_6 
REMARK    4  A    between atoms: O_6  and  C_7 
REMARK    5  A    between atoms: C_8  and  O_9 
REMARK    6  A    between atoms: C_12  and  C_13 
REMARK    7  A    between atoms: C_13  and  N_14 
REMARK    8  A    between atoms: N_14  and  C_15 
ROOT
HETATM    1  C   UNL     1       7.572  28.823  57.801  1.00  0.00     0.102 A 
HETATM    2  C   UNL     1       6.277  29.206  57.414  1.00  0.00     0.102 A 
HETATM    3  C   UNL     1       5.699  28.632  56.270  1.00  0.00     0.048 A 
HETATM    4  C   UNL     1       6.365  27.651  55.527  1.00  0.00    -0.042 A 
HETATM    5  C   UNL     1       7.652  27.275  55.921  1.00  0.00     0.011 A 
HETATM    6  C   UNL     1       8.245  27.849  57.049  1.00  0.00     0.040 A 
ENDROOT
BRANCH   4   7
HETATM    7  C   UNL     1       5.716  27.016  54.322  1.00  0.00     0.131 C 
BRANCH   7   8
HETATM    8  N   UNL     1       5.333  25.646  54.640  1.00  0.00    -0.289 NA
HETATM    9  H   UNL     1       4.881  25.587  55.550  1.00  0.00     0.128 HD
BRANCH   8  10
HETATM   10  C   UNL     1       6.277  24.624  54.454  1.00  0.00     0.010 A 
HETATM   11  C   UNL     1       6.716  23.907  55.582  1.00  0.00     0.055 A 
HETATM   12  C   UNL     1       7.592  22.865  55.383  1.00  0.00     0.065 A 
HETATM   13  C   UNL     1       8.019  22.486  54.115  1.00  0.00     0.063 A 
HETATM   14  N   UNL     1       8.197  22.018  56.307  1.00  0.00    -0.306 N 
HETATM   15  N   UNL     1       8.885  21.410  54.254  1.00  0.00    -0.307 N 
HETATM   16  C   UNL     1       7.585  23.125  52.982  1.00  0.00     0.034 A 
HETATM   17  C   UNL     1       9.008  21.105  55.618  1.00  0.00     0.325 A 
HETATM   18  H   UNL     1       9.358  20.904  53.523  1.00  0.00     0.170 HD
HETATM   19  O   UNL     1       9.687  20.220  56.107  1.00  0.00    -0.247 OA
HETATM   20  C   UNL     1       6.696  24.195  53.165  1.00  0.00     0.026 A 
HETATM   21  H   UNL     1       8.090  22.029  57.308  1.00  0.00     0.170 HD
ENDBRANCH   8  10
ENDBRANCH   7   8
ENDBRANCH   4   7
BRANCH   2  22
HETATM   22  O   UNL     1       5.450  30.129  58.002  1.00  0.00    -0.353 OA
HETATM   23  C   UNL     1       5.403  31.443  57.467  1.00  0.00     0.210 C 
ENDBRANCH   2  22
BRANCH   1  24
HETATM   24  O   UNL     1       8.110  29.371  58.936  1.00  0.00    -0.339 OA
BRANCH  24  25
HETATM   25  C   UNL     1       8.829  30.595  58.817  1.00  0.00     0.278 C 
BRANCH  25  26
HETATM   26  C   UNL     1       8.479  31.652  59.872  1.00  0.00     0.242 C 
HETATM   27  N   UNL     1       7.582  31.224  60.828  1.00  0.00    -0.351 N 
HETATM   28  H   UNL     1       7.160  30.316  60.656  1.00  0.00     0.163 HD
HETATM   29  O   UNL     1       8.977  32.773  59.845  1.00  0.00    -0.271 OA
BRANCH  27  30
HETATM   30  C   UNL     1       7.038  32.040  61.921  1.00  0.00     0.022 C 
HETATM   31  C   UNL     1       8.146  32.410  62.917  1.00  0.00     0.037 C 
HETATM   32  C   UNL     1       5.895  31.314  62.648  1.00  0.00     0.037 C 
HETATM   33  C   UNL     1       6.470  33.334  61.309  1.00  0.00     0.037 C 
ENDBRANCH  27  30
ENDBRANCH  25  26
ENDBRANCH  24  25
ENDBRANCH   1  24
TORSDOF 8
ENDMDL
MODEL 8
REMARK VINA RESULT:      -8.5      2.721     10.731
REMARK  8 active torsions:
REMARK  status: ('A' for Active; 'I' for Inactive)
REMARK    1  A    between atoms: C_2  and  N_3 
REMARK       I    between atoms: N_3  and  C_4 
REMARK    2  A    between atoms: C_4  and  C_5 
REMARK    3  A    between atoms: C_5  and  O_6 
REMARK    4  A    between atoms: O_6  and  C_7 
REMARK    5  A    between atoms: C_8  and  O_9 
REMARK    6  A    between atoms: C_12  and  C_13 
REMARK    7  A    between atoms: C_13  and  N_14 
REMARK    8  A    between atoms: N_14  and  C_15 
ROOT
HETATM    1  C   UNL     1       7.220  29.755  56.671  1.00  0.00     0.102 A 
HETATM    2  C   UNL     1       6.361  30.590  57.404  1.00  0.00     0.102 A 
HETATM    3  C   UNL     1       6.766  31.062  58.663  1.00  0.00     0.048 A 
HETATM    4  C   UNL     1       8.026  30.756  59.190  1.00  0.00    -0.042 A 
HETATM    5  C   UNL     1       8.873  29.926  58.452  1.00  0.00     0.011 A 
HETATM    6  C   UNL     1       8.477  29.437  57.204  1.00  0.00     0.040 A 
ENDROOT
BRANCH   4   7
HETATM    7  C   UNL     1       8.461  31.301  60.528  1.00  0.00     0.131 C 
BRANCH   7   8
HETATM    8  N   UNL     1       7.521  30.875  61.557  1.00  0.00    -0.289 NA
HETATM    9  H   UNL     1       6.725  30.385  61.155  1.00  0.00     0.128 HD
BRANCH   8  10
HETATM   10  C   UNL     1       7.130  31.803  62.535  1.00  0.00     0.010 A 
HETATM   11  C   UNL     1       5.755  31.983  62.771  1.00  0.00     0.055 A 
HETATM   12  C   UNL     1       5.381  32.847  63.774  1.00  0.00     0.065 A 
HETATM   13  C   UNL     1       6.310  33.506  64.571  1.00  0.00     0.063 A 
HETATM   14  N   UNL     1       4.110  33.226  64.198  1.00  0.00    -0.306 N 
HETATM   15  N   UNL     1       5.617  34.291  65.484  1.00  0.00    -0.307 N 
HETATM   16  C   UNL     1       7.660  33.329  64.409  1.00  0.00     0.034 A 
HETATM   17  C   UNL     1       4.241  34.128  65.264  1.00  0.00     0.325 A 
HETATM   18  H   UNL     1       6.004  34.883  66.200  1.00  0.00     0.170 HD
HETATM   19  O   UNL     1       3.338  34.666  65.879  1.00  0.00    -0.247 OA
HETATM   20  C   UNL     1       8.061  32.457  63.386  1.00  0.00     0.026 A 
HETATM   21  H   UNL     1       3.225  32.922  63.827  1.00  0.00     0.170 HD
ENDBRANCH   8  10
ENDBRANCH   7   8
ENDBRANCH   4   7
BRANCH   2  22
HETATM   22  O   UNL     1       5.103  31.022  57.072  1.00  0.00    -0.353 OA
HETATM   23  C   UNL     1       4.329  31.691  58.055  1.00  0.00     0.210 C 
ENDBRANCH   2  22
BRANCH   1  24
HETATM   24  O   UNL     1       6.822  29.327  55.431  1.00  0.00    -0.339 OA
BRANCH  24  25
HETATM   25  C   UNL     1       7.584  28.305  54.794  1.00  0.00     0.278 C 
BRANCH  25  26
HETATM   26  C   UNL     1       6.875  26.949  54.682  1.00  0.00     0.242 C 
HETATM   27  N   UNL     1       7.449  26.082  53.776  1.00  0.00    -0.351 N 
HETATM   28  H   UNL     1       8.185  26.478  53.199  1.00  0.00     0.163 HD
HETATM   29  O   UNL     1       5.887  26.687  55.360  1.00  0.00    -0.271 OA
BRANCH  27  30
HETATM   30  C   UNL     1       6.950  24.745  53.434  1.00  0.00     0.022 C 
HETATM   31  C   UNL     1       5.545  24.836  52.822  1.00  0.00     0.037 C 
HETATM   32  C   UNL     1       6.931  23.821  54.663  1.00  0.00     0.037 C 
HETATM   33  C   UNL     1       7.904  24.135  52.392  1.00  0.00     0.037 C 
ENDBRANCH  27  30
ENDBRANCH  25  26
ENDBRANCH  24  25
ENDBRANCH   1  24
TORSDOF 8
ENDMDL
MODEL 9
REMARK VINA RESULT:      -8.5      1.797      2.720
REMARK  8 active torsions:
REMARK  status: ('A' for Active; 'I' for Inactive)
REMARK    1  A    between atoms: C_2  and  N_3 
REMARK       I    between atoms: N_3  and  C_4 
REMARK    2  A    between atoms: C_4  and  C_5 
REMARK    3  A    between atoms: C_5  and  O_6 
REMARK    4  A    between atoms: O_6  and  C_7 
REMARK    5  A    between atoms: C_8  and  O_9 
REMARK    6  A    between atoms: C_12  and  C_13 
REMARK    7  A    between atoms: C_13  and  N_14 
REMARK    8  A    between atoms: N_14  and  C_15 
ROOT
HETATM    1  C   UNL     1       7.233  30.704  58.284  1.00  0.00     0.102 A 
HETATM    2  C   UNL     1       5.960  30.478  57.733  1.00  0.00     0.102 A 
HETATM    3  C   UNL     1       5.646  29.209  57.220  1.00  0.00     0.048 A 
HETATM    4  C   UNL     1       6.555  28.147  57.282  1.00  0.00    -0.042 A 
HETATM    5  C   UNL     1       7.817  28.381  57.834  1.00  0.00     0.011 A 
HETATM    6  C   UNL     1       8.149  29.643  58.335  1.00  0.00     0.040 A 
ENDROOT
BRANCH   4   7
HETATM    7  C   UNL     1       6.189  26.780  56.760  1.00  0.00     0.131 C 
BRANCH   7   8
HETATM    8  N   UNL     1       7.167  26.360  55.765  1.00  0.00    -0.289 NA
HETATM    9  H   UNL     1       6.985  26.786  54.859  1.00  0.00     0.128 HD
BRANCH   8  10
HETATM   10  C   UNL     1       7.469  24.994  55.654  1.00  0.00     0.010 A 
HETATM   11  C   UNL     1       7.396  24.396  54.382  1.00  0.00     0.055 A 
HETATM   12  C   UNL     1       7.754  23.072  54.270  1.00  0.00     0.065 A 
HETATM   13  C   UNL     1       8.213  22.334  55.355  1.00  0.00     0.063 A 
HETATM   14  N   UNL     1       7.752  22.238  53.157  1.00  0.00    -0.306 N 
HETATM   15  N   UNL     1       8.493  21.047  54.914  1.00  0.00    -0.307 N 
HETATM   16  C   UNL     1       8.343  22.883  56.604  1.00  0.00     0.034 A 
HETATM   17  C   UNL     1       8.210  20.970  53.542  1.00  0.00     0.325 A 
HETATM   18  H   UNL     1       8.847  20.276  55.457  1.00  0.00     0.170 HD
HETATM   19  O   UNL     1       8.337  19.992  52.827  1.00  0.00    -0.247 OA
HETATM   20  C   UNL     1       7.977  24.231  56.740  1.00  0.00     0.026 A 
HETATM   21  H   UNL     1       7.478  22.473  52.217  1.00  0.00     0.170 HD
ENDBRANCH   8  10
ENDBRANCH   7   8
ENDBRANCH   4   7
BRANCH   2  22
HETATM   22  O   UNL     1       4.925  31.364  57.588  1.00  0.00    -0.353 OA
HETATM   23  C   UNL     1       3.933  31.428  58.601  1.00  0.00     0.210 C 
ENDBRANCH   2  22
BRANCH   1  24
HETATM   24  O   UNL     1       7.514  31.939  58.807  1.00  0.00    -0.339 OA
BRANCH  24  25
HETATM   25  C   UNL     1       8.511  32.030  59.821  1.00  0.00     0.278 C 
BRANCH  25  26
HETATM   26  C   UNL     1       7.977  31.954  61.257  1.00  0.00     0.242 C 
HETATM   27  N   UNL     1       7.236  33.050  61.645  1.00  0.00    -0.351 N 
HETATM   28  H   UNL     1       7.236  33.830  60.994  1.00  0.00     0.163 HD
HETATM   29  O   UNL     1       8.203  30.983  61.972  1.00  0.00    -0.271 OA
BRANCH  27  30
HETATM   30  C   UNL     1       6.650  33.262  62.974  1.00  0.00     0.022 C 
HETATM   31  C   UNL     1       6.009  34.654  63.063  1.00  0.00     0.037 C 
HETATM   32  C   UNL     1       7.699  33.092  64.084  1.00  0.00     0.037 C 
HETATM   33  C   UNL     1       5.555  32.200  63.185  1.00  0.00     0.037 C 
ENDBRANCH  27  30
ENDBRANCH  25  26
ENDBRANCH  24  25
ENDBRANCH   1  24
TORSDOF 8
ENDMDL
MODEL 10
REMARK VINA RESULT:      -8.3      2.392     10.100
REMARK  8 active torsions:
REMARK  status: ('A' for Active; 'I' for Inactive)
REMARK    1  A    between atoms: C_2  and  N_3 
REMARK       I    between atoms: N_3  and  C_4 
REMARK    2  A    between atoms: C_4  and  C_5 
REMARK    3  A    between atoms: C_5  and  O_6 
REMARK    4  A    between atoms: O_6  and  C_7 
REMARK    5  A    between atoms: C_8  and  O_9 
REMARK    6  A    between atoms: C_12  and  C_13 
REMARK    7  A    between atoms: C_13  and  N_14 
REMARK    8  A    between atoms: N_14  and  C_15 
ROOT
HETATM    1  C   UNL     1       6.947  27.480  55.754  1.00  0.00     0.102 A 
HETATM    2  C   UNL     1       6.511  28.815  55.730  1.00  0.00     0.102 A 
HETATM    3  C   UNL     1       7.139  29.762  56.556  1.00  0.00     0.048 A 
HETATM    4  C   UNL     1       8.222  29.418  57.373  1.00  0.00    -0.042 A 
HETATM    5  C   UNL     1       8.650  28.088  57.387  1.00  0.00     0.011 A 
HETATM    6  C   UNL     1       8.024  27.132  56.582  1.00  0.00     0.040 A 
ENDROOT
BRANCH   4   7
HETATM    7  C   UNL     1       8.911  30.453  58.226  1.00  0.00     0.131 C 
BRANCH   7   8
HETATM    8  N   UNL     1       7.968  31.511  58.566  1.00  0.00    -0.289 NA
HETATM    9  H   UNL     1       8.098  32.331  57.978  1.00  0.00     0.128 HD
BRANCH   8  10
HETATM   10  C   UNL     1       7.799  31.853  59.917  1.00  0.00     0.010 A 
HETATM   11  C   UNL     1       6.490  31.986  60.413  1.00  0.00     0.055 A 
HETATM   12  C   UNL     1       6.333  32.260  61.752  1.00  0.00     0.065 A 
HETATM   13  C   UNL     1       7.414  32.369  62.619  1.00  0.00     0.063 A 
HETATM   14  N   UNL     1       5.171  32.464  62.492  1.00  0.00    -0.306 N 
HETATM   15  N   UNL     1       6.924  32.641  63.890  1.00  0.00    -0.307 N 
HETATM   16  C   UNL     1       8.706  32.203  62.192  1.00  0.00     0.034 A 
HETATM   17  C   UNL     1       5.524  32.704  63.828  1.00  0.00     0.325 A 
HETATM   18  H   UNL     1       7.453  32.770  64.737  1.00  0.00     0.170 HD
HETATM   19  O   UNL     1       4.764  32.925  64.753  1.00  0.00    -0.247 OA
HETATM   20  C   UNL     1       8.887  31.930  60.828  1.00  0.00     0.026 A 
HETATM   21  H   UNL     1       4.222  32.446  62.157  1.00  0.00     0.170 HD
ENDBRANCH   8  10
ENDBRANCH   7   8
ENDBRANCH   4   7
BRANCH   2  22
HETATM   22  O   UNL     1       5.488  29.365  55.001  1.00  0.00    -0.353 OA
HETATM   23  C   UNL     1       4.496  30.121  55.679  1.00  0.00     0.210 C 
ENDBRANCH   2  22
BRANCH   1  24
HETATM   24  O   UNL     1       6.343  26.575  54.921  1.00  0.00    -0.339 OA
BRANCH  24  25
HETATM   25  C   UNL     1       6.239  25.223  55.357  1.00  0.00     0.278 C 
BRANCH  25  26
HETATM   26  C   UNL     1       7.161  24.239  54.624  1.00  0.00     0.242 C 
HETATM   27  N   UNL     1       7.206  22.980  55.183  1.00  0.00    -0.351 N 
HETATM   28  H   UNL     1       6.735  22.882  56.078  1.00  0.00     0.163 HD
HETATM   29  O   UNL     1       7.786  24.574  53.623  1.00  0.00    -0.271 OA
BRANCH  27  30
HETATM   30  C   UNL     1       8.039  21.864  54.718  1.00  0.00     0.022 C 
HETATM   31  C   UNL     1       7.795  21.597  53.226  1.00  0.00     0.037 C 
HETATM   32  C   UNL     1       7.774  20.588  55.533  1.00  0.00     0.037 C 
HETATM   33  C   UNL     1       9.514  22.259  54.914  1.00  0.00     0.037 C 
ENDBRANCH  27  30
ENDBRANCH  25  26
ENDBRANCH  24  25
ENDBRANCH   1  24
TORSDOF 8
ENDMDL
