MODEL 1
REMARK VINA RESULT:     -10.1      0.000      0.000
REMARK  8 active torsions:
REMARK  status: ('A' for Active; 'I' for Inactive)
REMARK    1  A    between atoms: O_2  and  C_3 
REMARK    2  A    between atoms: C_3  and  C_4 
REMARK    3  A    between atoms: C_7  and  C_8 
REMARK    4  A    between atoms: C_8  and  N_9 
REMARK    5  A    between atoms: C_18  and  C_19 
REMARK    6  A    between atoms: C_19  and  N_20 
REMARK    7  A    between atoms: C_24  and  O_25 
REMARK    8  A    between atoms: C_24  and  C_26 
ROOT
HETATM    1  N   UNL     1       8.182  29.186  56.679  1.00  0.00    -0.061 N 
HETATM    2  H   UNL     1       7.537  28.955  55.914  1.00  0.00     0.280 HD
HETATM    3  C   UNL     1       7.606  30.447  57.288  1.00  0.00     0.276 C 
HETATM    4  C   UNL     1       8.261  30.915  58.556  1.00  0.00     0.002 A 
HETATM    5  C   UNL     1       9.611  31.262  58.569  1.00  0.00     0.076 A 
HETATM    6  O   UNL     1      10.354  31.248  57.422  1.00  0.00    -0.349 OA
HETATM    7  C   UNL     1      10.614  29.920  56.955  1.00  0.00     0.203 C 
HETATM    8  C   UNL     1       9.522  29.430  55.997  1.00  0.00     0.262 C 
HETATM    9  C   UNL     1       7.517  31.073  59.741  1.00  0.00     0.020 A 
HETATM   10  C   UNL     1       8.112  31.555  60.924  1.00  0.00    -0.032 A 
HETATM   11  C   UNL     1       9.479  31.867  60.908  1.00  0.00     0.011 A 
HETATM   12  C   UNL     1      10.217  31.743  59.728  1.00  0.00     0.038 A 
ENDROOT
BRANCH  10  13
HETATM   13  C   UNL     1       7.283  31.734  62.176  1.00  0.00     0.273 C 
BRANCH  13  14
HETATM   14  N   UNL     1       6.075  32.648  62.039  1.00  0.00    -0.067 N 
HETATM   15  H   UNL     1       5.759  32.571  61.064  1.00  0.00     0.280 HD
HETATM   16  C   UNL     1       4.912  32.244  62.917  1.00  0.00     0.238 C 
HETATM   17  C   UNL     1       3.747  33.187  62.681  1.00  0.00     0.071 C 
HETATM   18  C   UNL     1       4.111  34.643  63.033  1.00  0.00     0.089 C 
HETATM   19  C   UNL     1       5.297  35.027  62.124  1.00  0.00     0.071 C 
HETATM   20  C   UNL     1       6.487  34.089  62.265  1.00  0.00     0.238 C 
BRANCH  18  21
HETATM   21  O   UNL     1       3.009  35.447  62.611  1.00  0.00    -0.385 OA
HETATM   22  H   UNL     1       2.468  34.962  61.958  1.00  0.00     0.211 HD
ENDBRANCH  18  21
BRANCH  18  23
HETATM   23  C   UNL     1       4.310  34.851  64.530  1.00  0.00    -0.006 A 
HETATM   24  C   UNL     1       4.382  33.804  65.445  1.00  0.00     0.126 A 
HETATM   25  N   UNL     1       4.479  33.957  66.783  1.00  0.00    -0.272 NA
HETATM   26  C   UNL     1       4.600  35.213  67.258  1.00  0.00     0.116 A 
HETATM   27  C   UNL     1       4.610  36.327  66.442  1.00  0.00     0.020 A 
HETATM   28  C   UNL     1       4.468  36.140  65.069  1.00  0.00     0.013 A 
ENDBRANCH  18  23
ENDBRANCH  13  14
ENDBRANCH  10  13
BRANCH   1  29
HETATM   29  C   UNL     1       8.188  27.956  57.564  1.00  0.00     0.273 C 
BRANCH  29  30
HETATM   30  C   UNL     1       8.013  26.642  56.846  1.00  0.00    -0.033 A 
HETATM   31  C   UNL     1       7.341  26.560  55.618  1.00  0.00     0.010 A 
HETATM   32  C   UNL     1       7.172  25.322  54.988  1.00  0.00     0.018 A 
HETATM   33  C   UNL     1       7.686  24.152  55.560  1.00  0.00     0.039 A 
HETATM   34  C   UNL     1       8.389  24.235  56.767  1.00  0.00     0.018 A 
HETATM   35  C   UNL     1       8.553  25.469  57.401  1.00  0.00     0.010 A 
BRANCH  33  36
HETATM   36  C   UNL     1       7.456  22.860  54.856  1.00  0.00     0.292 C 
HETATM   37  O   UNL     1       7.199  22.791  53.667  1.00  0.00    -0.259 OA
BRANCH  36  38
HETATM   38  O   UNL     1       7.534  21.822  55.725  1.00  0.00    -0.323 OA
HETATM   39  C   UNL     1       7.943  20.591  55.120  1.00  0.00     0.213 C 
ENDBRANCH  36  38
ENDBRANCH  33  36
ENDBRANCH  29  30
ENDBRANCH   1  29
TORSDOF 8
ENDMDL
MODEL 2
REMARK VINA RESULT:      -9.8      5.620     11.302
REMARK  8 active torsions:
REMARK  status: ('A' for Active; 'I' for Inactive)
REMARK    1  A    between atoms: O_2  and  C_3 
REMARK    2  A    between atoms: C_3  and  C_4 
REMARK    3  A    between atoms: C_7  and  C_8 
REMARK    4  A    between atoms: C_8  and  N_9 
REMARK    5  A    between atoms: C_18  and  C_19 
REMARK    6  A    between atoms: C_19  and  N_20 
REMARK    7  A    between atoms: C_24  and  O_25 
REMARK    8  A    between atoms: C_24  and  C_26 
ROOT
HETATM    1  N   UNL     1       8.079  27.954  56.962  1.00  0.00    -0.061 N 
HETATM    2  H   UNL     1       9.056  27.661  57.077  1.00  0.00     0.280 HD
HETATM    3  C   UNL     1       7.942  28.236  55.482  1.00  0.00     0.276 C 
HETATM    4  C   UNL     1       6.547  28.517  54.999  1.00  0.00     0.002 A 
HETATM    5  C   UNL     1       5.832  29.607  55.496  1.00  0.00     0.076 A 
HETATM    6  O   UNL     1       6.401  30.478  56.382  1.00  0.00    -0.349 OA
HETATM    7  C   UNL     1       6.584  29.899  57.679  1.00  0.00     0.203 C 
HETATM    8  C   UNL     1       7.950  29.215  57.808  1.00  0.00     0.262 C 
HETATM    9  C   UNL     1       5.956  27.730  53.993  1.00  0.00     0.020 A 
HETATM   10  C   UNL     1       4.665  28.014  53.501  1.00  0.00    -0.032 A 
HETATM   11  C   UNL     1       3.964  29.099  54.045  1.00  0.00     0.011 A 
HETATM   12  C   UNL     1       4.557  29.904  55.021  1.00  0.00     0.038 A 
ENDROOT
BRANCH  10  13
HETATM   13  C   UNL     1       4.064  27.163  52.405  1.00  0.00     0.273 C 
BRANCH  13  14
HETATM   14  N   UNL     1       4.786  27.207  51.067  1.00  0.00    -0.067 N 
HETATM   15  H   UNL     1       5.775  27.002  51.261  1.00  0.00     0.280 HD
HETATM   16  C   UNL     1       4.300  26.164  50.086  1.00  0.00     0.238 C 
HETATM   17  C   UNL     1       5.104  26.261  48.803  1.00  0.00     0.071 C 
HETATM   18  C   UNL     1       4.944  27.640  48.132  1.00  0.00     0.089 C 
HETATM   19  C   UNL     1       5.447  28.681  49.153  1.00  0.00     0.071 C 
HETATM   20  C   UNL     1       4.722  28.607  50.490  1.00  0.00     0.238 C 
BRANCH  18  21
HETATM   21  O   UNL     1       5.870  27.669  47.046  1.00  0.00    -0.385 OA
HETATM   22  H   UNL     1       5.496  27.208  46.270  1.00  0.00     0.211 HD
ENDBRANCH  18  21
BRANCH  18  23
HETATM   23  C   UNL     1       3.543  27.860  47.574  1.00  0.00    -0.006 A 
HETATM   24  C   UNL     1       3.026  29.119  47.277  1.00  0.00     0.126 A 
HETATM   25  N   UNL     1       1.765  29.354  46.856  1.00  0.00    -0.272 NA
HETATM   26  C   UNL     1       0.977  28.283  46.628  1.00  0.00     0.116 A 
HETATM   27  C   UNL     1       1.400  26.984  46.822  1.00  0.00     0.020 A 
HETATM   28  C   UNL     1       2.694  26.775  47.295  1.00  0.00     0.013 A 
ENDBRANCH  18  23
ENDBRANCH  13  14
ENDBRANCH  10  13
BRANCH   1  29
HETATM   29  C   UNL     1       7.264  26.797  57.503  1.00  0.00     0.273 C 
BRANCH  29  30
HETATM   30  C   UNL     1       7.538  25.459  56.865  1.00  0.00    -0.033 A 
HETATM   31  C   UNL     1       8.738  24.770  57.090  1.00  0.00     0.010 A 
HETATM   32  C   UNL     1       8.976  23.542  56.463  1.00  0.00     0.018 A 
HETATM   33  C   UNL     1       8.014  22.972  55.620  1.00  0.00     0.039 A 
HETATM   34  C   UNL     1       6.799  23.638  55.422  1.00  0.00     0.018 A 
HETATM   35  C   UNL     1       6.564  24.868  56.041  1.00  0.00     0.010 A 
BRANCH  33  36
HETATM   36  C   UNL     1       8.330  21.674  54.962  1.00  0.00     0.292 C 
HETATM   37  O   UNL     1       9.057  20.836  55.466  1.00  0.00    -0.259 OA
BRANCH  36  38
HETATM   38  O   UNL     1       7.737  21.598  53.745  1.00  0.00    -0.323 OA
HETATM   39  C   UNL     1       8.238  20.540  52.923  1.00  0.00     0.213 C 
ENDBRANCH  36  38
ENDBRANCH  33  36
ENDBRANCH  29  30
ENDBRANCH   1  29
TORSDOF 8
ENDMDL
MODEL 3
REMARK VINA RESULT:      -9.8      5.488     12.478
REMARK  8 active torsions:
REMARK  status: ('A' for Active; 'I' for Inactive)
REMARK    1  A    between atoms: O_2  and  C_3 
REMARK    2  A    between atoms: C_3  and  C_4 
REMARK    3  A    between atoms: C_7  and  C_8 
REMARK    4  A    between atoms: C_8  and  N_9 
REMARK    5  A    between atoms: C_18  and  C_19 
REMARK    6  A    between atoms: C_19  and  N_20 
REMARK    7  A    between atoms: C_24  and  O_25 
REMARK    8  A    between atoms: C_24  and  C_26 
ROOT
HETATM    1  N   UNL     1       7.695  25.828  57.098  1.00  0.00    -0.061 N 
HETATM    2  H   UNL     1       7.558  26.161  58.059  1.00  0.00     0.280 HD
HETATM    3  C   UNL     1       6.293  25.619  56.569  1.00  0.00     0.276 C 
HETATM    4  C   UNL     1       6.191  25.297  55.104  1.00  0.00     0.002 A 
HETATM    5  C   UNL     1       6.793  24.150  54.589  1.00  0.00     0.076 A 
HETATM    6  O   UNL     1       7.433  23.261  55.406  1.00  0.00    -0.349 OA
HETATM    7  C   UNL     1       8.665  23.778  55.919  1.00  0.00     0.203 C 
HETATM    8  C   UNL     1       8.461  24.520  57.246  1.00  0.00     0.262 C 
HETATM    9  C   UNL     1       5.437  26.107  54.235  1.00  0.00     0.020 A 
HETATM   10  C   UNL     1       5.298  25.789  52.869  1.00  0.00    -0.032 A 
HETATM   11  C   UNL     1       5.941  24.644  52.379  1.00  0.00     0.011 A 
HETATM   12  C   UNL     1       6.665  23.817  53.242  1.00  0.00     0.038 A 
ENDROOT
BRANCH  10  13
HETATM   13  C   UNL     1       4.464  26.667  51.963  1.00  0.00     0.273 C 
BRANCH  13  14
HETATM   14  N   UNL     1       5.031  26.903  50.572  1.00  0.00    -0.067 N 
HETATM   15  H   UNL     1       5.998  26.554  50.587  1.00  0.00     0.280 HD
HETATM   16  C   UNL     1       4.301  26.142  49.487  1.00  0.00     0.238 C 
HETATM   17  C   UNL     1       4.963  26.410  48.148  1.00  0.00     0.071 C 
HETATM   18  C   UNL     1       4.918  27.905  47.777  1.00  0.00     0.089 C 
HETATM   19  C   UNL     1       5.669  28.653  48.898  1.00  0.00     0.071 C 
HETATM   20  C   UNL     1       5.095  28.389  50.283  1.00  0.00     0.238 C 
BRANCH  18  21
HETATM   21  O   UNL     1       5.712  28.053  46.600  1.00  0.00    -0.385 OA
HETATM   22  H   UNL     1       6.427  27.387  46.589  1.00  0.00     0.211 HD
ENDBRANCH  18  21
BRANCH  18  23
HETATM   23  C   UNL     1       3.507  28.389  47.467  1.00  0.00    -0.006 A 
HETATM   24  C   UNL     1       3.154  29.736  47.408  1.00  0.00     0.126 A 
HETATM   25  N   UNL     1       1.900  30.195  47.213  1.00  0.00    -0.272 NA
HETATM   26  C   UNL     1       0.935  29.284  46.976  1.00  0.00     0.116 A 
HETATM   27  C   UNL     1       1.175  27.925  46.944  1.00  0.00     0.020 A 
HETATM   28  C   UNL     1       2.472  27.479  47.187  1.00  0.00     0.013 A 
ENDBRANCH  18  23
ENDBRANCH  13  14
ENDBRANCH  10  13
BRANCH   1  29
HETATM   29  C   UNL     1       8.510  26.914  56.426  1.00  0.00     0.273 C 
BRANCH  29  30
HETATM   30  C   UNL     1       8.650  28.195  57.209  1.00  0.00    -0.033 A 
HETATM   31  C   UNL     1       7.638  28.646  58.068  1.00  0.00     0.010 A 
HETATM   32  C   UNL     1       7.786  29.852  58.762  1.00  0.00     0.018 A 
HETATM   33  C   UNL     1       8.951  30.617  58.626  1.00  0.00     0.039 A 
HETATM   34  C   UNL     1       9.979  30.152  57.799  1.00  0.00     0.018 A 
HETATM   35  C   UNL     1       9.830  28.951  57.100  1.00  0.00     0.010 A 
BRANCH  33  36
HETATM   36  C   UNL     1       9.043  31.903  59.371  1.00  0.00     0.292 C 
HETATM   37  O   UNL     1      10.100  32.370  59.758  1.00  0.00    -0.259 OA
BRANCH  36  38
HETATM   38  O   UNL     1       7.809  32.425  59.576  1.00  0.00    -0.323 OA
HETATM   39  C   UNL     1       7.534  32.740  60.944  1.00  0.00     0.213 C 
ENDBRANCH  36  38
ENDBRANCH  33  36
ENDBRANCH  29  30
ENDBRANCH   1  29
TORSDOF 8
ENDMDL
MODEL 4
REMARK VINA RESULT:      -9.6      2.658     11.966
REMARK  8 active torsions:
REMARK  status: ('A' for Active; 'I' for Inactive)
REMARK    1  A    between atoms: O_2  and  C_3 
REMARK    2  A    between atoms: C_3  and  C_4 
REMARK    3  A    between atoms: C_7  and  C_8 
REMARK    4  A    between atoms: C_8  and  N_9 
REMARK    5  A    between atoms: C_18  and  C_19 
REMARK    6  A    between atoms: C_19  and  N_20 
REMARK    7  A    between atoms: C_24  and  O_25 
REMARK    8  A    between atoms: C_24  and  C_26 
ROOT
HETATM    1  N   UNL     1       7.993  32.161  60.305  1.00  0.00    -0.061 N 
HETATM    2  H   UNL     1       8.895  32.529  60.630  1.00  0.00     0.280 HD
HETATM    3  C   UNL     1       8.315  31.483  58.991  1.00  0.00     0.276 C 
HETATM    4  C   UNL     1       7.196  30.694  58.373  1.00  0.00     0.002 A 
HETATM    5  C   UNL     1       6.004  31.322  58.010  1.00  0.00     0.076 A 
HETATM    6  O   UNL     1       5.850  32.673  58.145  1.00  0.00    -0.349 OA
HETATM    7  C   UNL     1       5.742  33.077  59.514  1.00  0.00     0.203 C 
HETATM    8  C   UNL     1       7.114  33.391  60.123  1.00  0.00     0.262 C 
HETATM    9  C   UNL     1       7.344  29.323  58.091  1.00  0.00     0.020 A 
HETATM   10  C   UNL     1       6.316  28.585  57.470  1.00  0.00    -0.032 A 
HETATM   11  C   UNL     1       5.121  29.242  57.145  1.00  0.00     0.011 A 
HETATM   12  C   UNL     1       4.978  30.610  57.393  1.00  0.00     0.038 A 
ENDROOT
BRANCH  10  13
HETATM   13  C   UNL     1       6.512  27.118  57.160  1.00  0.00     0.273 C 
BRANCH  13  14
HETATM   14  N   UNL     1       6.375  26.731  55.696  1.00  0.00    -0.067 N 
HETATM   15  H   UNL     1       5.850  27.489  55.240  1.00  0.00     0.280 HD
HETATM   16  C   UNL     1       7.701  26.615  54.977  1.00  0.00     0.238 C 
HETATM   17  C   UNL     1       7.459  26.266  53.520  1.00  0.00     0.071 C 
HETATM   18  C   UNL     1       6.728  24.917  53.369  1.00  0.00     0.089 C 
HETATM   19  C   UNL     1       5.383  25.066  54.110  1.00  0.00     0.071 C 
HETATM   20  C   UNL     1       5.544  25.470  55.568  1.00  0.00     0.238 C 
BRANCH  18  21
HETATM   21  O   UNL     1       6.408  24.785  51.984  1.00  0.00    -0.385 OA
HETATM   22  H   UNL     1       5.928  25.577  51.672  1.00  0.00     0.211 HD
ENDBRANCH  18  21
BRANCH  18  23
HETATM   23  C   UNL     1       7.598  23.733  53.775  1.00  0.00    -0.006 A 
HETATM   24  C   UNL     1       8.360  23.706  54.941  1.00  0.00     0.126 A 
HETATM   25  N   UNL     1       9.198  22.707  55.289  1.00  0.00    -0.272 NA
HETATM   26  C   UNL     1       9.235  21.620  54.492  1.00  0.00     0.116 A 
HETATM   27  C   UNL     1       8.476  21.503  53.345  1.00  0.00     0.020 A 
HETATM   28  C   UNL     1       7.649  22.567  52.990  1.00  0.00     0.013 A 
ENDBRANCH  18  23
ENDBRANCH  13  14
ENDBRANCH  10  13
BRANCH   1  29
HETATM   29  C   UNL     1       7.518  31.259  61.426  1.00  0.00     0.273 C 
BRANCH  29  30
HETATM   30  C   UNL     1       7.020  31.969  62.660  1.00  0.00    -0.033 A 
HETATM   31  C   UNL     1       5.657  32.007  62.985  1.00  0.00     0.010 A 
HETATM   32  C   UNL     1       5.222  32.696  64.122  1.00  0.00     0.018 A 
HETATM   33  C   UNL     1       6.138  33.339  64.963  1.00  0.00     0.039 A 
HETATM   34  C   UNL     1       7.503  33.272  64.662  1.00  0.00     0.018 A 
HETATM   35  C   UNL     1       7.939  32.590  63.523  1.00  0.00     0.010 A 
BRANCH  33  36
HETATM   36  C   UNL     1       5.615  34.075  66.147  1.00  0.00     0.292 C 
HETATM   37  O   UNL     1       4.486  34.529  66.199  1.00  0.00    -0.259 OA
BRANCH  36  38
HETATM   38  O   UNL     1       6.574  34.190  67.100  1.00  0.00    -0.323 OA
HETATM   39  C   UNL     1       6.093  34.708  68.344  1.00  0.00     0.213 C 
ENDBRANCH  36  38
ENDBRANCH  33  36
ENDBRANCH  29  30
ENDBRANCH   1  29
TORSDOF 8
ENDMDL
MODEL 5
REMARK VINA RESULT:      -9.5      1.711      2.717
REMARK  8 active torsions:
REMARK  status: ('A' for Active; 'I' for Inactive)
REMARK    1  A    between atoms: O_2  and  C_3 
REMARK    2  A    between atoms: C_3  and  C_4 
REMARK    3  A    between atoms: C_7  and  C_8 
REMARK    4  A    between atoms: C_8  and  N_9 
REMARK    5  A    between atoms: C_18  and  C_19 
REMARK    6  A    between atoms: C_19  and  N_20 
REMARK    7  A    between atoms: C_24  and  O_25 
REMARK    8  A    between atoms: C_24  and  C_26 
ROOT
HETATM    1  N   UNL     1       8.103  29.807  57.192  1.00  0.00    -0.061 N 
HETATM    2  H   UNL     1       7.562  29.655  56.334  1.00  0.00     0.280 HD
HETATM    3  C   UNL     1       7.464  31.021  57.830  1.00  0.00     0.276 C 
HETATM    4  C   UNL     1       7.952  31.365  59.209  1.00  0.00     0.002 A 
HETATM    5  C   UNL     1       9.293  31.685  59.425  1.00  0.00     0.076 A 
HETATM    6  O   UNL     1      10.177  31.756  58.385  1.00  0.00    -0.349 OA
HETATM    7  C   UNL     1      10.485  30.469  57.840  1.00  0.00     0.203 C 
HETATM    8  C   UNL     1       9.522  30.084  56.711  1.00  0.00     0.262 C 
HETATM    9  C   UNL     1       7.063  31.434  60.298  1.00  0.00     0.020 A 
HETATM   10  C   UNL     1       7.504  31.801  61.585  1.00  0.00    -0.032 A 
HETATM   11  C   UNL     1       8.863  32.087  61.772  1.00  0.00     0.011 A 
HETATM   12  C   UNL     1       9.747  32.052  60.689  1.00  0.00     0.038 A 
ENDROOT
BRANCH  10  13
HETATM   13  C   UNL     1       6.522  31.887  62.731  1.00  0.00     0.273 C 
BRANCH  13  14
HETATM   14  N   UNL     1       6.150  33.293  63.175  1.00  0.00    -0.067 N 
HETATM   15  H   UNL     1       6.883  33.597  63.829  1.00  0.00     0.280 HD
HETATM   16  C   UNL     1       6.121  34.294  62.042  1.00  0.00     0.238 C 
HETATM   17  C   UNL     1       5.781  35.669  62.589  1.00  0.00     0.071 C 
HETATM   18  C   UNL     1       4.395  35.689  63.262  1.00  0.00     0.089 C 
HETATM   19  C   UNL     1       4.454  34.661  64.411  1.00  0.00     0.071 C 
HETATM   20  C   UNL     1       4.845  33.265  63.945  1.00  0.00     0.238 C 
BRANCH  18  21
HETATM   21  O   UNL     1       4.266  36.969  63.880  1.00  0.00    -0.385 OA
HETATM   22  H   UNL     1       5.147  37.363  64.029  1.00  0.00     0.211 HD
ENDBRANCH  18  21
BRANCH  18  23
HETATM   23  C   UNL     1       3.257  35.522  62.262  1.00  0.00    -0.006 A 
HETATM   24  C   UNL     1       2.128  34.745  62.509  1.00  0.00     0.126 A 
HETATM   25  N   UNL     1       1.141  34.515  61.616  1.00  0.00    -0.272 NA
HETATM   26  C   UNL     1       1.216  35.152  60.430  1.00  0.00     0.116 A 
HETATM   27  C   UNL     1       2.253  36.000  60.096  1.00  0.00     0.020 A 
HETATM   28  C   UNL     1       3.276  36.187  61.023  1.00  0.00     0.013 A 
ENDBRANCH  18  23
ENDBRANCH  13  14
ENDBRANCH  10  13
BRANCH   1  29
HETATM   29  C   UNL     1       7.986  28.506  57.959  1.00  0.00     0.273 C 
BRANCH  29  30
HETATM   30  C   UNL     1       7.775  27.274  57.114  1.00  0.00    -0.033 A 
HETATM   31  C   UNL     1       7.010  27.311  55.940  1.00  0.00     0.010 A 
HETATM   32  C   UNL     1       6.810  26.147  55.191  1.00  0.00     0.018 A 
HETATM   33  C   UNL     1       7.386  24.933  55.588  1.00  0.00     0.039 A 
HETATM   34  C   UNL     1       8.181  24.900  56.739  1.00  0.00     0.018 A 
HETATM   35  C   UNL     1       8.375  26.061  57.492  1.00  0.00     0.010 A 
BRANCH  33  36
HETATM   36  C   UNL     1       7.120  23.722  54.764  1.00  0.00     0.292 C 
HETATM   37  O   UNL     1       7.238  22.588  55.195  1.00  0.00    -0.259 OA
BRANCH  36  38
HETATM   38  O   UNL     1       6.780  24.070  53.498  1.00  0.00    -0.323 OA
HETATM   39  C   UNL     1       7.848  23.938  52.556  1.00  0.00     0.213 C 
ENDBRANCH  36  38
ENDBRANCH  33  36
ENDBRANCH  29  30
ENDBRANCH   1  29
TORSDOF 8
ENDMDL
MODEL 6
REMARK VINA RESULT:      -9.4      5.448     10.794
REMARK  8 active torsions:
REMARK  status: ('A' for Active; 'I' for Inactive)
REMARK    1  A    between atoms: O_2  and  C_3 
REMARK    2  A    between atoms: C_3  and  C_4 
REMARK    3  A    between atoms: C_7  and  C_8 
REMARK    4  A    between atoms: C_8  and  N_9 
REMARK    5  A    between atoms: C_18  and  C_19 
REMARK    6  A    between atoms: C_19  and  N_20 
REMARK    7  A    between atoms: C_24  and  O_25 
REMARK    8  A    between atoms: C_24  and  C_26 
ROOT
HETATM    1  N   UNL     1       8.265  27.934  56.957  1.00  0.00    -0.061 N 
HETATM    2  H   UNL     1       9.208  27.542  56.860  1.00  0.00     0.280 HD
HETATM    3  C   UNL     1       7.974  28.553  55.607  1.00  0.00     0.276 C 
HETATM    4  C   UNL     1       6.570  29.052  55.409  1.00  0.00     0.002 A 
HETATM    5  C   UNL     1       6.055  30.057  56.226  1.00  0.00     0.076 A 
HETATM    6  O   UNL     1       6.828  30.656  57.181  1.00  0.00    -0.349 OA
HETATM    7  C   UNL     1       7.107  29.786  58.284  1.00  0.00     0.203 C 
HETATM    8  C   UNL     1       8.390  28.978  58.059  1.00  0.00     0.262 C 
HETATM    9  C   UNL     1       5.769  28.564  54.359  1.00  0.00     0.020 A 
HETATM   10  C   UNL     1       4.468  29.059  54.137  1.00  0.00    -0.032 A 
HETATM   11  C   UNL     1       3.971  30.048  54.997  1.00  0.00     0.011 A 
HETATM   12  C   UNL     1       4.772  30.560  56.021  1.00  0.00     0.038 A 
ENDROOT
BRANCH  10  13
HETATM   13  C   UNL     1       3.638  28.530  52.989  1.00  0.00     0.273 C 
BRANCH  13  14
HETATM   14  N   UNL     1       3.791  29.272  51.670  1.00  0.00    -0.067 N 
HETATM   15  H   UNL     1       4.104  30.223  51.904  1.00  0.00     0.280 HD
HETATM   16  C   UNL     1       4.839  28.671  50.760  1.00  0.00     0.238 C 
HETATM   17  C   UNL     1       4.946  29.500  49.493  1.00  0.00     0.071 C 
HETATM   18  C   UNL     1       3.616  29.529  48.716  1.00  0.00     0.089 C 
HETATM   19  C   UNL     1       2.569  30.146  49.667  1.00  0.00     0.071 C 
HETATM   20  C   UNL     1       2.445  29.398  50.987  1.00  0.00     0.238 C 
BRANCH  18  21
HETATM   21  O   UNL     1       3.790  30.468  47.654  1.00  0.00    -0.385 OA
HETATM   22  H   UNL     1       3.085  31.143  47.681  1.00  0.00     0.211 HD
ENDBRANCH  18  21
BRANCH  18  23
HETATM   23  C   UNL     1       3.264  28.177  48.107  1.00  0.00    -0.006 A 
HETATM   24  C   UNL     1       4.213  27.201  47.809  1.00  0.00     0.126 A 
HETATM   25  N   UNL     1       3.943  26.027  47.200  1.00  0.00    -0.272 NA
HETATM   26  C   UNL     1       2.651  25.745  46.938  1.00  0.00     0.116 A 
HETATM   27  C   UNL     1       1.617  26.604  47.248  1.00  0.00     0.020 A 
HETATM   28  C   UNL     1       1.929  27.826  47.841  1.00  0.00     0.013 A 
ENDBRANCH  18  23
ENDBRANCH  13  14
ENDBRANCH  10  13
BRANCH   1  29
HETATM   29  C   UNL     1       7.398  26.758  57.357  1.00  0.00     0.273 C 
BRANCH  29  30
HETATM   30  C   UNL     1       7.595  25.503  56.544  1.00  0.00    -0.033 A 
HETATM   31  C   UNL     1       6.666  25.104  55.572  1.00  0.00     0.010 A 
HETATM   32  C   UNL     1       6.863  23.921  54.852  1.00  0.00     0.018 A 
HETATM   33  C   UNL     1       7.997  23.129  55.074  1.00  0.00     0.039 A 
HETATM   34  C   UNL     1       8.944  23.542  56.017  1.00  0.00     0.018 A 
HETATM   35  C   UNL     1       8.745  24.720  56.742  1.00  0.00     0.010 A 
BRANCH  33  36
HETATM   36  C   UNL     1       8.142  21.868  54.294  1.00  0.00     0.292 C 
HETATM   37  O   UNL     1       7.846  21.781  53.115  1.00  0.00    -0.259 OA
BRANCH  36  38
HETATM   38  O   UNL     1       8.598  20.867  55.086  1.00  0.00    -0.323 OA
HETATM   39  C   UNL     1       7.646  20.420  56.057  1.00  0.00     0.213 C 
ENDBRANCH  36  38
ENDBRANCH  33  36
ENDBRANCH  29  30
ENDBRANCH   1  29
TORSDOF 8
ENDMDL
MODEL 7
REMARK VINA RESULT:      -9.4      6.683     12.379
REMARK  8 active torsions:
REMARK  status: ('A' for Active; 'I' for Inactive)
REMARK    1  A    between atoms: O_2  and  C_3 
REMARK    2  A    between atoms: C_3  and  C_4 
REMARK    3  A    between atoms: C_7  and  C_8 
REMARK    4  A    between atoms: C_8  and  N_9 
REMARK    5  A    between atoms: C_18  and  C_19 
REMARK    6  A    between atoms: C_19  and  N_20 
REMARK    7  A    between atoms: C_24  and  O_25 
REMARK    8  A    between atoms: C_24  and  C_26 
ROOT
HETATM    1  N   UNL     1       4.744  31.388  49.676  1.00  0.00    -0.061 N 
HETATM    2  H   UNL     1       5.208  32.182  50.132  1.00  0.00     0.280 HD
HETATM    3  C   UNL     1       5.725  30.245  49.819  1.00  0.00     0.276 C 
HETATM    4  C   UNL     1       5.220  28.896  49.391  1.00  0.00     0.002 A 
HETATM    5  C   UNL     1       4.819  28.677  48.073  1.00  0.00     0.076 A 
HETATM    6  O   UNL     1       4.934  29.658  47.128  1.00  0.00    -0.349 OA
HETATM    7  C   UNL     1       3.995  30.720  47.325  1.00  0.00     0.203 C 
HETATM    8  C   UNL     1       4.565  31.822  48.227  1.00  0.00     0.262 C 
HETATM    9  C   UNL     1       5.200  27.811  50.287  1.00  0.00     0.020 A 
HETATM   10  C   UNL     1       4.771  26.530  49.881  1.00  0.00    -0.032 A 
HETATM   11  C   UNL     1       4.347  26.354  48.557  1.00  0.00     0.011 A 
HETATM   12  C   UNL     1       4.395  27.418  47.653  1.00  0.00     0.038 A 
ENDROOT
BRANCH  10  13
HETATM   13  C   UNL     1       4.779  25.379  50.861  1.00  0.00     0.273 C 
BRANCH  13  14
HETATM   14  N   UNL     1       5.570  25.609  52.139  1.00  0.00    -0.067 N 
HETATM   15  H   UNL     1       5.472  26.607  52.369  1.00  0.00     0.280 HD
HETATM   16  C   UNL     1       5.044  24.827  53.322  1.00  0.00     0.238 C 
HETATM   17  C   UNL     1       5.870  25.152  54.553  1.00  0.00     0.071 C 
HETATM   18  C   UNL     1       7.352  24.770  54.364  1.00  0.00     0.089 C 
HETATM   19  C   UNL     1       7.860  25.582  53.155  1.00  0.00     0.071 C 
HETATM   20  C   UNL     1       7.043  25.349  51.892  1.00  0.00     0.238 C 
BRANCH  18  21
HETATM   21  O   UNL     1       8.047  25.277  55.504  1.00  0.00    -0.385 OA
HETATM   22  H   UNL     1       7.621  24.965  56.326  1.00  0.00     0.211 HD
ENDBRANCH  18  21
BRANCH  18  23
HETATM   23  C   UNL     1       7.564  23.262  54.305  1.00  0.00    -0.006 A 
HETATM   24  C   UNL     1       7.406  22.422  55.405  1.00  0.00     0.126 A 
HETATM   25  N   UNL     1       7.661  21.096  55.405  1.00  0.00    -0.272 NA
HETATM   26  C   UNL     1       8.013  20.532  54.232  1.00  0.00     0.116 A 
HETATM   27  C   UNL     1       8.138  21.250  53.060  1.00  0.00     0.020 A 
HETATM   28  C   UNL     1       7.906  22.624  53.100  1.00  0.00     0.013 A 
ENDBRANCH  18  23
ENDBRANCH  13  14
ENDBRANCH  10  13
BRANCH   1  29
HETATM   29  C   UNL     1       3.427  31.238  50.412  1.00  0.00     0.273 C 
BRANCH  29  30
HETATM   30  C   UNL     1       3.524  31.241  51.917  1.00  0.00    -0.033 A 
HETATM   31  C   UNL     1       3.708  32.429  52.638  1.00  0.00     0.010 A 
HETATM   32  C   UNL     1       3.820  32.397  54.032  1.00  0.00     0.018 A 
HETATM   33  C   UNL     1       3.729  31.187  54.730  1.00  0.00     0.039 A 
HETATM   34  C   UNL     1       3.508  30.003  54.016  1.00  0.00     0.018 A 
HETATM   35  C   UNL     1       3.403  30.032  52.624  1.00  0.00     0.010 A 
BRANCH  33  36
HETATM   36  C   UNL     1       3.878  31.211  56.212  1.00  0.00     0.292 C 
HETATM   37  O   UNL     1       2.957  31.470  56.966  1.00  0.00    -0.259 OA
BRANCH  36  38
HETATM   38  O   UNL     1       5.160  30.950  56.567  1.00  0.00    -0.323 OA
HETATM   39  C   UNL     1       5.324  29.717  57.274  1.00  0.00     0.213 C 
ENDBRANCH  36  38
ENDBRANCH  33  36
ENDBRANCH  29  30
ENDBRANCH   1  29
TORSDOF 8
ENDMDL
MODEL 8
REMARK VINA RESULT:      -9.4      7.845     12.289
REMARK  8 active torsions:
REMARK  status: ('A' for Active; 'I' for Inactive)
REMARK    1  A    between atoms: O_2  and  C_3 
REMARK    2  A    between atoms: C_3  and  C_4 
REMARK    3  A    between atoms: C_7  and  C_8 
REMARK    4  A    between atoms: C_8  and  N_9 
REMARK    5  A    between atoms: C_18  and  C_19 
REMARK    6  A    between atoms: C_19  and  N_20 
REMARK    7  A    between atoms: C_24  and  O_25 
REMARK    8  A    between atoms: C_24  and  C_26 
ROOT
HETATM    1  N   UNL     1       4.399  28.981  48.923  1.00  0.00    -0.061 N 
HETATM    2  H   UNL     1       4.622  29.825  48.384  1.00  0.00     0.280 HD
HETATM    3  C   UNL     1       5.402  28.981  50.056  1.00  0.00     0.276 C 
HETATM    4  C   UNL     1       5.188  27.937  51.115  1.00  0.00     0.002 A 
HETATM    5  C   UNL     1       5.226  26.581  50.789  1.00  0.00     0.076 A 
HETATM    6  O   UNL     1       5.519  26.168  49.520  1.00  0.00    -0.349 OA
HETATM    7  C   UNL     1       4.462  26.447  48.596  1.00  0.00     0.203 C 
HETATM    8  C   UNL     1       4.620  27.829  47.951  1.00  0.00     0.262 C 
HETATM    9  C   UNL     1       5.009  28.298  52.464  1.00  0.00     0.020 A 
HETATM   10  C   UNL     1       4.854  27.323  53.471  1.00  0.00    -0.032 A 
HETATM   11  C   UNL     1       4.867  25.971  53.103  1.00  0.00     0.011 A 
HETATM   12  C   UNL     1       5.076  25.604  51.771  1.00  0.00     0.038 A 
ENDROOT
BRANCH  10  13
HETATM   13  C   UNL     1       4.684  27.741  54.914  1.00  0.00     0.273 C 
BRANCH  13  14
HETATM   14  N   UNL     1       5.617  27.067  55.908  1.00  0.00    -0.067 N 
HETATM   15  H   UNL     1       5.587  27.633  56.767  1.00  0.00     0.280 HD
HETATM   16  C   UNL     1       5.189  25.667  56.282  1.00  0.00     0.238 C 
HETATM   17  C   UNL     1       6.156  25.097  57.304  1.00  0.00     0.071 C 
HETATM   18  C   UNL     1       7.591  25.011  56.747  1.00  0.00     0.089 C 
HETATM   19  C   UNL     1       7.999  26.452  56.375  1.00  0.00     0.071 C 
HETATM   20  C   UNL     1       7.042  27.111  55.392  1.00  0.00     0.238 C 
BRANCH  18  21
HETATM   21  O   UNL     1       8.426  24.630  57.840  1.00  0.00    -0.385 OA
HETATM   22  H   UNL     1       8.271  23.694  58.073  1.00  0.00     0.211 HD
ENDBRANCH  18  21
BRANCH  18  23
HETATM   23  C   UNL     1       7.730  23.963  55.649  1.00  0.00    -0.006 A 
HETATM   24  C   UNL     1       7.626  22.593  55.881  1.00  0.00     0.126 A 
HETATM   25  N   UNL     1       7.821  21.637  54.947  1.00  0.00    -0.272 NA
HETATM   26  C   UNL     1       8.051  22.043  53.682  1.00  0.00     0.116 A 
HETATM   27  C   UNL     1       8.110  23.373  53.318  1.00  0.00     0.020 A 
HETATM   28  C   UNL     1       7.944  24.337  54.311  1.00  0.00     0.013 A 
ENDBRANCH  18  23
ENDBRANCH  13  14
ENDBRANCH  10  13
BRANCH   1  29
HETATM   29  C   UNL     1       2.944  29.148  49.315  1.00  0.00     0.273 C 
BRANCH  29  30
HETATM   30  C   UNL     1       1.945  28.901  48.213  1.00  0.00    -0.033 A 
HETATM   31  C   UNL     1       1.705  29.853  47.212  1.00  0.00     0.010 A 
HETATM   32  C   UNL     1       0.752  29.606  46.218  1.00  0.00     0.018 A 
HETATM   33  C   UNL     1       0.041  28.400  46.192  1.00  0.00     0.039 A 
HETATM   34  C   UNL     1       0.305  27.432  47.167  1.00  0.00     0.018 A 
HETATM   35  C   UNL     1       1.251  27.680  48.165  1.00  0.00     0.010 A 
BRANCH  33  36
HETATM   36  C   UNL     1      -0.976  28.202  45.122  1.00  0.00     0.292 C 
HETATM   37  O   UNL     1      -1.943  28.931  44.984  1.00  0.00    -0.259 OA
BRANCH  36  38
HETATM   38  O   UNL     1      -0.686  27.101  44.386  1.00  0.00    -0.323 OA
HETATM   39  C   UNL     1      -1.001  27.236  42.996  1.00  0.00     0.213 C 
ENDBRANCH  36  38
ENDBRANCH  33  36
ENDBRANCH  29  30
ENDBRANCH   1  29
TORSDOF 8
ENDMDL
MODEL 9
REMARK VINA RESULT:      -9.4      6.151     12.587
REMARK  8 active torsions:
REMARK  status: ('A' for Active; 'I' for Inactive)
REMARK    1  A    between atoms: O_2  and  C_3 
REMARK    2  A    between atoms: C_3  and  C_4 
REMARK    3  A    between atoms: C_7  and  C_8 
REMARK    4  A    between atoms: C_8  and  N_9 
REMARK    5  A    between atoms: C_18  and  C_19 
REMARK    6  A    between atoms: C_19  and  N_20 
REMARK    7  A    between atoms: C_24  and  O_25 
REMARK    8  A    between atoms: C_24  and  C_26 
ROOT
HETATM    1  N   UNL     1       7.044  26.186  56.584  1.00  0.00    -0.061 N 
HETATM    2  H   UNL     1       6.891  26.452  57.564  1.00  0.00     0.280 HD
HETATM    3  C   UNL     1       5.672  26.277  55.952  1.00  0.00     0.276 C 
HETATM    4  C   UNL     1       5.631  26.110  54.459  1.00  0.00     0.002 A 
HETATM    5  C   UNL     1       6.066  24.924  53.868  1.00  0.00     0.076 A 
HETATM    6  O   UNL     1       6.478  23.866  54.630  1.00  0.00    -0.349 OA
HETATM    7  C   UNL     1       7.737  24.108  55.267  1.00  0.00     0.203 C 
HETATM    8  C   UNL     1       7.560  24.754  56.647  1.00  0.00     0.262 C 
HETATM    9  C   UNL     1       5.097  27.115  53.631  1.00  0.00     0.020 A 
HETATM   10  C   UNL     1       5.013  26.948  52.233  1.00  0.00    -0.032 A 
HETATM   11  C   UNL     1       5.487  25.755  51.671  1.00  0.00     0.011 A 
HETATM   12  C   UNL     1       5.988  24.739  52.490  1.00  0.00     0.038 A 
ENDROOT
BRANCH  10  13
HETATM   13  C   UNL     1       4.416  28.037  51.371  1.00  0.00     0.273 C 
BRANCH  13  14
HETATM   14  N   UNL     1       3.603  27.560  50.178  1.00  0.00    -0.067 N 
HETATM   15  H   UNL     1       3.276  26.612  50.406  1.00  0.00     0.280 HD
HETATM   16  C   UNL     1       2.374  28.400  49.912  1.00  0.00     0.238 C 
HETATM   17  C   UNL     1       1.611  27.824  48.733  1.00  0.00     0.071 C 
HETATM   18  C   UNL     1       2.462  27.823  47.447  1.00  0.00     0.089 C 
HETATM   19  C   UNL     1       3.704  26.960  47.749  1.00  0.00     0.071 C 
HETATM   20  C   UNL     1       4.493  27.446  48.957  1.00  0.00     0.238 C 
BRANCH  18  21
HETATM   21  O   UNL     1       1.709  27.109  46.467  1.00  0.00    -0.385 OA
HETATM   22  H   UNL     1       1.005  26.586  46.896  1.00  0.00     0.211 HD
ENDBRANCH  18  21
BRANCH  18  23
HETATM   23  C   UNL     1       2.725  29.229  46.920  1.00  0.00    -0.006 A 
HETATM   24  C   UNL     1       1.716  30.085  46.486  1.00  0.00     0.126 A 
HETATM   25  N   UNL     1       1.922  31.304  45.941  1.00  0.00    -0.272 NA
HETATM   26  C   UNL     1       3.192  31.756  45.893  1.00  0.00     0.116 A 
HETATM   27  C   UNL     1       4.268  31.025  46.354  1.00  0.00     0.020 A 
HETATM   28  C   UNL     1       4.028  29.754  46.874  1.00  0.00     0.013 A 
ENDBRANCH  18  23
ENDBRANCH  13  14
ENDBRANCH  10  13
BRANCH   1  29
HETATM   29  C   UNL     1       8.084  27.164  56.077  1.00  0.00     0.273 C 
BRANCH  29  30
HETATM   30  C   UNL     1       8.413  28.301  57.011  1.00  0.00    -0.033 A 
HETATM   31  C   UNL     1       9.658  28.944  56.975  1.00  0.00     0.010 A 
HETATM   32  C   UNL     1       9.944  29.979  57.872  1.00  0.00     0.018 A 
HETATM   33  C   UNL     1       8.989  30.401  58.806  1.00  0.00     0.039 A 
HETATM   34  C   UNL     1       7.732  29.785  58.821  1.00  0.00     0.018 A 
HETATM   35  C   UNL     1       7.448  28.748  57.930  1.00  0.00     0.010 A 
BRANCH  33  36
HETATM   36  C   UNL     1       9.358  31.491  59.751  1.00  0.00     0.292 C 
HETATM   37  O   UNL     1       9.466  32.655  59.409  1.00  0.00    -0.259 OA
BRANCH  36  38
HETATM   38  O   UNL     1       9.583  30.991  60.991  1.00  0.00    -0.323 OA
HETATM   39  C   UNL     1       8.746  31.558  62.004  1.00  0.00     0.213 C 
ENDBRANCH  36  38
ENDBRANCH  33  36
ENDBRANCH  29  30
ENDBRANCH   1  29
TORSDOF 8
ENDMDL
MODEL 10
REMARK VINA RESULT:      -9.3      1.636      2.328
REMARK  8 active torsions:
REMARK  status: ('A' for Active; 'I' for Inactive)
REMARK    1  A    between atoms: O_2  and  C_3 
REMARK    2  A    between atoms: C_3  and  C_4 
REMARK    3  A    between atoms: C_7  and  C_8 
REMARK    4  A    between atoms: C_8  and  N_9 
REMARK    5  A    between atoms: C_18  and  C_19 
REMARK    6  A    between atoms: C_19  and  N_20 
REMARK    7  A    between atoms: C_24  and  O_25 
REMARK    8  A    between atoms: C_24  and  C_26 
ROOT
HETATM    1  N   UNL     1       6.563  27.958  56.051  1.00  0.00    -0.061 N 
HETATM    2  H   UNL     1       5.655  27.751  55.620  1.00  0.00     0.280 HD
HETATM    3  C   UNL     1       6.431  29.384  56.541  1.00  0.00     0.276 C 
HETATM    4  C   UNL     1       7.568  29.892  57.381  1.00  0.00     0.002 A 
HETATM    5  C   UNL     1       8.859  29.960  56.857  1.00  0.00     0.076 A 
HETATM    6  O   UNL     1       9.110  29.628  55.555  1.00  0.00    -0.349 OA
HETATM    7  C   UNL     1       8.997  28.221  55.317  1.00  0.00     0.203 C 
HETATM    8  C   UNL     1       7.571  27.826  54.916  1.00  0.00     0.262 C 
HETATM    9  C   UNL     1       7.349  30.368  58.687  1.00  0.00     0.020 A 
HETATM   10  C   UNL     1       8.402  30.889  59.466  1.00  0.00    -0.032 A 
HETATM   11  C   UNL     1       9.692  30.915  58.918  1.00  0.00     0.011 A 
HETATM   12  C   UNL     1       9.912  30.473  57.610  1.00  0.00     0.038 A 
ENDROOT
BRANCH  10  13
HETATM   13  C   UNL     1       8.133  31.413  60.858  1.00  0.00     0.273 C 
BRANCH  13  14
HETATM   14  N   UNL     1       6.667  31.508  61.253  1.00  0.00    -0.067 N 
HETATM   15  H   UNL     1       6.240  30.604  61.011  1.00  0.00     0.280 HD
HETATM   16  C   UNL     1       6.456  31.717  62.736  1.00  0.00     0.238 C 
HETATM   17  C   UNL     1       4.968  31.758  63.035  1.00  0.00     0.071 C 
HETATM   18  C   UNL     1       4.269  32.917  62.297  1.00  0.00     0.089 C 
HETATM   19  C   UNL     1       4.501  32.677  60.791  1.00  0.00     0.071 C 
HETATM   20  C   UNL     1       5.974  32.569  60.422  1.00  0.00     0.238 C 
BRANCH  18  21
HETATM   21  O   UNL     1       2.869  32.747  62.516  1.00  0.00    -0.385 OA
HETATM   22  H   UNL     1       2.360  33.227  61.834  1.00  0.00     0.211 HD
ENDBRANCH  18  21
BRANCH  18  23
HETATM   23  C   UNL     1       4.677  34.283  62.836  1.00  0.00    -0.006 A 
HETATM   24  C   UNL     1       5.089  35.335  62.022  1.00  0.00     0.126 A 
HETATM   25  N   UNL     1       5.530  36.530  62.472  1.00  0.00    -0.272 NA
HETATM   26  C   UNL     1       5.487  36.746  63.803  1.00  0.00     0.116 A 
HETATM   27  C   UNL     1       5.035  35.803  64.703  1.00  0.00     0.020 A 
HETATM   28  C   UNL     1       4.624  34.566  64.212  1.00  0.00     0.013 A 
ENDBRANCH  18  23
ENDBRANCH  13  14
ENDBRANCH  10  13
BRANCH   1  29
HETATM   29  C   UNL     1       6.735  26.896  57.117  1.00  0.00     0.273 C 
BRANCH  29  30
HETATM   30  C   UNL     1       7.258  25.568  56.629  1.00  0.00    -0.033 A 
HETATM   31  C   UNL     1       6.551  24.799  55.694  1.00  0.00     0.010 A 
HETATM   32  C   UNL     1       7.049  23.559  55.279  1.00  0.00     0.018 A 
HETATM   33  C   UNL     1       8.268  23.076  55.773  1.00  0.00     0.039 A 
HETATM   34  C   UNL     1       8.994  23.858  56.678  1.00  0.00     0.018 A 
HETATM   35  C   UNL     1       8.495  25.093  57.099  1.00  0.00     0.010 A 
BRANCH  33  36
HETATM   36  C   UNL     1       8.737  21.740  55.313  1.00  0.00     0.292 C 
HETATM   37  O   UNL     1       8.942  20.812  56.076  1.00  0.00    -0.259 OA
BRANCH  36  38
HETATM   38  O   UNL     1       8.931  21.738  53.971  1.00  0.00    -0.323 OA
HETATM   39  C   UNL     1       8.325  20.628  53.302  1.00  0.00     0.213 C 
ENDBRANCH  36  38
ENDBRANCH  33  36
ENDBRANCH  29  30
ENDBRANCH   1  29
TORSDOF 8
ENDMDL
