MODEL 1
REMARK VINA RESULT:     -10.5      0.000      0.000
REMARK  7 active torsions:
REMARK  status: ('A' for Active; 'I' for Inactive)
REMARK    1  A    between atoms: C_7  and  C_8 
REMARK    2  A    between atoms: C_8  and  C_9 
REMARK       I    between atoms: C_9  and  N_10 
REMARK    3  A    between atoms: N_10  and  N_11 
REMARK       I    between atoms: N_11  and  C_12 
REMARK    4  A    between atoms: C_12  and  C_13 
REMARK    5  A    between atoms: C_23  and  O_24 
REMARK    6  A    between atoms: O_24  and  C_25 
REMARK    7  A    between atoms: C_25  and  C_26 
ROOT
HETATM    1  C   UNL     1       5.782  31.078  56.865  1.00  0.00     0.068 C 
HETATM    2  C   UNL     1       6.144  29.637  56.919  1.00  0.00     0.013 A 
HETATM    3  N   UNL     1       5.274  28.664  56.496  1.00  0.00    -0.359 N 
HETATM    4  H   UNL     1       4.347  28.830  56.127  1.00  0.00     0.166 HD
HETATM    5  C   UNL     1       5.839  27.419  56.634  1.00  0.00     0.043 A 
HETATM    6  C   UNL     1       7.110  27.601  57.171  1.00  0.00     0.002 A 
HETATM    7  C   UNL     1       7.298  29.009  57.362  1.00  0.00    -0.015 A 
HETATM    8  C   UNL     1       5.323  26.156  56.324  1.00  0.00     0.033 A 
HETATM    9  C   UNL     1       6.136  25.040  56.561  1.00  0.00     0.039 A 
HETATM   10  C   UNL     1       7.418  25.183  57.089  1.00  0.00     0.070 A 
HETATM   11  C   UNL     1       7.906  26.460  57.404  1.00  0.00     0.051 A 
ENDROOT
BRANCH   7  12
HETATM   12  C   UNL     1       8.517  29.674  57.926  1.00  0.00     0.146 C 
BRANCH  12  13
HETATM   13  C   UNL     1       8.212  30.755  58.947  1.00  0.00     0.240 C 
HETATM   14  N   UNL     1       7.569  30.340  60.098  1.00  0.00    -0.267 N 
HETATM   15  H   UNL     1       7.017  29.480  60.118  1.00  0.00     0.190 HD
HETATM   16  O   UNL     1       8.591  31.920  58.804  1.00  0.00    -0.272 OA
BRANCH  14  17
HETATM   17  N   UNL     1       7.184  31.338  61.009  1.00  0.00    -0.263 N 
HETATM   18  C   UNL     1       7.651  31.246  62.306  1.00  0.00     0.270 C 
HETATM   19  O   UNL     1       8.466  30.398  62.659  1.00  0.00    -0.266 OA
HETATM   20  H   UNL     1       6.324  31.828  60.767  1.00  0.00     0.190 HD
BRANCH  18  21
HETATM   21  C   UNL     1       7.098  32.221  63.286  1.00  0.00     0.036 A 
HETATM   22  C   UNL     1       5.710  32.325  63.397  1.00  0.00     0.036 A 
HETATM   23  C   UNL     1       5.194  33.225  64.309  1.00  0.00     0.117 A 
HETATM   24  N   UNL     1       5.957  34.005  65.105  1.00  0.00    -0.273 NA
HETATM   25  C   UNL     1       7.295  33.873  64.991  1.00  0.00     0.117 A 
HETATM   26  C   UNL     1       7.911  33.002  64.110  1.00  0.00     0.036 A 
ENDBRANCH  18  21
ENDBRANCH  14  17
ENDBRANCH  12  13
ENDBRANCH   7  12
BRANCH  10  27
HETATM   27  O   UNL     1       8.300  24.167  57.345  1.00  0.00    -0.347 OA
BRANCH  27  28
HETATM   28  C   UNL     1       9.254  23.859  56.327  1.00  0.00     0.214 C 
BRANCH  28  29
HETATM   29  C   UNL     1       8.764  22.729  55.446  1.00  0.00    -0.034 A 
HETATM   30  C   UNL     1       8.575  21.429  55.938  1.00  0.00     0.009 A 
HETATM   31  C   UNL     1       8.092  20.416  55.105  1.00  0.00     0.001 A 
HETATM   32  C   UNL     1       7.781  20.693  53.777  1.00  0.00     0.000 A 
HETATM   33  C   UNL     1       7.949  21.982  53.277  1.00  0.00     0.001 A 
HETATM   34  C   UNL     1       8.434  22.995  54.108  1.00  0.00     0.009 A 
ENDBRANCH  28  29
ENDBRANCH  27  28
ENDBRANCH  10  27
TORSDOF 7
ENDMDL
MODEL 2
REMARK VINA RESULT:     -10.4      2.733     11.086
REMARK  7 active torsions:
REMARK  status: ('A' for Active; 'I' for Inactive)
REMARK    1  A    between atoms: C_7  and  C_8 
REMARK    2  A    between atoms: C_8  and  C_9 
REMARK       I    between atoms: C_9  and  N_10 
REMARK    3  A    between atoms: N_10  and  N_11 
REMARK       I    between atoms: N_11  and  C_12 
REMARK    4  A    between atoms: C_12  and  C_13 
REMARK    5  A    between atoms: C_23  and  O_24 
REMARK    6  A    between atoms: O_24  and  C_25 
REMARK    7  A    between atoms: C_25  and  C_26 
ROOT
HETATM    1  C   UNL     1       9.588  28.932  54.663  1.00  0.00     0.068 C 
HETATM    2  C   UNL     1       9.368  29.444  56.041  1.00  0.00     0.013 A 
HETATM    3  N   UNL     1      10.188  30.396  56.591  1.00  0.00    -0.359 N 
HETATM    4  H   UNL     1      10.984  30.817  56.130  1.00  0.00     0.166 HD
HETATM    5  C   UNL     1       9.775  30.714  57.863  1.00  0.00     0.043 A 
HETATM    6  C   UNL     1       8.657  29.931  58.139  1.00  0.00     0.002 A 
HETATM    7  C   UNL     1       8.407  29.117  56.986  1.00  0.00    -0.015 A 
HETATM    8  C   UNL     1      10.304  31.628  58.780  1.00  0.00     0.033 A 
HETATM    9  C   UNL     1       9.663  31.756  60.020  1.00  0.00     0.039 A 
HETATM   10  C   UNL     1       8.536  30.997  60.330  1.00  0.00     0.070 A 
HETATM   11  C   UNL     1       8.035  30.077  59.397  1.00  0.00     0.051 A 
ENDROOT
BRANCH   7  12
HETATM   12  C   UNL     1       7.306  28.111  56.831  1.00  0.00     0.146 C 
BRANCH  12  13
HETATM   13  C   UNL     1       7.793  26.677  56.740  1.00  0.00     0.240 C 
HETATM   14  N   UNL     1       7.544  26.025  55.547  1.00  0.00    -0.267 N 
HETATM   15  H   UNL     1       6.791  26.326  54.924  1.00  0.00     0.190 HD
HETATM   16  O   UNL     1       8.451  26.147  57.640  1.00  0.00    -0.272 OA
BRANCH  14  17
HETATM   17  N   UNL     1       7.892  24.665  55.477  1.00  0.00    -0.263 N 
HETATM   18  C   UNL     1       8.079  24.108  54.227  1.00  0.00     0.270 C 
HETATM   19  O   UNL     1       8.058  24.772  53.194  1.00  0.00    -0.266 OA
HETATM   20  H   UNL     1       7.627  24.115  56.291  1.00  0.00     0.190 HD
BRANCH  18  21
HETATM   21  C   UNL     1       8.286  22.635  54.176  1.00  0.00     0.036 A 
HETATM   22  C   UNL     1       8.794  22.003  55.312  1.00  0.00     0.036 A 
HETATM   23  C   UNL     1       8.983  20.635  55.270  1.00  0.00     0.117 A 
HETATM   24  N   UNL     1       8.697  19.873  54.193  1.00  0.00    -0.273 NA
HETATM   25  C   UNL     1       8.190  20.505  53.113  1.00  0.00     0.117 A 
HETATM   26  C   UNL     1       7.964  21.869  53.054  1.00  0.00     0.036 A 
ENDBRANCH  18  21
ENDBRANCH  14  17
ENDBRANCH  12  13
ENDBRANCH   7  12
BRANCH  10  27
HETATM   27  O   UNL     1       7.826  31.053  61.499  1.00  0.00    -0.347 OA
BRANCH  27  28
HETATM   28  C   UNL     1       8.451  31.694  62.612  1.00  0.00     0.214 C 
BRANCH  28  29
HETATM   29  C   UNL     1       7.598  32.833  63.133  1.00  0.00    -0.034 A 
HETATM   30  C   UNL     1       6.808  33.621  62.284  1.00  0.00     0.009 A 
HETATM   31  C   UNL     1       6.009  34.644  62.801  1.00  0.00     0.001 A 
HETATM   32  C   UNL     1       5.981  34.882  64.172  1.00  0.00     0.000 A 
HETATM   33  C   UNL     1       6.748  34.099  65.030  1.00  0.00     0.001 A 
HETATM   34  C   UNL     1       7.549  33.077  64.515  1.00  0.00     0.009 A 
ENDBRANCH  28  29
ENDBRANCH  27  28
ENDBRANCH  10  27
TORSDOF 7
ENDMDL
MODEL 3
REMARK VINA RESULT:     -10.0      4.324      8.589
REMARK  7 active torsions:
REMARK  status: ('A' for Active; 'I' for Inactive)
REMARK    1  A    between atoms: C_7  and  C_8 
REMARK    2  A    between atoms: C_8  and  C_9 
REMARK       I    between atoms: C_9  and  N_10 
REMARK    3  A    between atoms: N_10  and  N_11 
REMARK       I    between atoms: N_11  and  C_12 
REMARK    4  A    between atoms: C_12  and  C_13 
REMARK    5  A    between atoms: C_23  and  O_24 
REMARK    6  A    between atoms: O_24  and  C_25 
REMARK    7  A    between atoms: C_25  and  C_26 
ROOT
HETATM    1  C   UNL     1       5.597  31.341  57.167  1.00  0.00     0.068 C 
HETATM    2  C   UNL     1       5.961  29.915  56.958  1.00  0.00     0.013 A 
HETATM    3  N   UNL     1       7.178  29.420  57.355  1.00  0.00    -0.359 N 
HETATM    4  H   UNL     1       7.907  29.957  57.805  1.00  0.00     0.166 HD
HETATM    5  C   UNL     1       7.273  28.080  57.066  1.00  0.00     0.043 A 
HETATM    6  C   UNL     1       6.079  27.706  56.455  1.00  0.00     0.002 A 
HETATM    7  C   UNL     1       5.252  28.874  56.376  1.00  0.00    -0.015 A 
HETATM    8  C   UNL     1       8.317  27.179  57.299  1.00  0.00     0.033 A 
HETATM    9  C   UNL     1       8.133  25.847  56.904  1.00  0.00     0.039 A 
HETATM   10  C   UNL     1       6.948  25.433  56.298  1.00  0.00     0.070 A 
HETATM   11  C   UNL     1       5.922  26.360  56.063  1.00  0.00     0.051 A 
ENDROOT
BRANCH   7  12
HETATM   12  C   UNL     1       3.876  28.951  55.786  1.00  0.00     0.146 C 
BRANCH  12  13
HETATM   13  C   UNL     1       3.861  29.020  54.269  1.00  0.00     0.240 C 
HETATM   14  N   UNL     1       3.620  27.831  53.609  1.00  0.00    -0.267 N 
HETATM   15  H   UNL     1       3.801  26.929  54.055  1.00  0.00     0.190 HD
HETATM   16  O   UNL     1       3.969  30.088  53.659  1.00  0.00    -0.272 OA
BRANCH  14  17
HETATM   17  N   UNL     1       3.704  27.851  52.206  1.00  0.00    -0.263 N 
HETATM   18  C   UNL     1       4.702  27.106  51.607  1.00  0.00     0.270 C 
HETATM   19  O   UNL     1       5.439  26.354  52.238  1.00  0.00    -0.266 OA
HETATM   20  H   UNL     1       3.287  28.668  51.765  1.00  0.00     0.190 HD
BRANCH  18  21
HETATM   21  C   UNL     1       4.870  27.274  50.138  1.00  0.00     0.036 A 
HETATM   22  C   UNL     1       4.422  26.247  49.304  1.00  0.00     0.036 A 
HETATM   23  C   UNL     1       4.572  26.402  47.939  1.00  0.00     0.117 A 
HETATM   24  N   UNL     1       5.122  27.493  47.365  1.00  0.00    -0.273 NA
HETATM   25  C   UNL     1       5.531  28.479  48.192  1.00  0.00     0.117 A 
HETATM   26  C   UNL     1       5.426  28.422  49.571  1.00  0.00     0.036 A 
ENDBRANCH  18  21
ENDBRANCH  14  17
ENDBRANCH  12  13
ENDBRANCH   7  12
BRANCH  10  27
HETATM   27  O   UNL     1       6.658  24.159  55.887  1.00  0.00    -0.347 OA
BRANCH  27  28
HETATM   28  C   UNL     1       6.912  23.841  54.518  1.00  0.00     0.214 C 
BRANCH  28  29
HETATM   29  C   UNL     1       7.566  22.481  54.387  1.00  0.00    -0.034 A 
HETATM   30  C   UNL     1       7.830  21.672  55.502  1.00  0.00     0.009 A 
HETATM   31  C   UNL     1       8.407  20.409  55.343  1.00  0.00     0.001 A 
HETATM   32  C   UNL     1       8.715  19.936  54.071  1.00  0.00     0.000 A 
HETATM   33  C   UNL     1       8.446  20.722  52.953  1.00  0.00     0.001 A 
HETATM   34  C   UNL     1       7.871  21.985  53.110  1.00  0.00     0.009 A 
ENDBRANCH  28  29
ENDBRANCH  27  28
ENDBRANCH  10  27
TORSDOF 7
ENDMDL
MODEL 4
REMARK VINA RESULT:      -9.8      4.784      9.819
REMARK  7 active torsions:
REMARK  status: ('A' for Active; 'I' for Inactive)
REMARK    1  A    between atoms: C_7  and  C_8 
REMARK    2  A    between atoms: C_8  and  C_9 
REMARK       I    between atoms: C_9  and  N_10 
REMARK    3  A    between atoms: N_10  and  N_11 
REMARK       I    between atoms: N_11  and  C_12 
REMARK    4  A    between atoms: C_12  and  C_13 
REMARK    5  A    between atoms: C_23  and  O_24 
REMARK    6  A    between atoms: O_24  and  C_25 
REMARK    7  A    between atoms: C_25  and  C_26 
ROOT
HETATM    1  C   UNL     1       2.836  29.019  50.543  1.00  0.00     0.068 C 
HETATM    2  C   UNL     1       3.581  28.860  51.820  1.00  0.00     0.013 A 
HETATM    3  N   UNL     1       3.185  29.504  52.965  1.00  0.00    -0.359 N 
HETATM    4  H   UNL     1       2.387  30.120  53.042  1.00  0.00     0.166 HD
HETATM    5  C   UNL     1       4.022  29.190  54.010  1.00  0.00     0.043 A 
HETATM    6  C   UNL     1       4.991  28.322  53.513  1.00  0.00     0.002 A 
HETATM    7  C   UNL     1       4.717  28.123  52.121  1.00  0.00    -0.015 A 
HETATM    8  C   UNL     1       3.992  29.606  55.345  1.00  0.00     0.033 A 
HETATM    9  C   UNL     1       4.979  29.111  56.207  1.00  0.00     0.039 A 
HETATM   10  C   UNL     1       5.960  28.233  55.750  1.00  0.00     0.070 A 
HETATM   11  C   UNL     1       5.976  27.843  54.402  1.00  0.00     0.051 A 
ENDROOT
BRANCH   7  12
HETATM   12  C   UNL     1       5.505  27.270  51.173  1.00  0.00     0.146 C 
BRANCH  12  13
HETATM   13  C   UNL     1       5.754  25.860  51.677  1.00  0.00     0.240 C 
HETATM   14  N   UNL     1       7.077  25.507  51.869  1.00  0.00    -0.267 N 
HETATM   15  H   UNL     1       7.832  25.991  51.378  1.00  0.00     0.190 HD
HETATM   16  O   UNL     1       4.833  25.099  51.985  1.00  0.00    -0.272 OA
BRANCH  14  17
HETATM   17  N   UNL     1       7.337  24.176  52.235  1.00  0.00    -0.263 N 
HETATM   18  C   UNL     1       7.766  23.930  53.524  1.00  0.00     0.270 C 
HETATM   19  O   UNL     1       7.825  24.807  54.383  1.00  0.00    -0.266 OA
HETATM   20  H   UNL     1       7.546  23.553  51.457  1.00  0.00     0.190 HD
BRANCH  18  21
HETATM   21  C   UNL     1       8.188  22.537  53.835  1.00  0.00     0.036 A 
HETATM   22  C   UNL     1       7.942  21.548  52.881  1.00  0.00     0.036 A 
HETATM   23  C   UNL     1       8.337  20.254  53.164  1.00  0.00     0.117 A 
HETATM   24  N   UNL     1       8.954  19.894  54.309  1.00  0.00    -0.273 NA
HETATM   25  C   UNL     1       9.196  20.871  55.208  1.00  0.00     0.117 A 
HETATM   26  C   UNL     1       8.841  22.196  55.021  1.00  0.00     0.036 A 
ENDBRANCH  18  21
ENDBRANCH  14  17
ENDBRANCH  12  13
ENDBRANCH   7  12
BRANCH  10  27
HETATM   27  O   UNL     1       6.959  27.679  56.505  1.00  0.00    -0.347 OA
BRANCH  27  28
HETATM   28  C   UNL     1       7.226  28.278  57.774  1.00  0.00     0.214 C 
BRANCH  28  29
HETATM   29  C   UNL     1       8.447  29.173  57.708  1.00  0.00    -0.034 A 
HETATM   30  C   UNL     1       8.600  30.287  58.546  1.00  0.00     0.009 A 
HETATM   31  C   UNL     1       9.753  31.073  58.480  1.00  0.00     0.001 A 
HETATM   32  C   UNL     1      10.770  30.750  57.585  1.00  0.00     0.000 A 
HETATM   33  C   UNL     1      10.639  29.638  56.757  1.00  0.00     0.001 A 
HETATM   34  C   UNL     1       9.486  28.852  56.820  1.00  0.00     0.009 A 
ENDBRANCH  28  29
ENDBRANCH  27  28
ENDBRANCH  10  27
TORSDOF 7
ENDMDL
MODEL 5
REMARK VINA RESULT:      -9.3      3.118      4.497
REMARK  7 active torsions:
REMARK  status: ('A' for Active; 'I' for Inactive)
REMARK    1  A    between atoms: C_7  and  C_8 
REMARK    2  A    between atoms: C_8  and  C_9 
REMARK       I    between atoms: C_9  and  N_10 
REMARK    3  A    between atoms: N_10  and  N_11 
REMARK       I    between atoms: N_11  and  C_12 
REMARK    4  A    between atoms: C_12  and  C_13 
REMARK    5  A    between atoms: C_23  and  O_24 
REMARK    6  A    between atoms: O_24  and  C_25 
REMARK    7  A    between atoms: C_25  and  C_26 
ROOT
HETATM    1  C   UNL     1       3.388  30.987  52.871  1.00  0.00     0.068 C 
HETATM    2  C   UNL     1       3.918  29.601  52.772  1.00  0.00     0.013 A 
HETATM    3  N   UNL     1       4.278  29.056  51.566  1.00  0.00    -0.359 N 
HETATM    4  H   UNL     1       4.217  29.525  50.673  1.00  0.00     0.166 HD
HETATM    5  C   UNL     1       4.747  27.775  51.735  1.00  0.00     0.043 A 
HETATM    6  C   UNL     1       4.676  27.488  53.096  1.00  0.00     0.002 A 
HETATM    7  C   UNL     1       4.139  28.644  53.752  1.00  0.00    -0.015 A 
HETATM    8  C   UNL     1       5.225  26.859  50.793  1.00  0.00     0.033 A 
HETATM    9  C   UNL     1       5.655  25.608  51.256  1.00  0.00     0.039 A 
HETATM   10  C   UNL     1       5.609  25.287  52.612  1.00  0.00     0.070 A 
HETATM   11  C   UNL     1       5.112  26.220  53.534  1.00  0.00     0.051 A 
ENDROOT
BRANCH   7  12
HETATM   12  C   UNL     1       3.876  28.790  55.220  1.00  0.00     0.146 C 
BRANCH  12  13
HETATM   13  C   UNL     1       5.104  29.162  56.031  1.00  0.00     0.240 C 
HETATM   14  N   UNL     1       4.925  29.257  57.398  1.00  0.00    -0.267 N 
HETATM   15  H   UNL     1       4.002  29.432  57.802  1.00  0.00     0.190 HD
HETATM   16  O   UNL     1       6.219  29.285  55.515  1.00  0.00    -0.272 OA
BRANCH  14  17
HETATM   17  N   UNL     1       6.021  29.701  58.156  1.00  0.00    -0.263 N 
HETATM   18  C   UNL     1       6.056  31.031  58.528  1.00  0.00     0.270 C 
HETATM   19  O   UNL     1       5.125  31.804  58.316  1.00  0.00    -0.266 OA
HETATM   20  H   UNL     1       6.861  29.133  58.064  1.00  0.00     0.190 HD
BRANCH  18  21
HETATM   21  C   UNL     1       7.302  31.509  59.187  1.00  0.00     0.036 A 
HETATM   22  C   UNL     1       8.525  31.162  58.611  1.00  0.00     0.036 A 
HETATM   23  C   UNL     1       9.684  31.608  59.218  1.00  0.00     0.117 A 
HETATM   24  N   UNL     1       9.699  32.366  60.334  1.00  0.00    -0.273 NA
HETATM   25  C   UNL     1       8.503  32.703  60.863  1.00  0.00     0.117 A 
HETATM   26  C   UNL     1       7.287  32.308  60.332  1.00  0.00     0.036 A 
ENDBRANCH  18  21
ENDBRANCH  14  17
ENDBRANCH  12  13
ENDBRANCH   7  12
BRANCH  10  27
HETATM   27  O   UNL     1       6.016  24.106  53.173  1.00  0.00    -0.347 OA
BRANCH  27  28
HETATM   28  C   UNL     1       7.327  23.645  52.842  1.00  0.00     0.214 C 
BRANCH  28  29
HETATM   29  C   UNL     1       7.728  22.474  53.716  1.00  0.00    -0.034 A 
HETATM   30  C   UNL     1       7.549  22.488  55.107  1.00  0.00     0.009 A 
HETATM   31  C   UNL     1       7.902  21.379  55.881  1.00  0.00     0.001 A 
HETATM   32  C   UNL     1       8.425  20.241  55.273  1.00  0.00     0.000 A 
HETATM   33  C   UNL     1       8.595  20.206  53.891  1.00  0.00     0.001 A 
HETATM   34  C   UNL     1       8.245  21.315  53.117  1.00  0.00     0.009 A 
ENDBRANCH  28  29
ENDBRANCH  27  28
ENDBRANCH  10  27
TORSDOF 7
ENDMDL
MODEL 6
REMARK VINA RESULT:      -9.1      2.338     11.000
REMARK  7 active torsions:
REMARK  status: ('A' for Active; 'I' for Inactive)
REMARK    1  A    between atoms: C_7  and  C_8 
REMARK    2  A    between atoms: C_8  and  C_9 
REMARK       I    between atoms: C_9  and  N_10 
REMARK    3  A    between atoms: N_10  and  N_11 
REMARK       I    between atoms: N_11  and  C_12 
REMARK    4  A    between atoms: C_12  and  C_13 
REMARK    5  A    between atoms: C_23  and  O_24 
REMARK    6  A    between atoms: O_24  and  C_25 
REMARK    7  A    between atoms: C_25  and  C_26 
ROOT
HETATM    1  C   UNL     1       9.494  29.773  57.600  1.00  0.00     0.068 C 
HETATM    2  C   UNL     1       8.828  30.486  58.722  1.00  0.00     0.013 A 
HETATM    3  N   UNL     1       9.469  30.700  59.916  1.00  0.00    -0.359 N 
HETATM    4  H   UNL     1      10.411  30.404  60.133  1.00  0.00     0.166 HD
HETATM    5  C   UNL     1       8.656  31.387  60.785  1.00  0.00     0.043 A 
HETATM    6  C   UNL     1       7.450  31.612  60.127  1.00  0.00     0.002 A 
HETATM    7  C   UNL     1       7.556  31.030  58.822  1.00  0.00    -0.015 A 
HETATM    8  C   UNL     1       8.897  31.822  62.092  1.00  0.00     0.033 A 
HETATM    9  C   UNL     1       7.875  32.521  62.748  1.00  0.00     0.039 A 
HETATM   10  C   UNL     1       6.657  32.774  62.119  1.00  0.00     0.070 A 
HETATM   11  C   UNL     1       6.436  32.314  60.813  1.00  0.00     0.051 A 
ENDROOT
BRANCH   7  12
HETATM   12  C   UNL     1       6.494  31.020  57.763  1.00  0.00     0.146 C 
BRANCH  12  13
HETATM   13  C   UNL     1       6.415  29.721  56.983  1.00  0.00     0.240 C 
HETATM   14  N   UNL     1       5.993  28.611  57.691  1.00  0.00    -0.267 N 
HETATM   15  H   UNL     1       6.080  28.566  58.709  1.00  0.00     0.190 HD
HETATM   16  O   UNL     1       6.627  29.669  55.769  1.00  0.00    -0.272 OA
BRANCH  14  17
HETATM   17  N   UNL     1       6.011  27.378  57.018  1.00  0.00    -0.263 N 
HETATM   18  C   UNL     1       7.039  26.501  57.302  1.00  0.00     0.270 C 
HETATM   19  O   UNL     1       7.864  26.709  58.187  1.00  0.00    -0.266 OA
HETATM   20  H   UNL     1       5.507  27.369  56.133  1.00  0.00     0.190 HD
BRANCH  18  21
HETATM   21  C   UNL     1       7.125  25.277  56.459  1.00  0.00     0.036 A 
HETATM   22  C   UNL     1       6.485  25.287  55.218  1.00  0.00     0.036 A 
HETATM   23  C   UNL     1       6.567  24.154  54.431  1.00  0.00     0.117 A 
HETATM   24  N   UNL     1       7.238  23.040  54.792  1.00  0.00    -0.273 NA
HETATM   25  C   UNL     1       7.863  23.061  55.988  1.00  0.00     0.117 A 
HETATM   26  C   UNL     1       7.842  24.144  56.849  1.00  0.00     0.036 A 
ENDBRANCH  18  21
ENDBRANCH  14  17
ENDBRANCH  12  13
ENDBRANCH   7  12
BRANCH  10  27
HETATM   27  O   UNL     1       5.600  33.458  62.659  1.00  0.00    -0.347 OA
BRANCH  27  28
HETATM   28  C   UNL     1       5.007  32.914  63.840  1.00  0.00     0.214 C 
BRANCH  28  29
HETATM   29  C   UNL     1       4.758  33.997  64.871  1.00  0.00    -0.034 A 
HETATM   30  C   UNL     1       5.080  33.824  66.225  1.00  0.00     0.009 A 
HETATM   31  C   UNL     1       4.865  34.854  67.144  1.00  0.00     0.001 A 
HETATM   32  C   UNL     1       4.338  36.071  66.720  1.00  0.00     0.000 A 
HETATM   33  C   UNL     1       4.026  36.263  65.376  1.00  0.00     0.001 A 
HETATM   34  C   UNL     1       4.239  35.233  64.456  1.00  0.00     0.009 A 
ENDBRANCH  28  29
ENDBRANCH  27  28
ENDBRANCH  10  27
TORSDOF 7
ENDMDL
MODEL 7
REMARK VINA RESULT:      -8.8      2.134      2.702
REMARK  7 active torsions:
REMARK  status: ('A' for Active; 'I' for Inactive)
REMARK    1  A    between atoms: C_7  and  C_8 
REMARK    2  A    between atoms: C_8  and  C_9 
REMARK       I    between atoms: C_9  and  N_10 
REMARK    3  A    between atoms: N_10  and  N_11 
REMARK       I    between atoms: N_11  and  C_12 
REMARK    4  A    between atoms: C_12  and  C_13 
REMARK    5  A    between atoms: C_23  and  O_24 
REMARK    6  A    between atoms: O_24  and  C_25 
REMARK    7  A    between atoms: C_25  and  C_26 
ROOT
HETATM    1  C   UNL     1       4.984  32.050  55.386  1.00  0.00     0.068 C 
HETATM    2  C   UNL     1       5.002  30.611  55.012  1.00  0.00     0.013 A 
HETATM    3  N   UNL     1       4.158  30.110  54.053  1.00  0.00    -0.359 N 
HETATM    4  H   UNL     1       3.476  30.648  53.537  1.00  0.00     0.166 HD
HETATM    5  C   UNL     1       4.373  28.763  53.878  1.00  0.00     0.043 A 
HETATM    6  C   UNL     1       5.381  28.390  54.761  1.00  0.00     0.002 A 
HETATM    7  C   UNL     1       5.772  29.561  55.489  1.00  0.00    -0.015 A 
HETATM    8  C   UNL     1       3.754  27.858  53.009  1.00  0.00     0.033 A 
HETATM    9  C   UNL     1       4.187  26.526  53.036  1.00  0.00     0.039 A 
HETATM   10  C   UNL     1       5.200  26.115  53.900  1.00  0.00     0.070 A 
HETATM   11  C   UNL     1       5.794  27.040  54.771  1.00  0.00     0.051 A 
ENDROOT
BRANCH   7  12
HETATM   12  C   UNL     1       6.822  29.635  56.556  1.00  0.00     0.146 C 
BRANCH  12  13
HETATM   13  C   UNL     1       6.341  30.269  57.849  1.00  0.00     0.240 C 
HETATM   14  N   UNL     1       7.229  31.122  58.475  1.00  0.00    -0.267 N 
HETATM   15  H   UNL     1       8.236  31.057  58.308  1.00  0.00     0.190 HD
HETATM   16  O   UNL     1       5.194  30.106  58.274  1.00  0.00    -0.272 OA
BRANCH  14  17
HETATM   17  N   UNL     1       6.847  31.638  59.725  1.00  0.00    -0.263 N 
HETATM   18  C   UNL     1       7.748  32.439  60.398  1.00  0.00     0.270 C 
HETATM   19  O   UNL     1       8.813  32.801  59.905  1.00  0.00    -0.266 OA
HETATM   20  H   UNL     1       6.119  31.108  60.200  1.00  0.00     0.190 HD
BRANCH  18  21
HETATM   21  C   UNL     1       7.383  32.837  61.785  1.00  0.00     0.036 A 
HETATM   22  C   UNL     1       6.209  33.570  61.972  1.00  0.00     0.036 A 
HETATM   23  C   UNL     1       5.865  33.937  63.259  1.00  0.00     0.117 A 
HETATM   24  N   UNL     1       6.596  33.620  64.348  1.00  0.00    -0.273 NA
HETATM   25  C   UNL     1       7.717  32.895  64.144  1.00  0.00     0.117 A 
HETATM   26  C   UNL     1       8.149  32.479  62.896  1.00  0.00     0.036 A 
ENDBRANCH  18  21
ENDBRANCH  14  17
ENDBRANCH  12  13
ENDBRANCH   7  12
BRANCH  10  27
HETATM   27  O   UNL     1       5.709  24.847  53.998  1.00  0.00    -0.347 OA
BRANCH  27  28
HETATM   28  C   UNL     1       7.131  24.713  54.010  1.00  0.00     0.214 C 
BRANCH  28  29
HETATM   29  C   UNL     1       7.540  23.257  54.101  1.00  0.00    -0.034 A 
HETATM   30  C   UNL     1       7.724  22.463  52.960  1.00  0.00     0.009 A 
HETATM   31  C   UNL     1       8.131  21.132  53.078  1.00  0.00     0.001 A 
HETATM   32  C   UNL     1       8.371  20.583  54.335  1.00  0.00     0.000 A 
HETATM   33  C   UNL     1       8.207  21.363  55.477  1.00  0.00     0.001 A 
HETATM   34  C   UNL     1       7.798  22.694  55.360  1.00  0.00     0.009 A 
ENDBRANCH  28  29
ENDBRANCH  27  28
ENDBRANCH  10  27
TORSDOF 7
ENDMDL
MODEL 8
REMARK VINA RESULT:      -8.7      4.175      6.275
REMARK  7 active torsions:
REMARK  status: ('A' for Active; 'I' for Inactive)
REMARK    1  A    between atoms: C_7  and  C_8 
REMARK    2  A    between atoms: C_8  and  C_9 
REMARK       I    between atoms: C_9  and  N_10 
REMARK    3  A    between atoms: N_10  and  N_11 
REMARK       I    between atoms: N_11  and  C_12 
REMARK    4  A    between atoms: C_12  and  C_13 
REMARK    5  A    between atoms: C_23  and  O_24 
REMARK    6  A    between atoms: O_24  and  C_25 
REMARK    7  A    between atoms: C_25  and  C_26 
ROOT
HETATM    1  C   UNL     1       2.414  31.510  51.078  1.00  0.00     0.068 C 
HETATM    2  C   UNL     1       3.057  30.170  51.107  1.00  0.00     0.013 A 
HETATM    3  N   UNL     1       3.389  29.509  49.950  1.00  0.00    -0.359 N 
HETATM    4  H   UNL     1       3.231  29.858  49.015  1.00  0.00     0.166 HD
HETATM    5  C   UNL     1       3.979  28.301  50.236  1.00  0.00     0.043 A 
HETATM    6  C   UNL     1       4.018  28.181  51.622  1.00  0.00     0.002 A 
HETATM    7  C   UNL     1       3.423  29.362  52.174  1.00  0.00    -0.015 A 
HETATM    8  C   UNL     1       4.477  27.316  49.377  1.00  0.00     0.033 A 
HETATM    9  C   UNL     1       5.045  26.172  49.953  1.00  0.00     0.039 A 
HETATM   10  C   UNL     1       5.111  26.020  51.337  1.00  0.00     0.070 A 
HETATM   11  C   UNL     1       4.592  27.016  52.175  1.00  0.00     0.051 A 
ENDROOT
BRANCH   7  12
HETATM   12  C   UNL     1       3.240  29.668  53.630  1.00  0.00     0.146 C 
BRANCH  12  13
HETATM   13  C   UNL     1       4.472  30.253  54.295  1.00  0.00     0.240 C 
HETATM   14  N   UNL     1       5.398  29.342  54.768  1.00  0.00    -0.267 N 
HETATM   15  H   UNL     1       5.131  28.381  54.994  1.00  0.00     0.190 HD
HETATM   16  O   UNL     1       4.684  31.468  54.334  1.00  0.00    -0.272 OA
BRANCH  14  17
HETATM   17  N   UNL     1       6.495  29.857  55.479  1.00  0.00    -0.263 N 
HETATM   18  C   UNL     1       7.528  28.994  55.790  1.00  0.00     0.270 C 
HETATM   19  O   UNL     1       7.572  27.837  55.381  1.00  0.00    -0.266 OA
HETATM   20  H   UNL     1       6.296  30.696  56.021  1.00  0.00     0.190 HD
BRANCH  18  21
HETATM   21  C   UNL     1       8.596  29.524  56.680  1.00  0.00     0.036 A 
HETATM   22  C   UNL     1       9.896  29.596  56.176  1.00  0.00     0.036 A 
HETATM   23  C   UNL     1      10.890  30.092  56.999  1.00  0.00     0.117 A 
HETATM   24  N   UNL     1      10.673  30.517  58.261  1.00  0.00    -0.273 NA
HETATM   25  C   UNL     1       9.405  30.454  58.719  1.00  0.00     0.117 A 
HETATM   26  C   UNL     1       8.340  29.975  57.977  1.00  0.00     0.036 A 
ENDBRANCH  18  21
ENDBRANCH  14  17
ENDBRANCH  12  13
ENDBRANCH   7  12
BRANCH  10  27
HETATM   27  O   UNL     1       5.656  24.954  52.003  1.00  0.00    -0.347 OA
BRANCH  27  28
HETATM   28  C   UNL     1       6.538  25.245  53.088  1.00  0.00     0.214 C 
BRANCH  28  29
HETATM   29  C   UNL     1       7.144  23.976  53.652  1.00  0.00    -0.034 A 
HETATM   30  C   UNL     1       7.130  23.690  55.025  1.00  0.00     0.009 A 
HETATM   31  C   UNL     1       7.671  22.496  55.508  1.00  0.00     0.001 A 
HETATM   32  C   UNL     1       8.220  21.570  54.626  1.00  0.00     0.000 A 
HETATM   33  C   UNL     1       8.228  21.833  53.258  1.00  0.00     0.001 A 
HETATM   34  C   UNL     1       7.690  23.027  52.773  1.00  0.00     0.009 A 
ENDBRANCH  28  29
ENDBRANCH  27  28
ENDBRANCH  10  27
TORSDOF 7
ENDMDL
MODEL 9
REMARK VINA RESULT:      -8.6      3.054      4.228
REMARK  7 active torsions:
REMARK  status: ('A' for Active; 'I' for Inactive)
REMARK    1  A    between atoms: C_7  and  C_8 
REMARK    2  A    between atoms: C_8  and  C_9 
REMARK       I    between atoms: C_9  and  N_10 
REMARK    3  A    between atoms: N_10  and  N_11 
REMARK       I    between atoms: N_11  and  C_12 
REMARK    4  A    between atoms: C_12  and  C_13 
REMARK    5  A    between atoms: C_23  and  O_24 
REMARK    6  A    between atoms: O_24  and  C_25 
REMARK    7  A    between atoms: C_25  and  C_26 
ROOT
HETATM    1  C   UNL     1       3.308  33.035  54.787  1.00  0.00     0.068 C 
HETATM    2  C   UNL     1       3.684  31.662  54.359  1.00  0.00     0.013 A 
HETATM    3  N   UNL     1       4.203  31.417  53.113  1.00  0.00    -0.359 N 
HETATM    4  H   UNL     1       4.368  32.117  52.402  1.00  0.00     0.166 HD
HETATM    5  C   UNL     1       4.482  30.080  52.960  1.00  0.00     0.043 A 
HETATM    6  C   UNL     1       4.120  29.447  54.146  1.00  0.00     0.002 A 
HETATM    7  C   UNL     1       3.603  30.450  55.029  1.00  0.00    -0.015 A 
HETATM    8  C   UNL     1       5.023  29.391  51.869  1.00  0.00     0.033 A 
HETATM    9  C   UNL     1       5.211  28.009  51.997  1.00  0.00     0.039 A 
HETATM   10  C   UNL     1       4.870  27.340  53.171  1.00  0.00     0.070 A 
HETATM   11  C   UNL     1       4.316  28.053  54.245  1.00  0.00     0.051 A 
ENDROOT
BRANCH   7  12
HETATM   12  C   UNL     1       3.083  30.229  56.417  1.00  0.00     0.146 C 
BRANCH  12  13
HETATM   13  C   UNL     1       4.163  30.221  57.484  1.00  0.00     0.240 C 
HETATM   14  N   UNL     1       4.093  31.227  58.429  1.00  0.00    -0.267 N 
HETATM   15  H   UNL     1       3.604  32.104  58.236  1.00  0.00     0.190 HD
HETATM   16  O   UNL     1       5.004  29.321  57.561  1.00  0.00    -0.272 OA
BRANCH  14  17
HETATM   17  N   UNL     1       5.140  31.300  59.363  1.00  0.00    -0.263 N 
HETATM   18  C   UNL     1       6.145  32.220  59.138  1.00  0.00     0.270 C 
HETATM   19  O   UNL     1       6.104  33.039  58.223  1.00  0.00    -0.266 OA
HETATM   20  H   UNL     1       5.279  30.455  59.914  1.00  0.00     0.190 HD
BRANCH  18  21
HETATM   21  C   UNL     1       7.319  32.164  60.051  1.00  0.00     0.036 A 
HETATM   22  C   UNL     1       7.087  32.244  61.426  1.00  0.00     0.036 A 
HETATM   23  C   UNL     1       8.174  32.188  62.277  1.00  0.00     0.117 A 
HETATM   24  N   UNL     1       9.449  32.053  61.854  1.00  0.00    -0.273 NA
HETATM   25  C   UNL     1       9.646  31.960  60.522  1.00  0.00     0.117 A 
HETATM   26  C   UNL     1       8.626  32.005  59.587  1.00  0.00     0.036 A 
ENDBRANCH  18  21
ENDBRANCH  14  17
ENDBRANCH  12  13
ENDBRANCH   7  12
BRANCH  10  27
HETATM   27  O   UNL     1       5.025  26.000  53.408  1.00  0.00    -0.347 OA
BRANCH  27  28
HETATM   28  C   UNL     1       5.683  25.624  54.619  1.00  0.00     0.214 C 
BRANCH  28  29
HETATM   29  C   UNL     1       6.580  24.422  54.399  1.00  0.00    -0.034 A 
HETATM   30  C   UNL     1       7.070  23.654  55.466  1.00  0.00     0.009 A 
HETATM   31  C   UNL     1       7.870  22.534  55.227  1.00  0.00     0.001 A 
HETATM   32  C   UNL     1       8.178  22.161  53.922  1.00  0.00     0.000 A 
HETATM   33  C   UNL     1       7.687  22.904  52.852  1.00  0.00     0.001 A 
HETATM   34  C   UNL     1       6.889  24.026  53.089  1.00  0.00     0.009 A 
ENDBRANCH  28  29
ENDBRANCH  27  28
ENDBRANCH  10  27
TORSDOF 7
ENDMDL
MODEL 10
REMARK VINA RESULT:      -8.6      4.754      8.534
REMARK  7 active torsions:
REMARK  status: ('A' for Active; 'I' for Inactive)
REMARK    1  A    between atoms: C_7  and  C_8 
REMARK    2  A    between atoms: C_8  and  C_9 
REMARK       I    between atoms: C_9  and  N_10 
REMARK    3  A    between atoms: N_10  and  N_11 
REMARK       I    between atoms: N_11  and  C_12 
REMARK    4  A    between atoms: C_12  and  C_13 
REMARK    5  A    between atoms: C_23  and  O_24 
REMARK    6  A    between atoms: O_24  and  C_25 
REMARK    7  A    between atoms: C_25  and  C_26 
ROOT
HETATM    1  C   UNL     1       4.983  31.698  56.553  1.00  0.00     0.068 C 
HETATM    2  C   UNL     1       5.590  30.341  56.525  1.00  0.00     0.013 A 
HETATM    3  N   UNL     1       6.801  30.085  57.118  1.00  0.00    -0.359 N 
HETATM    4  H   UNL     1       7.367  30.767  57.606  1.00  0.00     0.166 HD
HETATM    5  C   UNL     1       7.142  28.762  56.969  1.00  0.00     0.043 A 
HETATM    6  C   UNL     1       6.119  28.153  56.248  1.00  0.00     0.002 A 
HETATM    7  C   UNL     1       5.140  29.159  55.956  1.00  0.00    -0.015 A 
HETATM    8  C   UNL     1       8.270  28.067  57.416  1.00  0.00     0.033 A 
HETATM    9  C   UNL     1       8.353  26.699  57.125  1.00  0.00     0.039 A 
HETATM   10  C   UNL     1       7.345  26.051  56.414  1.00  0.00     0.070 A 
HETATM   11  C   UNL     1       6.231  26.775  55.965  1.00  0.00     0.051 A 
ENDROOT
BRANCH   7  12
HETATM   12  C   UNL     1       3.867  28.964  55.190  1.00  0.00     0.146 C 
BRANCH  12  13
HETATM   13  C   UNL     1       4.054  28.935  53.684  1.00  0.00     0.240 C 
HETATM   14  N   UNL     1       5.138  29.635  53.192  1.00  0.00    -0.267 N 
HETATM   15  H   UNL     1       5.561  30.401  53.722  1.00  0.00     0.190 HD
HETATM   16  O   UNL     1       3.335  28.255  52.946  1.00  0.00    -0.272 OA
BRANCH  14  17
HETATM   17  N   UNL     1       5.271  29.708  51.795  1.00  0.00    -0.263 N 
HETATM   18  C   UNL     1       4.722  30.798  51.149  1.00  0.00     0.270 C 
HETATM   19  O   UNL     1       4.223  31.746  51.751  1.00  0.00    -0.266 OA
HETATM   20  H   UNL     1       5.423  28.813  51.334  1.00  0.00     0.190 HD
BRANCH  18  21
HETATM   21  C   UNL     1       4.734  30.769  49.661  1.00  0.00     0.036 A 
HETATM   22  C   UNL     1       4.502  29.548  49.025  1.00  0.00     0.036 A 
HETATM   23  C   UNL     1       4.508  29.518  47.644  1.00  0.00     0.117 A 
HETATM   24  N   UNL     1       4.720  30.606  46.873  1.00  0.00    -0.273 NA
HETATM   25  C   UNL     1       4.925  31.778  47.511  1.00  0.00     0.117 A 
HETATM   26  C   UNL     1       4.938  31.914  48.888  1.00  0.00     0.036 A 
ENDBRANCH  18  21
ENDBRANCH  14  17
ENDBRANCH  12  13
ENDBRANCH   7  12
BRANCH  10  27
HETATM   27  O   UNL     1       7.317  24.721  56.089  1.00  0.00    -0.347 OA
BRANCH  27  28
HETATM   28  C   UNL     1       7.235  24.390  54.702  1.00  0.00     0.214 C 
BRANCH  28  29
HETATM   29  C   UNL     1       7.581  22.933  54.469  1.00  0.00    -0.034 A 
HETATM   30  C   UNL     1       7.914  22.441  53.198  1.00  0.00     0.009 A 
HETATM   31  C   UNL     1       8.258  21.098  53.024  1.00  0.00     0.001 A 
HETATM   32  C   UNL     1       8.287  20.236  54.117  1.00  0.00     0.000 A 
HETATM   33  C   UNL     1       7.973  20.713  55.387  1.00  0.00     0.001 A 
HETATM   34  C   UNL     1       7.627  22.055  55.563  1.00  0.00     0.009 A 
ENDBRANCH  28  29
ENDBRANCH  27  28
ENDBRANCH  10  27
TORSDOF 7
ENDMDL
