MODEL 1
REMARK VINA RESULT:      -8.6      0.000      0.000
REMARK  4 active torsions:
REMARK  status: ('A' for Active; 'I' for Inactive)
REMARK    1  A    between atoms: O_2  and  C_3 
REMARK    2  A    between atoms: C_5  and  N_6 
REMARK    3  A    between atoms: C_10  and  C_11 
REMARK    4  A    between atoms: C_22  and  O_23 
ROOT
HETATM    1  N   UNL     1       6.202  26.848  55.979  1.00  0.00    -0.315 N 
HETATM    2  C   UNL     1       7.547  27.166  56.196  1.00  0.00     0.225 C 
HETATM    3  O   UNL     1       8.197  28.093  55.735  1.00  0.00    -0.273 OA
HETATM    4  C   UNL     1       8.075  26.246  57.270  1.00  0.00     0.117 C 
HETATM    5  C   UNL     1       7.085  25.085  57.273  1.00  0.00     0.082 C 
HETATM    6  C   UNL     1       5.788  25.738  56.806  1.00  0.00     0.145 C 
ENDROOT
BRANCH   1   7
HETATM    7  C   UNL     1       5.332  27.502  55.063  1.00  0.00     0.073 A 
HETATM    8  C   UNL     1       4.671  28.677  55.458  1.00  0.00     0.069 A 
HETATM    9  C   UNL     1       3.863  29.401  54.573  1.00  0.00     0.070 A 
HETATM   10  C   UNL     1       3.663  28.924  53.282  1.00  0.00     0.039 A 
HETATM   11  C   UNL     1       4.288  27.747  52.872  1.00  0.00     0.042 A 
HETATM   12  C   UNL     1       5.109  27.029  53.754  1.00  0.00     0.095 A 
BRANCH   9  13
HETATM   13  O   UNL     1       3.330  30.553  55.085  1.00  0.00    -0.356 OA
HETATM   14  C   UNL     1       3.189  30.614  56.498  1.00  0.00     0.210 C 
ENDBRANCH   9  13
BRANCH  12  15
HETATM   15  O   UNL     1       5.696  25.857  53.344  1.00  0.00    -0.354 OA
HETATM   16  C   UNL     1       4.763  24.921  52.799  1.00  0.00     0.210 C 
ENDBRANCH  12  15
ENDBRANCH   1   7
BRANCH   5  17
HETATM   17  C   UNL     1       7.560  23.985  56.371  1.00  0.00     0.111 A 
HETATM   18  N   UNL     1       8.151  22.866  56.736  1.00  0.00    -0.233 NA
HETATM   19  C   UNL     1       8.247  22.103  55.599  1.00  0.00     0.085 A 
HETATM   20  C   UNL     1       7.731  22.783  54.503  1.00  0.00     0.062 A 
HETATM   21  C   UNL     1       8.746  20.803  55.428  1.00  0.00     0.034 A 
HETATM   22  N   UNL     1       7.327  23.988  55.015  1.00  0.00    -0.342 N 
HETATM   23  C   UNL     1       7.677  22.237  53.217  1.00  0.00     0.032 A 
HETATM   24  H   UNL     1       6.877  24.726  54.492  1.00  0.00     0.167 HD
HETATM   25  C   UNL     1       8.171  20.936  53.067  1.00  0.00     0.002 A 
HETATM   26  C   UNL     1       8.698  20.228  54.151  1.00  0.00     0.002 A 
ENDBRANCH   5  17
TORSDOF 4
ENDMDL
MODEL 2
REMARK VINA RESULT:      -8.4      1.659      3.181
REMARK  4 active torsions:
REMARK  status: ('A' for Active; 'I' for Inactive)
REMARK    1  A    between atoms: O_2  and  C_3 
REMARK    2  A    between atoms: C_5  and  N_6 
REMARK    3  A    between atoms: C_10  and  C_11 
REMARK    4  A    between atoms: C_22  and  O_23 
ROOT
HETATM    1  N   UNL     1       6.366  26.931  53.783  1.00  0.00    -0.315 N 
HETATM    2  C   UNL     1       5.511  26.280  52.887  1.00  0.00     0.225 C 
HETATM    3  O   UNL     1       4.295  26.363  52.794  1.00  0.00    -0.273 OA
HETATM    4  C   UNL     1       6.365  25.540  51.884  1.00  0.00     0.117 C 
HETATM    5  C   UNL     1       7.718  25.421  52.577  1.00  0.00     0.082 C 
HETATM    6  C   UNL     1       7.750  26.648  53.483  1.00  0.00     0.145 C 
ENDROOT
BRANCH   1   7
HETATM    7  C   UNL     1       5.959  27.759  54.865  1.00  0.00     0.073 A 
HETATM    8  C   UNL     1       5.526  29.070  54.606  1.00  0.00     0.069 A 
HETATM    9  C   UNL     1       5.044  29.902  55.624  1.00  0.00     0.070 A 
HETATM   10  C   UNL     1       5.037  29.444  56.938  1.00  0.00     0.039 A 
HETATM   11  C   UNL     1       5.484  28.155  57.226  1.00  0.00     0.042 A 
HETATM   12  C   UNL     1       5.954  27.317  56.204  1.00  0.00     0.095 A 
BRANCH   9  13
HETATM   13  O   UNL     1       4.608  31.132  55.211  1.00  0.00    -0.356 OA
HETATM   14  C   UNL     1       3.267  31.206  54.745  1.00  0.00     0.210 C 
ENDBRANCH   9  13
BRANCH  12  15
HETATM   15  O   UNL     1       6.416  26.059  56.507  1.00  0.00    -0.354 OA
HETATM   16  C   UNL     1       5.388  25.175  56.958  1.00  0.00     0.210 C 
ENDBRANCH  12  15
ENDBRANCH   1   7
BRANCH   5  17
HETATM   17  C   UNL     1       7.816  24.124  53.323  1.00  0.00     0.111 A 
HETATM   18  N   UNL     1       7.808  22.913  52.805  1.00  0.00    -0.233 NA
HETATM   19  C   UNL     1       8.087  22.057  53.842  1.00  0.00     0.085 A 
HETATM   20  C   UNL     1       8.238  22.757  55.031  1.00  0.00     0.062 A 
HETATM   21  C   UNL     1       8.249  20.664  53.838  1.00  0.00     0.034 A 
HETATM   22  N   UNL     1       8.033  24.066  54.681  1.00  0.00    -0.342 N 
HETATM   23  C   UNL     1       8.550  22.143  56.248  1.00  0.00     0.032 A 
HETATM   24  H   UNL     1       8.094  24.857  55.307  1.00  0.00     0.167 HD
HETATM   25  C   UNL     1       8.717  20.754  56.224  1.00  0.00     0.002 A 
HETATM   26  C   UNL     1       8.570  20.023  55.042  1.00  0.00     0.002 A 
ENDBRANCH   5  17
TORSDOF 4
ENDMDL
MODEL 3
REMARK VINA RESULT:      -8.3      0.965      2.650
REMARK  4 active torsions:
REMARK  status: ('A' for Active; 'I' for Inactive)
REMARK    1  A    between atoms: O_2  and  C_3 
REMARK    2  A    between atoms: C_5  and  N_6 
REMARK    3  A    between atoms: C_10  and  C_11 
REMARK    4  A    between atoms: C_22  and  O_23 
ROOT
HETATM    1  N   UNL     1       6.106  26.856  55.738  1.00  0.00    -0.315 N 
HETATM    2  C   UNL     1       7.419  27.143  56.126  1.00  0.00     0.225 C 
HETATM    3  O   UNL     1       8.137  28.066  55.771  1.00  0.00    -0.273 OA
HETATM    4  C   UNL     1       7.795  26.188  57.234  1.00  0.00     0.117 C 
HETATM    5  C   UNL     1       6.793  25.047  57.087  1.00  0.00     0.082 C 
HETATM    6  C   UNL     1       5.574  25.737  56.481  1.00  0.00     0.145 C 
ENDROOT
BRANCH   1   7
HETATM    7  C   UNL     1       5.367  27.548  54.739  1.00  0.00     0.073 A 
HETATM    8  C   UNL     1       5.404  27.090  53.412  1.00  0.00     0.069 A 
HETATM    9  C   UNL     1       4.638  27.688  52.403  1.00  0.00     0.070 A 
HETATM   10  C   UNL     1       3.853  28.796  52.705  1.00  0.00     0.039 A 
HETATM   11  C   UNL     1       3.817  29.286  54.010  1.00  0.00     0.042 A 
HETATM   12  C   UNL     1       4.574  28.678  55.023  1.00  0.00     0.095 A 
BRANCH   9  13
HETATM   13  O   UNL     1       4.738  27.098  51.172  1.00  0.00    -0.356 OA
HETATM   14  C   UNL     1       5.472  25.883  51.108  1.00  0.00     0.210 C 
ENDBRANCH   9  13
BRANCH  12  15
HETATM   15  O   UNL     1       4.548  29.189  56.299  1.00  0.00    -0.354 OA
HETATM   16  C   UNL     1       5.347  30.363  56.451  1.00  0.00     0.210 C 
ENDBRANCH  12  15
ENDBRANCH   1   7
BRANCH   5  17
HETATM   17  C   UNL     1       7.355  23.959  56.224  1.00  0.00     0.111 A 
HETATM   18  N   UNL     1       8.050  22.914  56.625  1.00  0.00    -0.233 NA
HETATM   19  C   UNL     1       8.203  22.116  55.519  1.00  0.00     0.085 A 
HETATM   20  C   UNL     1       7.615  22.699  54.404  1.00  0.00     0.062 A 
HETATM   21  C   UNL     1       8.817  20.861  55.394  1.00  0.00     0.034 A 
HETATM   22  N   UNL     1       7.107  23.884  54.873  1.00  0.00    -0.342 N 
HETATM   23  C   UNL     1       7.596  22.098  53.143  1.00  0.00     0.032 A 
HETATM   24  H   UNL     1       6.586  24.554  54.327  1.00  0.00     0.167 HD
HETATM   25  C   UNL     1       8.205  20.842  53.039  1.00  0.00     0.002 A 
HETATM   26  C   UNL     1       8.807  20.230  54.142  1.00  0.00     0.002 A 
ENDBRANCH   5  17
TORSDOF 4
ENDMDL
MODEL 4
REMARK VINA RESULT:      -8.3      2.104      7.485
REMARK  4 active torsions:
REMARK  status: ('A' for Active; 'I' for Inactive)
REMARK    1  A    between atoms: O_2  and  C_3 
REMARK    2  A    between atoms: C_5  and  N_6 
REMARK    3  A    between atoms: C_10  and  C_11 
REMARK    4  A    between atoms: C_22  and  O_23 
ROOT
HETATM    1  N   UNL     1       6.430  24.598  53.203  1.00  0.00    -0.315 N 
HETATM    2  C   UNL     1       7.110  25.405  52.285  1.00  0.00     0.225 C 
HETATM    3  O   UNL     1       8.314  25.505  52.100  1.00  0.00    -0.273 OA
HETATM    4  C   UNL     1       6.083  26.054  51.387  1.00  0.00     0.117 C 
HETATM    5  C   UNL     1       4.785  25.944  52.181  1.00  0.00     0.082 C 
HETATM    6  C   UNL     1       5.000  24.687  53.019  1.00  0.00     0.145 C 
ENDROOT
BRANCH   1   7
HETATM    7  C   UNL     1       7.035  23.792  54.207  1.00  0.00     0.073 A 
HETATM    8  C   UNL     1       7.558  22.536  53.862  1.00  0.00     0.069 A 
HETATM    9  C   UNL     1       8.230  21.735  54.794  1.00  0.00     0.070 A 
HETATM   10  C   UNL     1       8.344  22.166  56.112  1.00  0.00     0.039 A 
HETATM   11  C   UNL     1       7.812  23.399  56.487  1.00  0.00     0.042 A 
HETATM   12  C   UNL     1       7.151  24.207  55.550  1.00  0.00     0.095 A 
BRANCH   9  13
HETATM   13  O   UNL     1       8.731  20.562  54.297  1.00  0.00    -0.356 OA
HETATM   14  C   UNL     1       8.478  20.295  52.924  1.00  0.00     0.210 C 
ENDBRANCH   9  13
BRANCH  12  15
HETATM   15  O   UNL     1       6.609  25.408  55.941  1.00  0.00    -0.354 OA
HETATM   16  C   UNL     1       5.741  25.292  57.070  1.00  0.00     0.210 C 
ENDBRANCH  12  15
ENDBRANCH   1   7
BRANCH   5  17
HETATM   17  C   UNL     1       4.563  27.180  53.001  1.00  0.00     0.111 A 
HETATM   18  N   UNL     1       4.173  28.358  52.561  1.00  0.00    -0.233 NA
HETATM   19  C   UNL     1       3.946  29.122  53.679  1.00  0.00     0.085 A 
HETATM   20  C   UNL     1       4.234  28.404  54.833  1.00  0.00     0.062 A 
HETATM   21  C   UNL     1       3.471  30.437  53.789  1.00  0.00     0.034 A 
HETATM   22  N   UNL     1       4.651  27.181  54.374  1.00  0.00    -0.342 N 
HETATM   23  C   UNL     1       4.072  28.924  56.120  1.00  0.00     0.032 A 
HETATM   24  H   UNL     1       4.917  26.398  54.953  1.00  0.00     0.167 HD
HETATM   25  C   UNL     1       3.588  30.235  56.210  1.00  0.00     0.002 A 
HETATM   26  C   UNL     1       3.292  30.982  55.067  1.00  0.00     0.002 A 
ENDBRANCH   5  17
TORSDOF 4
ENDMDL
MODEL 5
REMARK VINA RESULT:      -8.1      7.170     10.232
REMARK  4 active torsions:
REMARK  status: ('A' for Active; 'I' for Inactive)
REMARK    1  A    between atoms: O_2  and  C_3 
REMARK    2  A    between atoms: C_5  and  N_6 
REMARK    3  A    between atoms: C_10  and  C_11 
REMARK    4  A    between atoms: C_22  and  O_23 
ROOT
HETATM    1  N   UNL     1       4.905  33.023  62.020  1.00  0.00    -0.315 N 
HETATM    2  C   UNL     1       4.050  31.950  61.748  1.00  0.00     0.225 C 
HETATM    3  O   UNL     1       3.585  31.127  62.524  1.00  0.00    -0.273 OA
HETATM    4  C   UNL     1       3.622  32.051  60.303  1.00  0.00     0.117 C 
HETATM    5  C   UNL     1       4.681  32.952  59.673  1.00  0.00     0.082 C 
HETATM    6  C   UNL     1       5.125  33.827  60.841  1.00  0.00     0.145 C 
ENDROOT
BRANCH   1   7
HETATM    7  C   UNL     1       5.507  33.306  63.278  1.00  0.00     0.073 A 
HETATM    8  C   UNL     1       4.706  33.756  64.340  1.00  0.00     0.069 A 
HETATM    9  C   UNL     1       5.233  33.979  65.618  1.00  0.00     0.070 A 
HETATM   10  C   UNL     1       6.595  33.798  65.839  1.00  0.00     0.039 A 
HETATM   11  C   UNL     1       7.417  33.375  64.795  1.00  0.00     0.042 A 
HETATM   12  C   UNL     1       6.886  33.139  63.518  1.00  0.00     0.095 A 
BRANCH   9  13
HETATM   13  O   UNL     1       4.321  34.363  66.563  1.00  0.00    -0.356 OA
HETATM   14  C   UNL     1       3.462  35.441  66.215  1.00  0.00     0.210 C 
ENDBRANCH   9  13
BRANCH  12  15
HETATM   15  O   UNL     1       7.713  32.748  62.493  1.00  0.00    -0.354 OA
HETATM   16  C   UNL     1       8.076  31.367  62.559  1.00  0.00     0.210 C 
ENDBRANCH  12  15
ENDBRANCH   1   7
BRANCH   5  17
HETATM   17  C   UNL     1       5.789  32.131  59.085  1.00  0.00     0.111 A 
HETATM   18  N   UNL     1       7.080  32.377  59.164  1.00  0.00    -0.233 NA
HETATM   19  C   UNL     1       7.707  31.279  58.629  1.00  0.00     0.085 A 
HETATM   20  C   UNL     1       6.776  30.350  58.181  1.00  0.00     0.062 A 
HETATM   21  C   UNL     1       9.074  30.993  58.510  1.00  0.00     0.034 A 
HETATM   22  N   UNL     1       5.564  30.927  58.457  1.00  0.00    -0.342 N 
HETATM   23  C   UNL     1       7.130  29.123  57.611  1.00  0.00     0.032 A 
HETATM   24  H   UNL     1       4.662  30.508  58.282  1.00  0.00     0.167 HD
HETATM   25  C   UNL     1       8.499  28.851  57.509  1.00  0.00     0.002 A 
HETATM   26  C   UNL     1       9.458  29.767  57.949  1.00  0.00     0.002 A 
ENDBRANCH   5  17
TORSDOF 4
ENDMDL
MODEL 6
REMARK VINA RESULT:      -7.9      2.294      6.986
REMARK  4 active torsions:
REMARK  status: ('A' for Active; 'I' for Inactive)
REMARK    1  A    between atoms: O_2  and  C_3 
REMARK    2  A    between atoms: C_5  and  N_6 
REMARK    3  A    between atoms: C_10  and  C_11 
REMARK    4  A    between atoms: C_22  and  O_23 
ROOT
HETATM    1  N   UNL     1       6.575  24.780  53.523  1.00  0.00    -0.315 N 
HETATM    2  C   UNL     1       7.150  25.388  52.403  1.00  0.00     0.225 C 
HETATM    3  O   UNL     1       8.333  25.500  52.116  1.00  0.00    -0.273 OA
HETATM    4  C   UNL     1       6.035  25.767  51.457  1.00  0.00     0.117 C 
HETATM    5  C   UNL     1       4.794  25.781  52.345  1.00  0.00     0.082 C 
HETATM    6  C   UNL     1       5.134  24.759  53.425  1.00  0.00     0.145 C 
ENDROOT
BRANCH   1   7
HETATM    7  C   UNL     1       7.286  24.253  54.637  1.00  0.00     0.073 A 
HETATM    8  C   UNL     1       7.524  25.070  55.754  1.00  0.00     0.069 A 
HETATM    9  C   UNL     1       8.153  24.581  56.906  1.00  0.00     0.070 A 
HETATM   10  C   UNL     1       8.601  23.265  56.935  1.00  0.00     0.039 A 
HETATM   11  C   UNL     1       8.400  22.438  55.829  1.00  0.00     0.042 A 
HETATM   12  C   UNL     1       7.758  22.925  54.681  1.00  0.00     0.095 A 
BRANCH   9  13
HETATM   13  O   UNL     1       8.266  25.480  57.931  1.00  0.00    -0.356 OA
HETATM   14  C   UNL     1       7.618  26.732  57.753  1.00  0.00     0.210 C 
ENDBRANCH   9  13
BRANCH  12  15
HETATM   15  O   UNL     1       7.590  22.106  53.590  1.00  0.00    -0.354 OA
HETATM   16  C   UNL     1       7.844  20.729  53.876  1.00  0.00     0.210 C 
ENDBRANCH  12  15
ENDBRANCH   1   7
BRANCH   5  17
HETATM   17  C   UNL     1       4.544  27.158  52.881  1.00  0.00     0.111 A 
HETATM   18  N   UNL     1       4.221  28.229  52.185  1.00  0.00    -0.233 NA
HETATM   19  C   UNL     1       3.932  29.204  53.107  1.00  0.00     0.085 A 
HETATM   20  C   UNL     1       4.113  28.730  54.400  1.00  0.00     0.062 A 
HETATM   21  C   UNL     1       3.486  30.520  52.914  1.00  0.00     0.034 A 
HETATM   22  N   UNL     1       4.529  27.435  54.229  1.00  0.00    -0.342 N 
HETATM   23  C   UNL     1       3.869  29.500  55.541  1.00  0.00     0.032 A 
HETATM   24  H   UNL     1       4.730  26.782  54.972  1.00  0.00     0.167 HD
HETATM   25  C   UNL     1       3.415  30.808  55.328  1.00  0.00     0.002 A 
HETATM   26  C   UNL     1       3.226  31.313  54.039  1.00  0.00     0.002 A 
ENDBRANCH   5  17
TORSDOF 4
ENDMDL
MODEL 7
REMARK VINA RESULT:      -7.5      5.774      8.571
REMARK  4 active torsions:
REMARK  status: ('A' for Active; 'I' for Inactive)
REMARK    1  A    between atoms: O_2  and  C_3 
REMARK    2  A    between atoms: C_5  and  N_6 
REMARK    3  A    between atoms: C_10  and  C_11 
REMARK    4  A    between atoms: C_22  and  O_23 
ROOT
HETATM    1  N   UNL     1       5.534  32.501  60.390  1.00  0.00    -0.315 N 
HETATM    2  C   UNL     1       4.193  32.105  60.354  1.00  0.00     0.225 C 
HETATM    3  O   UNL     1       3.418  31.946  61.286  1.00  0.00    -0.273 OA
HETATM    4  C   UNL     1       3.762  32.053  58.907  1.00  0.00     0.117 C 
HETATM    5  C   UNL     1       5.078  31.962  58.140  1.00  0.00     0.082 C 
HETATM    6  C   UNL     1       6.061  32.682  59.057  1.00  0.00     0.145 C 
ENDROOT
BRANCH   1   7
HETATM    7  C   UNL     1       6.310  32.698  61.566  1.00  0.00     0.073 A 
HETATM    8  C   UNL     1       5.972  33.737  62.450  1.00  0.00     0.069 A 
HETATM    9  C   UNL     1       6.655  33.929  63.657  1.00  0.00     0.070 A 
HETATM   10  C   UNL     1       7.729  33.104  63.975  1.00  0.00     0.039 A 
HETATM   11  C   UNL     1       8.100  32.080  63.104  1.00  0.00     0.042 A 
HETATM   12  C   UNL     1       7.408  31.880  61.901  1.00  0.00     0.095 A 
BRANCH   9  13
HETATM   13  O   UNL     1       6.178  34.946  64.438  1.00  0.00    -0.356 OA
HETATM   14  C   UNL     1       5.486  35.991  63.766  1.00  0.00     0.210 C 
ENDBRANCH   9  13
BRANCH  12  15
HETATM   15  O   UNL     1       7.802  30.884  61.040  1.00  0.00    -0.354 OA
HETATM   16  C   UNL     1       9.210  30.876  60.796  1.00  0.00     0.210 C 
ENDBRANCH  12  15
ENDBRANCH   1   7
BRANCH   5  17
HETATM   17  C   UNL     1       5.439  30.530  57.880  1.00  0.00     0.111 A 
HETATM   18  N   UNL     1       4.686  29.619  57.301  1.00  0.00    -0.233 NA
HETATM   19  C   UNL     1       5.488  28.518  57.132  1.00  0.00     0.085 A 
HETATM   20  C   UNL     1       6.756  28.748  57.649  1.00  0.00     0.062 A 
HETATM   21  C   UNL     1       5.208  27.286  56.522  1.00  0.00     0.034 A 
HETATM   22  N   UNL     1       6.692  30.024  58.144  1.00  0.00    -0.342 N 
HETATM   23  C   UNL     1       7.789  27.808  57.594  1.00  0.00     0.032 A 
HETATM   24  H   UNL     1       7.456  30.525  58.574  1.00  0.00     0.167 HD
HETATM   25  C   UNL     1       7.494  26.588  56.974  1.00  0.00     0.002 A 
HETATM   26  C   UNL     1       6.226  26.327  56.447  1.00  0.00     0.002 A 
ENDBRANCH   5  17
TORSDOF 4
ENDMDL
MODEL 8
REMARK VINA RESULT:      -7.4      2.901      6.043
REMARK  4 active torsions:
REMARK  status: ('A' for Active; 'I' for Inactive)
REMARK    1  A    between atoms: O_2  and  C_3 
REMARK    2  A    between atoms: C_5  and  N_6 
REMARK    3  A    between atoms: C_10  and  C_11 
REMARK    4  A    between atoms: C_22  and  O_23 
ROOT
HETATM    1  N   UNL     1       6.355  25.490  54.400  1.00  0.00    -0.315 N 
HETATM    2  C   UNL     1       7.149  24.773  53.500  1.00  0.00     0.225 C 
HETATM    3  O   UNL     1       8.356  24.582  53.529  1.00  0.00    -0.273 OA
HETATM    4  C   UNL     1       6.233  24.089  52.514  1.00  0.00     0.117 C 
HETATM    5  C   UNL     1       4.928  24.872  52.627  1.00  0.00     0.082 C 
HETATM    6  C   UNL     1       4.954  25.376  54.067  1.00  0.00     0.145 C 
ENDROOT
BRANCH   1   7
HETATM    7  C   UNL     1       6.832  26.253  55.502  1.00  0.00     0.073 A 
HETATM    8  C   UNL     1       6.877  27.653  55.405  1.00  0.00     0.069 A 
HETATM    9  C   UNL     1       7.267  28.455  56.485  1.00  0.00     0.070 A 
HETATM   10  C   UNL     1       7.670  27.855  57.674  1.00  0.00     0.039 A 
HETATM   11  C   UNL     1       7.658  26.466  57.789  1.00  0.00     0.042 A 
HETATM   12  C   UNL     1       7.254  25.663  56.712  1.00  0.00     0.095 A 
BRANCH   9  13
HETATM   13  O   UNL     1       7.210  29.803  56.257  1.00  0.00    -0.356 OA
HETATM   14  C   UNL     1       5.918  30.397  56.283  1.00  0.00     0.210 C 
ENDBRANCH   9  13
BRANCH  12  15
HETATM   15  O   UNL     1       7.272  24.294  56.832  1.00  0.00    -0.354 OA
HETATM   16  C   UNL     1       8.585  23.765  57.030  1.00  0.00     0.210 C 
ENDBRANCH  12  15
ENDBRANCH   1   7
BRANCH   5  17
HETATM   17  C   UNL     1       4.882  25.971  51.608  1.00  0.00     0.111 A 
HETATM   18  N   UNL     1       5.225  27.230  51.790  1.00  0.00    -0.233 NA
HETATM   19  C   UNL     1       5.178  27.816  50.550  1.00  0.00     0.085 A 
HETATM   20  C   UNL     1       4.765  26.903  49.588  1.00  0.00     0.062 A 
HETATM   21  C   UNL     1       5.496  29.126  50.162  1.00  0.00     0.034 A 
HETATM   22  N   UNL     1       4.557  25.745  50.291  1.00  0.00    -0.342 N 
HETATM   23  C   UNL     1       4.649  27.218  48.231  1.00  0.00     0.032 A 
HETATM   24  H   UNL     1       4.272  24.862  49.892  1.00  0.00     0.167 HD
HETATM   25  C   UNL     1       4.979  28.528  47.862  1.00  0.00     0.002 A 
HETATM   26  C   UNL     1       5.395  29.468  48.807  1.00  0.00     0.002 A 
ENDBRANCH   5  17
TORSDOF 4
ENDMDL
MODEL 9
REMARK VINA RESULT:      -7.3      2.316      7.223
REMARK  4 active torsions:
REMARK  status: ('A' for Active; 'I' for Inactive)
REMARK    1  A    between atoms: O_2  and  C_3 
REMARK    2  A    between atoms: C_5  and  N_6 
REMARK    3  A    between atoms: C_10  and  C_11 
REMARK    4  A    between atoms: C_22  and  O_23 
ROOT
HETATM    1  N   UNL     1       7.410  27.106  55.377  1.00  0.00    -0.315 N 
HETATM    2  C   UNL     1       7.545  26.854  56.746  1.00  0.00     0.225 C 
HETATM    3  O   UNL     1       7.230  25.853  57.374  1.00  0.00    -0.273 OA
HETATM    4  C   UNL     1       8.330  27.992  57.353  1.00  0.00     0.117 C 
HETATM    5  C   UNL     1       8.186  29.117  56.333  1.00  0.00     0.082 C 
HETATM    6  C   UNL     1       8.015  28.367  55.016  1.00  0.00     0.145 C 
ENDROOT
BRANCH   1   7
HETATM    7  C   UNL     1       6.757  26.260  54.438  1.00  0.00     0.073 A 
HETATM    8  C   UNL     1       7.427  25.127  53.948  1.00  0.00     0.069 A 
HETATM    9  C   UNL     1       6.805  24.221  53.080  1.00  0.00     0.070 A 
HETATM   10  C   UNL     1       5.506  24.468  52.648  1.00  0.00     0.039 A 
HETATM   11  C   UNL     1       4.827  25.599  53.100  1.00  0.00     0.042 A 
HETATM   12  C   UNL     1       5.445  26.499  53.980  1.00  0.00     0.095 A 
BRANCH   9  13
HETATM   13  O   UNL     1       7.564  23.137  52.731  1.00  0.00    -0.356 OA
HETATM   14  C   UNL     1       8.465  22.650  53.717  1.00  0.00     0.210 C 
ENDBRANCH   9  13
BRANCH  12  15
HETATM   15  O   UNL     1       4.773  27.623  54.396  1.00  0.00    -0.354 OA
HETATM   16  C   UNL     1       3.850  28.118  53.423  1.00  0.00     0.210 C 
ENDBRANCH  12  15
ENDBRANCH   1   7
BRANCH   5  17
HETATM   17  C   UNL     1       7.021  29.996  56.678  1.00  0.00     0.111 A 
HETATM   18  N   UNL     1       6.858  30.691  57.785  1.00  0.00    -0.233 NA
HETATM   19  C   UNL     1       5.741  31.463  57.584  1.00  0.00     0.085 A 
HETATM   20  C   UNL     1       5.187  31.213  56.335  1.00  0.00     0.062 A 
HETATM   21  C   UNL     1       5.149  32.422  58.418  1.00  0.00     0.034 A 
HETATM   22  N   UNL     1       6.003  30.256  55.790  1.00  0.00    -0.342 N 
HETATM   23  C   UNL     1       4.055  31.875  55.851  1.00  0.00     0.032 A 
HETATM   24  H   UNL     1       5.904  29.858  54.867  1.00  0.00     0.167 HD
HETATM   25  C   UNL     1       3.483  32.835  56.694  1.00  0.00     0.002 A 
HETATM   26  C   UNL     1       4.017  33.107  57.957  1.00  0.00     0.002 A 
ENDBRANCH   5  17
TORSDOF 4
ENDMDL
MODEL 10
REMARK VINA RESULT:      -7.2      4.898      7.530
REMARK  4 active torsions:
REMARK  status: ('A' for Active; 'I' for Inactive)
REMARK    1  A    between atoms: O_2  and  C_3 
REMARK    2  A    between atoms: C_5  and  N_6 
REMARK    3  A    between atoms: C_10  and  C_11 
REMARK    4  A    between atoms: C_22  and  O_23 
ROOT
HETATM    1  N   UNL     1       8.575  30.760  59.158  1.00  0.00    -0.315 N 
HETATM    2  C   UNL     1       9.593  31.177  58.295  1.00  0.00     0.225 C 
HETATM    3  O   UNL     1      10.117  32.278  58.207  1.00  0.00    -0.273 OA
HETATM    4  C   UNL     1      10.099  29.964  57.552  1.00  0.00     0.117 C 
HETATM    5  C   UNL     1       8.967  28.951  57.696  1.00  0.00     0.082 C 
HETATM    6  C   UNL     1       8.322  29.344  59.021  1.00  0.00     0.145 C 
ENDROOT
BRANCH   1   7
HETATM    7  C   UNL     1       7.854  31.595  60.056  1.00  0.00     0.073 A 
HETATM    8  C   UNL     1       8.288  31.715  61.386  1.00  0.00     0.069 A 
HETATM    9  C   UNL     1       7.661  32.579  62.292  1.00  0.00     0.070 A 
HETATM   10  C   UNL     1       6.547  33.307  61.885  1.00  0.00     0.039 A 
HETATM   11  C   UNL     1       6.080  33.188  60.576  1.00  0.00     0.042 A 
HETATM   12  C   UNL     1       6.717  32.332  59.666  1.00  0.00     0.095 A 
BRANCH   9  13
HETATM   13  O   UNL     1       8.229  32.629  63.536  1.00  0.00    -0.356 OA
HETATM   14  C   UNL     1       7.513  33.346  64.532  1.00  0.00     0.210 C 
ENDBRANCH   9  13
BRANCH  12  15
HETATM   15  O   UNL     1       6.230  32.206  58.387  1.00  0.00    -0.354 OA
HETATM   16  C   UNL     1       4.808  32.066  58.338  1.00  0.00     0.210 C 
ENDBRANCH  12  15
ENDBRANCH   1   7
BRANCH   5  17
HETATM   17  C   UNL     1       8.032  29.035  56.526  1.00  0.00     0.111 A 
HETATM   18  N   UNL     1       8.188  28.465  55.350  1.00  0.00    -0.233 NA
HETATM   19  C   UNL     1       7.016  28.679  54.668  1.00  0.00     0.085 A 
HETATM   20  C   UNL     1       6.131  29.427  55.434  1.00  0.00     0.062 A 
HETATM   21  C   UNL     1       6.625  28.245  53.394  1.00  0.00     0.034 A 
HETATM   22  N   UNL     1       6.811  29.665  56.600  1.00  0.00    -0.342 N 
HETATM   23  C   UNL     1       4.848  29.776  55.001  1.00  0.00     0.032 A 
HETATM   24  H   UNL     1       6.448  30.165  57.398  1.00  0.00     0.167 HD
HETATM   25  C   UNL     1       4.472  29.327  53.730  1.00  0.00     0.002 A 
HETATM   26  C   UNL     1       5.342  28.574  52.937  1.00  0.00     0.002 A 
ENDBRANCH   5  17
TORSDOF 4
ENDMDL
