MODEL 1
REMARK VINA RESULT:      -8.8      0.000      0.000
REMARK  6 active torsions:
REMARK  status: ('A' for Active; 'I' for Inactive)
REMARK    1  A    between atoms: C_2  and  O_3 
REMARK    2  A    between atoms: O_3  and  C_4 
REMARK    3  A    between atoms: C_4  and  C_5 
REMARK    4  A    between atoms: C_6  and  O_7 
REMARK    5  A    between atoms: C_12  and  O_13 
REMARK    6  A    between atoms: C_17  and  C_18 
ROOT
HETATM    1  C   UNL     1       7.111  26.568  55.660  1.00  0.00     0.133 C 
HETATM    2  C   UNL     1       5.571  26.760  55.852  1.00  0.00     0.073 C 
HETATM    3  C   UNL     1       5.242  27.712  57.012  1.00  0.00     0.047 C 
HETATM    4  C   UNL     1       4.810  27.210  54.569  1.00  0.00     0.097 C 
HETATM    5  C   UNL     1       5.402  26.574  53.364  1.00  0.00     0.042 A 
HETATM    6  C   UNL     1       6.612  25.917  53.268  1.00  0.00     0.030 A 
HETATM    7  C   UNL     1       6.672  25.547  51.916  1.00  0.00     0.190 A 
HETATM    8  N   UNL     1       5.616  25.933  51.210  1.00  0.00    -0.149 NA
HETATM    9  N   UNL     1       4.840  26.547  52.120  1.00  0.00    -0.279 N 
HETATM   10  H   UNL     1       3.950  26.926  51.817  1.00  0.00     0.189 HD
HETATM   11  C   UNL     1       7.552  25.754  54.411  1.00  0.00     0.075 C 
ENDROOT
BRANCH  11  12
HETATM   12  C   UNL     1       7.705  24.262  54.683  1.00  0.00    -0.045 A 
HETATM   13  C   UNL     1       7.983  23.846  55.998  1.00  0.00     0.050 A 
HETATM   14  C   UNL     1       8.113  22.493  56.299  1.00  0.00     0.117 A 
HETATM   15  F   UNL     1       8.385  22.124  57.558  1.00  0.00    -0.206 F 
HETATM   16  C   UNL     1       7.964  21.522  55.319  1.00  0.00     0.042 A 
HETATM   17  C   UNL     1       7.675  21.911  54.015  1.00  0.00     0.004 A 
HETATM   18  C   UNL     1       7.542  23.268  53.701  1.00  0.00     0.008 A 
ENDBRANCH  11  12
BRANCH   1  19
HETATM   19  C   UNL     1       7.895  27.867  55.630  1.00  0.00     0.267 C 
HETATM   20  O   UNL     1       7.805  28.663  54.704  1.00  0.00    -0.265 OA
BRANCH  19  21
HETATM   21  O   UNL     1       8.620  28.058  56.757  1.00  0.00    -0.316 OA
BRANCH  21  22
HETATM   22  C   UNL     1       9.129  29.369  57.091  1.00  0.00     0.123 C 
HETATM   23  C   UNL     1      10.641  29.448  56.917  1.00  0.00     0.040 C 
HETATM   24  C   UNL     1       8.651  29.849  58.456  1.00  0.00     0.040 C 
ENDBRANCH  21  22
ENDBRANCH  19  21
ENDBRANCH   1  19
BRANCH   2  25
HETATM   25  O   UNL     1       4.999  25.491  56.243  1.00  0.00    -0.389 OA
HETATM   26  H   UNL     1       4.612  25.582  57.132  1.00  0.00     0.210 HD
ENDBRANCH   2  25
BRANCH   7  27
HETATM   27  O   UNL     1       7.615  24.869  51.261  1.00  0.00    -0.343 OA
HETATM   28  H   UNL     1       7.563  23.932  51.500  1.00  0.00     0.219 HD
ENDBRANCH   7  27
TORSDOF 6
ENDMDL
MODEL 2
REMARK VINA RESULT:      -8.2      2.543      5.993
REMARK  6 active torsions:
REMARK  status: ('A' for Active; 'I' for Inactive)
REMARK    1  A    between atoms: C_2  and  O_3 
REMARK    2  A    between atoms: O_3  and  C_4 
REMARK    3  A    between atoms: C_4  and  C_5 
REMARK    4  A    between atoms: C_6  and  O_7 
REMARK    5  A    between atoms: C_12  and  O_13 
REMARK    6  A    between atoms: C_17  and  C_18 
ROOT
HETATM    1  C   UNL     1       7.424  26.812  55.539  1.00  0.00     0.133 C 
HETATM    2  C   UNL     1       7.267  27.360  54.083  1.00  0.00     0.073 C 
HETATM    3  C   UNL     1       7.721  26.342  53.025  1.00  0.00     0.047 C 
HETATM    4  C   UNL     1       5.839  27.877  53.737  1.00  0.00     0.097 C 
HETATM    5  C   UNL     1       5.225  28.535  54.918  1.00  0.00     0.042 A 
HETATM    6  C   UNL     1       5.650  28.478  56.229  1.00  0.00     0.030 A 
HETATM    7  C   UNL     1       4.699  29.250  56.913  1.00  0.00     0.190 A 
HETATM    8  N   UNL     1       3.751  29.746  56.127  1.00  0.00    -0.149 NA
HETATM    9  N   UNL     1       4.101  29.310  54.904  1.00  0.00    -0.279 N 
HETATM   10  H   UNL     1       3.521  29.575  54.114  1.00  0.00     0.189 HD
HETATM   11  C   UNL     1       6.840  27.700  56.674  1.00  0.00     0.075 C 
ENDROOT
BRANCH  11  12
HETATM   12  C   UNL     1       7.851  28.682  57.256  1.00  0.00    -0.045 A 
HETATM   13  C   UNL     1       9.183  28.617  56.807  1.00  0.00     0.050 A 
HETATM   14  C   UNL     1      10.138  29.504  57.295  1.00  0.00     0.117 A 
HETATM   15  F   UNL     1      11.401  29.417  56.856  1.00  0.00    -0.206 F 
HETATM   16  C   UNL     1       9.804  30.477  58.226  1.00  0.00     0.042 A 
HETATM   17  C   UNL     1       8.490  30.568  58.673  1.00  0.00     0.004 A 
HETATM   18  C   UNL     1       7.522  29.682  58.189  1.00  0.00     0.008 A 
ENDBRANCH  11  12
BRANCH   1  19
HETATM   19  C   UNL     1       6.852  25.421  55.740  1.00  0.00     0.267 C 
HETATM   20  O   UNL     1       5.651  25.193  55.673  1.00  0.00    -0.265 OA
BRANCH  19  21
HETATM   21  O   UNL     1       7.817  24.488  55.918  1.00  0.00    -0.316 OA
BRANCH  21  22
HETATM   22  C   UNL     1       7.567  23.102  55.594  1.00  0.00     0.123 C 
HETATM   23  C   UNL     1       8.375  22.161  56.480  1.00  0.00     0.040 C 
HETATM   24  C   UNL     1       7.724  22.814  54.106  1.00  0.00     0.040 C 
ENDBRANCH  21  22
ENDBRANCH  19  21
ENDBRANCH   1  19
BRANCH   2  25
HETATM   25  O   UNL     1       8.161  28.484  53.920  1.00  0.00    -0.389 OA
HETATM   26  H   UNL     1       8.583  28.426  53.045  1.00  0.00     0.210 HD
ENDBRANCH   2  25
BRANCH   7  27
HETATM   27  O   UNL     1       4.624  29.556  58.208  1.00  0.00    -0.343 OA
HETATM   28  H   UNL     1       3.791  29.220  58.570  1.00  0.00     0.219 HD
ENDBRANCH   7  27
TORSDOF 6
ENDMDL
MODEL 3
REMARK VINA RESULT:      -8.2      3.121      5.606
REMARK  6 active torsions:
REMARK  status: ('A' for Active; 'I' for Inactive)
REMARK    1  A    between atoms: C_2  and  O_3 
REMARK    2  A    between atoms: O_3  and  C_4 
REMARK    3  A    between atoms: C_4  and  C_5 
REMARK    4  A    between atoms: C_6  and  O_7 
REMARK    5  A    between atoms: C_12  and  O_13 
REMARK    6  A    between atoms: C_17  and  C_18 
ROOT
HETATM    1  C   UNL     1       6.306  25.604  55.313  1.00  0.00     0.133 C 
HETATM    2  C   UNL     1       5.469  26.239  56.472  1.00  0.00     0.073 C 
HETATM    3  C   UNL     1       4.759  25.178  57.328  1.00  0.00     0.047 C 
HETATM    4  C   UNL     1       6.269  27.208  57.392  1.00  0.00     0.097 C 
HETATM    5  C   UNL     1       7.262  27.976  56.598  1.00  0.00     0.042 A 
HETATM    6  C   UNL     1       7.686  27.723  55.309  1.00  0.00     0.030 A 
HETATM    7  C   UNL     1       8.633  28.731  55.076  1.00  0.00     0.190 A 
HETATM    8  N   UNL     1       8.812  29.544  56.111  1.00  0.00    -0.149 NA
HETATM    9  N   UNL     1       7.949  29.074  57.029  1.00  0.00    -0.279 N 
HETATM   10  H   UNL     1       7.892  29.549  57.923  1.00  0.00     0.189 HD
HETATM   11  C   UNL     1       7.192  26.581  54.491  1.00  0.00     0.075 C 
ENDROOT
BRANCH  11  12
HETATM   12  C   UNL     1       6.488  27.153  53.265  1.00  0.00    -0.045 A 
HETATM   13  C   UNL     1       6.210  26.289  52.189  1.00  0.00     0.050 A 
HETATM   14  C   UNL     1       5.553  26.761  51.056  1.00  0.00     0.117 A 
HETATM   15  F   UNL     1       5.306  25.920  50.043  1.00  0.00    -0.206 F 
HETATM   16  C   UNL     1       5.148  28.084  50.960  1.00  0.00     0.042 A 
HETATM   17  C   UNL     1       5.401  28.951  52.018  1.00  0.00     0.004 A 
HETATM   18  C   UNL     1       6.060  28.489  53.162  1.00  0.00     0.008 A 
ENDBRANCH  11  12
BRANCH   1  19
HETATM   19  C   UNL     1       7.208  24.468  55.755  1.00  0.00     0.267 C 
HETATM   20  O   UNL     1       8.052  24.607  56.631  1.00  0.00    -0.265 OA
BRANCH  19  21
HETATM   21  O   UNL     1       6.914  23.303  55.131  1.00  0.00    -0.316 OA
BRANCH  21  22
HETATM   22  C   UNL     1       7.920  22.606  54.362  1.00  0.00     0.123 C 
HETATM   23  C   UNL     1       7.849  22.966  52.883  1.00  0.00     0.040 C 
HETATM   24  C   UNL     1       7.913  21.104  54.620  1.00  0.00     0.040 C 
ENDBRANCH  21  22
ENDBRANCH  19  21
ENDBRANCH   1  19
BRANCH   2  25
HETATM   25  O   UNL     1       4.399  27.017  55.888  1.00  0.00    -0.389 OA
HETATM   26  H   UNL     1       4.061  26.548  55.105  1.00  0.00     0.210 HD
ENDBRANCH   2  25
BRANCH   7  27
HETATM   27  O   UNL     1       9.354  28.985  53.984  1.00  0.00    -0.343 OA
HETATM   28  H   UNL     1      10.009  29.670  54.182  1.00  0.00     0.219 HD
ENDBRANCH   7  27
TORSDOF 6
ENDMDL
MODEL 4
REMARK VINA RESULT:      -7.9      8.496     10.713
REMARK  6 active torsions:
REMARK  status: ('A' for Active; 'I' for Inactive)
REMARK    1  A    between atoms: C_2  and  O_3 
REMARK    2  A    between atoms: O_3  and  C_4 
REMARK    3  A    between atoms: C_4  and  C_5 
REMARK    4  A    between atoms: C_6  and  O_7 
REMARK    5  A    between atoms: C_12  and  O_13 
REMARK    6  A    between atoms: C_17  and  C_18 
ROOT
HETATM    1  C   UNL     1       5.562  34.352  62.656  1.00  0.00     0.133 C 
HETATM    2  C   UNL     1       4.468  33.648  63.525  1.00  0.00     0.073 C 
HETATM    3  C   UNL     1       4.035  34.506  64.724  1.00  0.00     0.047 C 
HETATM    4  C   UNL     1       3.212  33.183  62.729  1.00  0.00     0.097 C 
HETATM    5  C   UNL     1       3.601  32.706  61.377  1.00  0.00     0.042 A 
HETATM    6  C   UNL     1       4.808  32.889  60.736  1.00  0.00     0.030 A 
HETATM    7  C   UNL     1       4.614  32.262  59.496  1.00  0.00     0.190 A 
HETATM    8  N   UNL     1       3.404  31.737  59.348  1.00  0.00    -0.149 NA
HETATM    9  N   UNL     1       2.803  32.005  60.520  1.00  0.00    -0.279 N 
HETATM   10  H   UNL     1       1.849  31.686  60.656  1.00  0.00     0.189 HD
HETATM   11  C   UNL     1       5.950  33.639  61.330  1.00  0.00     0.075 C 
ENDROOT
BRANCH  11  12
HETATM   12  C   UNL     1       7.118  32.672  61.480  1.00  0.00    -0.045 A 
HETATM   13  C   UNL     1       8.206  32.793  60.596  1.00  0.00     0.050 A 
HETATM   14  C   UNL     1       9.305  31.944  60.706  1.00  0.00     0.117 A 
HETATM   15  F   UNL     1      10.324  32.076  59.848  1.00  0.00    -0.206 F 
HETATM   16  C   UNL     1       9.361  30.967  61.689  1.00  0.00     0.042 A 
HETATM   17  C   UNL     1       8.302  30.839  62.582  1.00  0.00     0.004 A 
HETATM   18  C   UNL     1       7.194  31.687  62.482  1.00  0.00     0.008 A 
ENDBRANCH  11  12
BRANCH   1  19
HETATM   19  C   UNL     1       5.236  35.789  62.297  1.00  0.00     0.267 C 
HETATM   20  O   UNL     1       4.302  36.082  61.561  1.00  0.00    -0.265 OA
BRANCH  19  21
HETATM   21  O   UNL     1       6.035  36.674  62.937  1.00  0.00    -0.316 OA
BRANCH  21  22
HETATM   22  C   UNL     1       5.873  38.096  62.726  1.00  0.00     0.123 C 
HETATM   23  C   UNL     1       6.783  38.609  61.616  1.00  0.00     0.040 C 
HETATM   24  C   UNL     1       5.990  38.893  64.020  1.00  0.00     0.040 C 
ENDBRANCH  21  22
ENDBRANCH  19  21
ENDBRANCH   1  19
BRANCH   2  25
HETATM   25  O   UNL     1       5.045  32.460  64.111  1.00  0.00    -0.389 OA
HETATM   26  H   UNL     1       5.093  32.578  65.077  1.00  0.00     0.210 HD
ENDBRANCH   2  25
BRANCH   7  27
HETATM   27  O   UNL     1       5.460  32.114  58.476  1.00  0.00    -0.343 OA
HETATM   28  H   UNL     1       6.244  31.631  58.774  1.00  0.00     0.219 HD
ENDBRANCH   7  27
TORSDOF 6
ENDMDL
MODEL 5
REMARK VINA RESULT:      -7.5      4.023      5.991
REMARK  6 active torsions:
REMARK  status: ('A' for Active; 'I' for Inactive)
REMARK    1  A    between atoms: C_2  and  O_3 
REMARK    2  A    between atoms: O_3  and  C_4 
REMARK    3  A    between atoms: C_4  and  C_5 
REMARK    4  A    between atoms: C_6  and  O_7 
REMARK    5  A    between atoms: C_12  and  O_13 
REMARK    6  A    between atoms: C_17  and  C_18 
ROOT
HETATM    1  C   UNL     1       7.544  29.700  56.870  1.00  0.00     0.133 C 
HETATM    2  C   UNL     1       8.799  29.023  56.228  1.00  0.00     0.073 C 
HETATM    3  C   UNL     1      10.085  29.827  56.473  1.00  0.00     0.047 C 
HETATM    4  C   UNL     1       9.019  27.539  56.649  1.00  0.00     0.097 C 
HETATM    5  C   UNL     1       7.714  26.844  56.803  1.00  0.00     0.042 A 
HETATM    6  C   UNL     1       6.461  27.415  56.876  1.00  0.00     0.030 A 
HETATM    7  C   UNL     1       5.611  26.311  57.040  1.00  0.00     0.190 A 
HETATM    8  N   UNL     1       6.251  25.148  57.080  1.00  0.00    -0.149 NA
HETATM    9  N   UNL     1       7.539  25.495  56.916  1.00  0.00    -0.279 N 
HETATM   10  H   UNL     1       8.238  24.759  56.899  1.00  0.00     0.189 HD
HETATM   11  C   UNL     1       6.222  28.884  56.821  1.00  0.00     0.075 C 
ENDROOT
BRANCH  11  12
HETATM   12  C   UNL     1       5.375  29.175  55.587  1.00  0.00    -0.045 A 
HETATM   13  C   UNL     1       4.376  30.162  55.677  1.00  0.00     0.050 A 
HETATM   14  C   UNL     1       3.589  30.476  54.572  1.00  0.00     0.117 A 
HETATM   15  F   UNL     1       2.641  31.414  54.687  1.00  0.00    -0.206 F 
HETATM   16  C   UNL     1       3.774  29.835  53.355  1.00  0.00     0.042 A 
HETATM   17  C   UNL     1       4.766  28.866  53.240  1.00  0.00     0.004 A 
HETATM   18  C   UNL     1       5.562  28.543  54.344  1.00  0.00     0.008 A 
ENDBRANCH  11  12
BRANCH   1  19
HETATM   19  C   UNL     1       7.740  30.121  58.314  1.00  0.00     0.267 C 
HETATM   20  O   UNL     1       8.241  29.377  59.148  1.00  0.00    -0.265 OA
BRANCH  19  21
HETATM   21  O   UNL     1       7.375  31.406  58.531  1.00  0.00    -0.316 OA
BRANCH  21  22
HETATM   22  C   UNL     1       7.112  31.879  59.872  1.00  0.00     0.123 C 
HETATM   23  C   UNL     1       5.831  32.701  59.939  1.00  0.00     0.040 C 
HETATM   24  C   UNL     1       8.316  32.584  60.487  1.00  0.00     0.040 C 
ENDBRANCH  21  22
ENDBRANCH  19  21
ENDBRANCH   1  19
BRANCH   2  25
HETATM   25  O   UNL     1       8.632  29.021  54.793  1.00  0.00    -0.389 OA
HETATM   26  H   UNL     1       8.157  29.830  54.531  1.00  0.00     0.210 HD
ENDBRANCH   2  25
BRANCH   7  27
HETATM   27  O   UNL     1       4.283  26.268  57.149  1.00  0.00    -0.343 OA
HETATM   28  H   UNL     1       3.984  25.349  57.086  1.00  0.00     0.219 HD
ENDBRANCH   7  27
TORSDOF 6
ENDMDL
MODEL 6
REMARK VINA RESULT:      -7.3      5.558      7.656
REMARK  6 active torsions:
REMARK  status: ('A' for Active; 'I' for Inactive)
REMARK    1  A    between atoms: C_2  and  O_3 
REMARK    2  A    between atoms: O_3  and  C_4 
REMARK    3  A    between atoms: C_4  and  C_5 
REMARK    4  A    between atoms: C_6  and  O_7 
REMARK    5  A    between atoms: C_12  and  O_13 
REMARK    6  A    between atoms: C_17  and  C_18 
ROOT
HETATM    1  C   UNL     1       4.240  28.034  51.027  1.00  0.00     0.133 C 
HETATM    2  C   UNL     1       3.369  28.857  52.032  1.00  0.00     0.073 C 
HETATM    3  C   UNL     1       3.481  28.327  53.470  1.00  0.00     0.047 C 
HETATM    4  C   UNL     1       3.637  30.392  52.015  1.00  0.00     0.097 C 
HETATM    5  C   UNL     1       3.928  30.852  50.633  1.00  0.00     0.042 A 
HETATM    6  C   UNL     1       4.230  30.075  49.533  1.00  0.00     0.030 A 
HETATM    7  C   UNL     1       4.433  31.019  48.516  1.00  0.00     0.190 A 
HETATM    8  N   UNL     1       4.288  32.276  48.919  1.00  0.00    -0.149 NA
HETATM    9  N   UNL     1       3.961  32.152  50.217  1.00  0.00    -0.279 N 
HETATM   10  H   UNL     1       3.784  32.995  50.752  1.00  0.00     0.189 HD
HETATM   11  C   UNL     1       4.324  28.589  49.578  1.00  0.00     0.075 C 
ENDROOT
BRANCH  11  12
HETATM   12  C   UNL     1       3.256  28.024  48.649  1.00  0.00    -0.045 A 
HETATM   13  C   UNL     1       3.512  26.803  47.997  1.00  0.00     0.050 A 
HETATM   14  C   UNL     1       2.560  26.238  47.154  1.00  0.00     0.117 A 
HETATM   15  F   UNL     1       2.831  25.079  46.541  1.00  0.00    -0.206 F 
HETATM   16  C   UNL     1       1.335  26.854  46.940  1.00  0.00     0.042 A 
HETATM   17  C   UNL     1       1.056  28.055  47.585  1.00  0.00     0.004 A 
HETATM   18  C   UNL     1       2.005  28.632  48.435  1.00  0.00     0.008 A 
ENDBRANCH  11  12
BRANCH   1  19
HETATM   19  C   UNL     1       5.667  27.808  51.489  1.00  0.00     0.267 C 
HETATM   20  O   UNL     1       6.321  28.684  52.042  1.00  0.00    -0.265 OA
BRANCH  19  21
HETATM   21  O   UNL     1       6.079  26.535  51.287  1.00  0.00    -0.316 OA
BRANCH  21  22
HETATM   22  C   UNL     1       6.403  25.681  52.408  1.00  0.00     0.123 C 
HETATM   23  C   UNL     1       7.638  24.832  52.132  1.00  0.00     0.040 C 
HETATM   24  C   UNL     1       5.206  24.868  52.886  1.00  0.00     0.040 C 
ENDBRANCH  21  22
ENDBRANCH  19  21
ENDBRANCH   1  19
BRANCH   2  25
HETATM   25  O   UNL     1       1.978  28.679  51.682  1.00  0.00    -0.389 OA
HETATM   26  H   UNL     1       1.904  28.616  50.713  1.00  0.00     0.210 HD
ENDBRANCH   2  25
BRANCH   7  27
HETATM   27  O   UNL     1       4.734  30.833  47.230  1.00  0.00    -0.343 OA
HETATM   28  H   UNL     1       4.578  29.908  46.994  1.00  0.00     0.219 HD
ENDBRANCH   7  27
TORSDOF 6
ENDMDL
MODEL 7
REMARK VINA RESULT:      -7.2      4.239      6.953
REMARK  6 active torsions:
REMARK  status: ('A' for Active; 'I' for Inactive)
REMARK    1  A    between atoms: C_2  and  O_3 
REMARK    2  A    between atoms: O_3  and  C_4 
REMARK    3  A    between atoms: C_4  and  C_5 
REMARK    4  A    between atoms: C_6  and  O_7 
REMARK    5  A    between atoms: C_12  and  O_13 
REMARK    6  A    between atoms: C_17  and  C_18 
ROOT
HETATM    1  C   UNL     1       4.310  28.844  50.651  1.00  0.00     0.133 C 
HETATM    2  C   UNL     1       4.832  30.311  50.507  1.00  0.00     0.073 C 
HETATM    3  C   UNL     1       4.652  30.856  49.081  1.00  0.00     0.047 C 
HETATM    4  C   UNL     1       4.229  31.316  51.534  1.00  0.00     0.097 C 
HETATM    5  C   UNL     1       4.029  30.654  52.849  1.00  0.00     0.042 A 
HETATM    6  C   UNL     1       4.058  29.303  53.125  1.00  0.00     0.030 A 
HETATM    7  C   UNL     1       3.785  29.248  54.500  1.00  0.00     0.190 A 
HETATM    8  N   UNL     1       3.588  30.438  55.053  1.00  0.00    -0.149 NA
HETATM    9  N   UNL     1       3.759  31.290  54.027  1.00  0.00    -0.279 N 
HETATM   10  H   UNL     1       3.668  32.285  54.207  1.00  0.00     0.189 HD
HETATM   11  C   UNL     1       4.296  28.258  52.091  1.00  0.00     0.075 C 
ENDROOT
BRANCH  11  12
HETATM   12  C   UNL     1       5.579  27.520  52.458  1.00  0.00    -0.045 A 
HETATM   13  C   UNL     1       5.866  26.309  51.801  1.00  0.00     0.050 A 
HETATM   14  C   UNL     1       7.034  25.608  52.088  1.00  0.00     0.117 A 
HETATM   15  F   UNL     1       7.280  24.454  51.454  1.00  0.00    -0.206 F 
HETATM   16  C   UNL     1       7.947  26.084  53.018  1.00  0.00     0.042 A 
HETATM   17  C   UNL     1       7.689  27.287  53.669  1.00  0.00     0.004 A 
HETATM   18  C   UNL     1       6.519  28.000  53.388  1.00  0.00     0.008 A 
ENDBRANCH  11  12
BRANCH   1  19
HETATM   19  C   UNL     1       2.922  28.623  50.080  1.00  0.00     0.267 C 
HETATM   20  O   UNL     1       1.916  29.068  50.618  1.00  0.00    -0.265 OA
BRANCH  19  21
HETATM   21  O   UNL     1       2.950  27.962  48.899  1.00  0.00    -0.316 OA
BRANCH  21  22
HETATM   22  C   UNL     1       3.956  26.956  48.643  1.00  0.00     0.123 C 
HETATM   23  C   UNL     1       4.935  27.400  47.562  1.00  0.00     0.040 C 
HETATM   24  C   UNL     1       3.352  25.581  48.383  1.00  0.00     0.040 C 
ENDBRANCH  21  22
ENDBRANCH  19  21
ENDBRANCH   1  19
BRANCH   2  25
HETATM   25  O   UNL     1       6.261  30.311  50.723  1.00  0.00    -0.389 OA
HETATM   26  H   UNL     1       6.513  31.144  51.159  1.00  0.00     0.210 HD
ENDBRANCH   2  25
BRANCH   7  27
HETATM   27  O   UNL     1       3.707  28.191  55.310  1.00  0.00    -0.343 OA
HETATM   28  H   UNL     1       3.370  27.430  54.815  1.00  0.00     0.219 HD
ENDBRANCH   7  27
TORSDOF 6
ENDMDL
MODEL 8
REMARK VINA RESULT:      -7.1      3.606      5.618
REMARK  6 active torsions:
REMARK  status: ('A' for Active; 'I' for Inactive)
REMARK    1  A    between atoms: C_2  and  O_3 
REMARK    2  A    between atoms: O_3  and  C_4 
REMARK    3  A    between atoms: C_4  and  C_5 
REMARK    4  A    between atoms: C_6  and  O_7 
REMARK    5  A    between atoms: C_12  and  O_13 
REMARK    6  A    between atoms: C_17  and  C_18 
ROOT
HETATM    1  C   UNL     1       5.493  28.325  54.764  1.00  0.00     0.133 C 
HETATM    2  C   UNL     1       7.048  28.236  54.905  1.00  0.00     0.073 C 
HETATM    3  C   UNL     1       7.582  29.119  56.044  1.00  0.00     0.047 C 
HETATM    4  C   UNL     1       7.602  26.788  55.059  1.00  0.00     0.097 C 
HETATM    5  C   UNL     1       6.809  25.839  54.235  1.00  0.00     0.042 A 
HETATM    6  C   UNL     1       5.585  26.062  53.639  1.00  0.00     0.030 A 
HETATM    7  C   UNL     1       5.299  24.837  53.018  1.00  0.00     0.190 A 
HETATM    8  N   UNL     1       6.236  23.914  53.204  1.00  0.00    -0.149 NA
HETATM    9  N   UNL     1       7.162  24.554  53.938  1.00  0.00    -0.279 N 
HETATM   10  H   UNL     1       8.001  24.048  54.204  1.00  0.00     0.189 HD
HETATM   11  C   UNL     1       4.838  27.346  53.750  1.00  0.00     0.075 C 
ENDROOT
BRANCH  11  12
HETATM   12  C   UNL     1       4.698  27.929  52.348  1.00  0.00    -0.045 A 
HETATM   13  C   UNL     1       3.673  28.863  52.111  1.00  0.00     0.050 A 
HETATM   14  C   UNL     1       3.516  29.437  50.852  1.00  0.00     0.117 A 
HETATM   15  F   UNL     1       2.528  30.319  50.652  1.00  0.00    -0.206 F 
HETATM   16  C   UNL     1       4.367  29.114  49.805  1.00  0.00     0.042 A 
HETATM   17  C   UNL     1       5.396  28.202  50.022  1.00  0.00     0.004 A 
HETATM   18  C   UNL     1       5.563  27.620  51.283  1.00  0.00     0.008 A 
ENDBRANCH  11  12
BRANCH   1  19
HETATM   19  C   UNL     1       4.744  28.158  56.073  1.00  0.00     0.267 C 
HETATM   20  O   UNL     1       4.919  27.194  56.807  1.00  0.00    -0.265 OA
BRANCH  19  21
HETATM   21  O   UNL     1       3.947  29.216  56.349  1.00  0.00    -0.316 OA
BRANCH  21  22
HETATM   22  C   UNL     1       4.216  30.512  55.766  1.00  0.00     0.123 C 
HETATM   23  C   UNL     1       4.799  31.480  56.787  1.00  0.00     0.040 C 
HETATM   24  C   UNL     1       3.013  31.074  55.018  1.00  0.00     0.040 C 
ENDBRANCH  21  22
ENDBRANCH  19  21
ENDBRANCH   1  19
BRANCH   2  25
HETATM   25  O   UNL     1       7.647  28.779  53.707  1.00  0.00    -0.389 OA
HETATM   26  H   UNL     1       7.968  29.678  53.896  1.00  0.00     0.210 HD
ENDBRANCH   2  25
BRANCH   7  27
HETATM   27  O   UNL     1       4.248  24.482  52.279  1.00  0.00    -0.343 OA
HETATM   28  H   UNL     1       3.960  23.594  52.532  1.00  0.00     0.219 HD
ENDBRANCH   7  27
TORSDOF 6
ENDMDL
MODEL 9
REMARK VINA RESULT:      -7.0      5.554      7.092
REMARK  6 active torsions:
REMARK  status: ('A' for Active; 'I' for Inactive)
REMARK    1  A    between atoms: C_2  and  O_3 
REMARK    2  A    between atoms: O_3  and  C_4 
REMARK    3  A    between atoms: C_4  and  C_5 
REMARK    4  A    between atoms: C_6  and  O_7 
REMARK    5  A    between atoms: C_12  and  O_13 
REMARK    6  A    between atoms: C_17  and  C_18 
ROOT
HETATM    1  C   UNL     1       3.319  29.845  49.885  1.00  0.00     0.133 C 
HETATM    2  C   UNL     1       1.820  29.404  49.955  1.00  0.00     0.073 C 
HETATM    3  C   UNL     1       0.883  30.574  50.293  1.00  0.00     0.047 C 
HETATM    4  C   UNL     1       1.302  28.666  48.684  1.00  0.00     0.097 C 
HETATM    5  C   UNL     1       2.371  27.809  48.111  1.00  0.00     0.042 A 
HETATM    6  C   UNL     1       3.718  27.830  48.409  1.00  0.00     0.030 A 
HETATM    7  C   UNL     1       4.251  26.842  47.569  1.00  0.00     0.190 A 
HETATM    8  N   UNL     1       3.345  26.250  46.800  1.00  0.00    -0.149 NA
HETATM    9  N   UNL     1       2.195  26.846  47.159  1.00  0.00    -0.279 N 
HETATM   10  H   UNL     1       1.337  26.548  46.707  1.00  0.00     0.189 HD
HETATM   11  C   UNL     1       4.328  28.771  49.389  1.00  0.00     0.075 C 
ENDROOT
BRANCH  11  12
HETATM   12  C   UNL     1       4.936  27.944  50.517  1.00  0.00    -0.045 A 
HETATM   13  C   UNL     1       5.554  28.620  51.585  1.00  0.00     0.050 A 
HETATM   14  C   UNL     1       6.107  27.909  52.647  1.00  0.00     0.117 A 
HETATM   15  F   UNL     1       6.696  28.577  53.648  1.00  0.00    -0.206 F 
HETATM   16  C   UNL     1       6.057  26.523  52.685  1.00  0.00     0.042 A 
HETATM   17  C   UNL     1       5.439  25.836  51.646  1.00  0.00     0.004 A 
HETATM   18  C   UNL     1       4.879  26.540  50.575  1.00  0.00     0.008 A 
ENDBRANCH  11  12
BRANCH   1  19
HETATM   19  C   UNL     1       3.559  31.085  49.046  1.00  0.00     0.267 C 
HETATM   20  O   UNL     1       3.347  31.109  47.840  1.00  0.00    -0.265 OA
BRANCH  19  21
HETATM   21  O   UNL     1       3.947  32.145  49.792  1.00  0.00    -0.316 OA
BRANCH  21  22
HETATM   22  C   UNL     1       5.275  32.196  50.362  1.00  0.00     0.123 C 
HETATM   23  C   UNL     1       5.492  33.468  51.174  1.00  0.00     0.040 C 
HETATM   24  C   UNL     1       6.364  31.948  49.325  1.00  0.00     0.040 C 
ENDBRANCH  21  22
ENDBRANCH  19  21
ENDBRANCH   1  19
BRANCH   2  25
HETATM   25  O   UNL     1       1.667  28.480  51.056  1.00  0.00    -0.389 OA
HETATM   26  H   UNL     1       1.241  28.944  51.799  1.00  0.00     0.210 HD
ENDBRANCH   2  25
BRANCH   7  27
HETATM   27  O   UNL     1       5.510  26.418  47.446  1.00  0.00    -0.343 OA
HETATM   28  H   UNL     1       5.641  26.048  46.561  1.00  0.00     0.219 HD
ENDBRANCH   7  27
TORSDOF 6
ENDMDL
MODEL 10
REMARK VINA RESULT:      -6.8      2.972      5.849
REMARK  6 active torsions:
REMARK  status: ('A' for Active; 'I' for Inactive)
REMARK    1  A    between atoms: C_2  and  O_3 
REMARK    2  A    between atoms: O_3  and  C_4 
REMARK    3  A    between atoms: C_4  and  C_5 
REMARK    4  A    between atoms: C_6  and  O_7 
REMARK    5  A    between atoms: C_12  and  O_13 
REMARK    6  A    between atoms: C_17  and  C_18 
ROOT
HETATM    1  C   UNL     1       6.758  28.004  56.594  1.00  0.00     0.133 C 
HETATM    2  C   UNL     1       7.954  28.612  55.790  1.00  0.00     0.073 C 
HETATM    3  C   UNL     1       9.283  28.508  56.554  1.00  0.00     0.047 C 
HETATM    4  C   UNL     1       8.127  28.035  54.353  1.00  0.00     0.097 C 
HETATM    5  C   UNL     1       6.801  27.756  53.743  1.00  0.00     0.042 A 
HETATM    6  C   UNL     1       5.578  27.701  54.377  1.00  0.00     0.030 A 
HETATM    7  C   UNL     1       4.689  27.381  53.340  1.00  0.00     0.190 A 
HETATM    8  N   UNL     1       5.279  27.234  52.159  1.00  0.00    -0.149 NA
HETATM    9  N   UNL     1       6.573  27.485  52.424  1.00  0.00    -0.279 N 
HETATM   10  H   UNL     1       7.238  27.445  51.659  1.00  0.00     0.189 HD
HETATM   11  C   UNL     1       5.401  27.912  55.841  1.00  0.00     0.075 C 
ENDROOT
BRANCH  11  12
HETATM   12  C   UNL     1       4.516  29.139  56.034  1.00  0.00    -0.045 A 
HETATM   13  C   UNL     1       4.224  29.555  57.346  1.00  0.00     0.050 A 
HETATM   14  C   UNL     1       3.436  30.680  57.572  1.00  0.00     0.117 A 
HETATM   15  F   UNL     1       3.168  31.051  58.831  1.00  0.00    -0.206 F 
HETATM   16  C   UNL     1       2.926  31.423  56.517  1.00  0.00     0.042 A 
HETATM   17  C   UNL     1       3.214  31.037  55.212  1.00  0.00     0.004 A 
HETATM   18  C   UNL     1       4.005  29.908  54.973  1.00  0.00     0.008 A 
ENDBRANCH  11  12
BRANCH   1  19
HETATM   19  C   UNL     1       7.033  26.625  57.162  1.00  0.00     0.267 C 
HETATM   20  O   UNL     1       7.586  26.463  58.242  1.00  0.00    -0.265 OA
BRANCH  19  21
HETATM   21  O   UNL     1       6.535  25.637  56.382  1.00  0.00    -0.316 OA
BRANCH  21  22
HETATM   22  C   UNL     1       7.420  24.708  55.717  1.00  0.00     0.123 C 
HETATM   23  C   UNL     1       6.793  24.141  54.449  1.00  0.00     0.040 C 
HETATM   24  C   UNL     1       7.953  23.635  56.659  1.00  0.00     0.040 C 
ENDBRANCH  21  22
ENDBRANCH  19  21
ENDBRANCH   1  19
BRANCH   2  25
HETATM   25  O   UNL     1       7.727  30.031  55.637  1.00  0.00    -0.389 OA
HETATM   26  H   UNL     1       6.775  30.184  55.503  1.00  0.00     0.210 HD
ENDBRANCH   2  25
BRANCH   7  27
HETATM   27  O   UNL     1       3.366  27.219  53.373  1.00  0.00    -0.343 OA
HETATM   28  H   UNL     1       3.129  26.409  52.897  1.00  0.00     0.219 HD
ENDBRANCH   7  27
TORSDOF 6
ENDMDL
