MODEL 1
REMARK VINA RESULT:      -8.2      0.000      0.000
REMARK  7 active torsions:
REMARK  status: ('A' for Active; 'I' for Inactive)
REMARK    1  A    between atoms: C_8  and  C_9 
REMARK    2  A    between atoms: C_9  and  C_10 
REMARK    3  A    between atoms: C_10  and  C_11 
REMARK       I    between atoms: C_11  and  N_12 
REMARK    4  A    between atoms: N_12  and  C_13 
REMARK    5  A    between atoms: C_13  and  C_14 
REMARK    6  A    between atoms: C_14  and  N_15 
REMARK    7  A    between atoms: C_14  and  C_19 
ROOT
HETATM    1  C   UNL     1       7.429  25.044  56.581  1.00  0.00     0.217 C 
HETATM    2  N   UNL     1       8.014  26.023  57.344  1.00  0.00    -0.359 N 
HETATM    3  O   UNL     1       6.499  25.298  55.818  1.00  0.00    -0.274 OA
HETATM    4  H   UNL     1       8.701  25.727  58.034  1.00  0.00     0.162 HD
ENDROOT
BRANCH   2   5
HETATM    5  C   UNL     1       7.468  27.375  57.486  1.00  0.00     0.160 C 
BRANCH   5   6
HETATM    6  C   UNL     1       8.268  28.529  56.775  1.00  0.00     0.239 C 
BRANCH   6   7
HETATM    7  N   UNL     1       7.616  28.922  55.442  1.00  0.00    -0.069 N 
HETATM    8  H   UNL     1       7.845  29.932  55.331  1.00  0.00     0.279 HD
HETATM    9  C   UNL     1       8.160  28.286  54.202  1.00  0.00     0.270 C 
HETATM   10  C   UNL     1       6.118  28.880  55.471  1.00  0.00     0.270 C 
ENDBRANCH   6   7
BRANCH   6  11
HETATM   11  C   UNL     1       8.532  29.711  57.700  1.00  0.00    -0.004 A 
HETATM   12  C   UNL     1       9.809  30.296  57.822  1.00  0.00     0.042 A 
HETATM   13 CL   UNL     1      11.181  29.709  56.952  1.00  0.00    -0.084 Cl
HETATM   14  C   UNL     1      10.022  31.391  58.667  1.00  0.00     0.024 A 
HETATM   15  C   UNL     1       8.970  31.921  59.410  1.00  0.00     0.002 A 
HETATM   16  C   UNL     1       7.703  31.357  59.312  1.00  0.00     0.001 A 
HETATM   17  C   UNL     1       7.486  30.264  58.470  1.00  0.00     0.011 A 
ENDBRANCH   6  11
ENDBRANCH   5   6
ENDBRANCH   2   5
BRANCH   1  18
HETATM   18  C   UNL     1       7.990  23.656  56.756  1.00  0.00     0.107 C 
BRANCH  18  19
HETATM   19  C   UNL     1       9.043  23.389  55.687  1.00  0.00     0.052 C 
BRANCH  19  20
HETATM   20  C   UNL     1       8.613  22.334  54.728  1.00  0.00    -0.008 A 
HETATM   21  C   UNL     1       8.090  22.492  53.457  1.00  0.00     0.032 A 
HETATM   22  C   UNL     1       7.794  23.695  52.646  1.00  0.00     0.070 C 
HETATM   23  N   UNL     1       7.859  21.228  52.988  1.00  0.00    -0.282 N 
HETATM   24  H   UNL     1       7.484  20.949  52.086  1.00  0.00     0.189 HD
HETATM   25  N   UNL     1       8.181  20.265  53.860  1.00  0.00    -0.179 NA
HETATM   26  C   UNL     1       8.654  20.923  54.921  1.00  0.00     0.059 A 
HETATM   27  C   UNL     1       9.127  20.169  56.109  1.00  0.00     0.073 C 
ENDBRANCH  19  20
ENDBRANCH  18  19
ENDBRANCH   1  18
TORSDOF 7
ENDMDL
MODEL 2
REMARK VINA RESULT:      -8.1      0.765      1.822
REMARK  7 active torsions:
REMARK  status: ('A' for Active; 'I' for Inactive)
REMARK    1  A    between atoms: C_8  and  C_9 
REMARK    2  A    between atoms: C_9  and  C_10 
REMARK    3  A    between atoms: C_10  and  C_11 
REMARK       I    between atoms: C_11  and  N_12 
REMARK    4  A    between atoms: N_12  and  C_13 
REMARK    5  A    between atoms: C_13  and  C_14 
REMARK    6  A    between atoms: C_14  and  N_15 
REMARK    7  A    between atoms: C_14  and  C_19 
ROOT
HETATM    1  C   UNL     1       7.572  25.314  57.198  1.00  0.00     0.217 C 
HETATM    2  N   UNL     1       6.709  26.360  56.985  1.00  0.00    -0.359 N 
HETATM    3  O   UNL     1       8.478  25.391  58.026  1.00  0.00    -0.274 OA
HETATM    4  H   UNL     1       6.055  26.273  56.211  1.00  0.00     0.162 HD
ENDROOT
BRANCH   2   5
HETATM    5  C   UNL     1       6.909  27.701  57.541  1.00  0.00     0.160 C 
BRANCH   5   6
HETATM    6  C   UNL     1       7.963  28.611  56.806  1.00  0.00     0.239 C 
BRANCH   6   7
HETATM    7  N   UNL     1       7.451  29.058  55.430  1.00  0.00    -0.069 N 
HETATM    8  H   UNL     1       7.887  29.993  55.285  1.00  0.00     0.279 HD
HETATM    9  C   UNL     1       7.895  28.262  54.244  1.00  0.00     0.270 C 
HETATM   10  C   UNL     1       5.977  29.325  55.395  1.00  0.00     0.270 C 
ENDBRANCH   6   7
BRANCH   6  11
HETATM   11  C   UNL     1       8.452  29.759  57.682  1.00  0.00    -0.004 A 
HETATM   12  C   UNL     1       9.785  30.216  57.639  1.00  0.00     0.042 A 
HETATM   13 CL   UNL     1      10.976  29.503  56.610  1.00  0.00    -0.084 Cl
HETATM   14  C   UNL     1      10.206  31.283  58.442  1.00  0.00     0.024 A 
HETATM   15  C   UNL     1       9.311  31.909  59.305  1.00  0.00     0.002 A 
HETATM   16  C   UNL     1       7.994  31.471  59.370  1.00  0.00     0.001 A 
HETATM   17  C   UNL     1       7.568  30.407  58.570  1.00  0.00     0.011 A 
ENDBRANCH   6  11
ENDBRANCH   5   6
ENDBRANCH   2   5
BRANCH   1  18
HETATM   18  C   UNL     1       7.340  24.092  56.347  1.00  0.00     0.107 C 
BRANCH  18  19
HETATM   19  C   UNL     1       8.658  23.634  55.736  1.00  0.00     0.052 C 
BRANCH  19  20
HETATM   20  C   UNL     1       8.478  22.480  54.812  1.00  0.00    -0.008 A 
HETATM   21  C   UNL     1       8.632  21.132  55.082  1.00  0.00     0.032 A 
HETATM   22  C   UNL     1       9.003  20.401  56.315  1.00  0.00     0.070 C 
HETATM   23  N   UNL     1       8.354  20.482  53.911  1.00  0.00    -0.282 N 
HETATM   24  H   UNL     1       8.358  19.483  53.728  1.00  0.00     0.189 HD
HETATM   25  N   UNL     1       8.045  21.304  52.901  1.00  0.00    -0.179 NA
HETATM   26  C   UNL     1       8.103  22.526  53.438  1.00  0.00     0.059 A 
HETATM   27  C   UNL     1       7.805  23.717  52.603  1.00  0.00     0.073 C 
ENDBRANCH  19  20
ENDBRANCH  18  19
ENDBRANCH   1  18
TORSDOF 7
ENDMDL
MODEL 3
REMARK VINA RESULT:      -8.1      2.818      8.140
REMARK  7 active torsions:
REMARK  status: ('A' for Active; 'I' for Inactive)
REMARK    1  A    between atoms: C_8  and  C_9 
REMARK    2  A    between atoms: C_9  and  C_10 
REMARK    3  A    between atoms: C_10  and  C_11 
REMARK       I    between atoms: C_11  and  N_12 
REMARK    4  A    between atoms: N_12  and  C_13 
REMARK    5  A    between atoms: C_13  and  C_14 
REMARK    6  A    between atoms: C_14  and  N_15 
REMARK    7  A    between atoms: C_14  and  C_19 
ROOT
HETATM    1  C   UNL     1       7.676  28.288  55.804  1.00  0.00     0.217 C 
HETATM    2  N   UNL     1       7.437  28.387  54.457  1.00  0.00    -0.359 N 
HETATM    3  O   UNL     1       8.298  27.338  56.275  1.00  0.00    -0.274 OA
HETATM    4  H   UNL     1       6.822  29.136  54.147  1.00  0.00     0.162 HD
ENDROOT
BRANCH   2   5
HETATM    5  C   UNL     1       7.695  27.302  53.506  1.00  0.00     0.160 C 
BRANCH   5   6
HETATM    6  C   UNL     1       6.593  26.182  53.408  1.00  0.00     0.239 C 
BRANCH   6   7
HETATM    7  N   UNL     1       5.907  26.193  52.034  1.00  0.00    -0.069 N 
HETATM    8  H   UNL     1       6.665  25.935  51.367  1.00  0.00     0.279 HD
HETATM    9  C   UNL     1       4.845  25.169  51.792  1.00  0.00     0.270 C 
HETATM   10  C   UNL     1       5.469  27.557  51.592  1.00  0.00     0.270 C 
ENDBRANCH   6   7
BRANCH   6  11
HETATM   11  C   UNL     1       7.115  24.812  53.822  1.00  0.00    -0.004 A 
HETATM   12  C   UNL     1       6.803  24.239  55.071  1.00  0.00     0.042 A 
HETATM   13 CL   UNL     1       5.823  25.048  56.242  1.00  0.00    -0.084 Cl
HETATM   14  C   UNL     1       7.282  22.971  55.421  1.00  0.00     0.024 A 
HETATM   15  C   UNL     1       8.084  22.254  54.538  1.00  0.00     0.002 A 
HETATM   16  C   UNL     1       8.412  22.801  53.303  1.00  0.00     0.001 A 
HETATM   17  C   UNL     1       7.936  24.066  52.949  1.00  0.00     0.011 A 
ENDBRANCH   6  11
ENDBRANCH   5   6
ENDBRANCH   2   5
BRANCH   1  18
HETATM   18  C   UNL     1       7.116  29.403  56.651  1.00  0.00     0.107 C 
BRANCH  18  19
HETATM   19  C   UNL     1       7.673  29.302  58.065  1.00  0.00     0.052 C 
BRANCH  19  20
HETATM   20  C   UNL     1       8.601  30.423  58.385  1.00  0.00    -0.008 A 
HETATM   21  C   UNL     1       9.918  30.584  57.993  1.00  0.00     0.032 A 
HETATM   22  C   UNL     1      10.817  29.751  57.161  1.00  0.00     0.070 C 
HETATM   23  N   UNL     1      10.328  31.768  58.540  1.00  0.00    -0.282 N 
HETATM   24  H   UNL     1      11.236  32.218  58.462  1.00  0.00     0.189 HD
HETATM   25  N   UNL     1       9.385  32.379  59.266  1.00  0.00    -0.179 NA
HETATM   26  C   UNL     1       8.321  31.578  59.170  1.00  0.00     0.059 A 
HETATM   27  C   UNL     1       7.055  31.942  59.853  1.00  0.00     0.073 C 
ENDBRANCH  19  20
ENDBRANCH  18  19
ENDBRANCH   1  18
TORSDOF 7
ENDMDL
MODEL 4
REMARK VINA RESULT:      -7.9      4.483      8.004
REMARK  7 active torsions:
REMARK  status: ('A' for Active; 'I' for Inactive)
REMARK    1  A    between atoms: C_8  and  C_9 
REMARK    2  A    between atoms: C_9  and  C_10 
REMARK    3  A    between atoms: C_10  and  C_11 
REMARK       I    between atoms: C_11  and  N_12 
REMARK    4  A    between atoms: N_12  and  C_13 
REMARK    5  A    between atoms: C_13  and  C_14 
REMARK    6  A    between atoms: C_14  and  N_15 
REMARK    7  A    between atoms: C_14  and  C_19 
ROOT
HETATM    1  C   UNL     1       4.924  25.652  52.908  1.00  0.00     0.217 C 
HETATM    2  N   UNL     1       5.425  25.948  54.150  1.00  0.00    -0.359 N 
HETATM    3  O   UNL     1       4.498  24.530  52.642  1.00  0.00    -0.274 OA
HETATM    4  H   UNL     1       5.863  26.859  54.270  1.00  0.00     0.162 HD
ENDROOT
BRANCH   2   5
HETATM    5  C   UNL     1       5.697  24.939  55.177  1.00  0.00     0.160 C 
BRANCH   5   6
HETATM    6  C   UNL     1       7.205  24.528  55.369  1.00  0.00     0.239 C 
BRANCH   6   7
HETATM    7  N   UNL     1       7.640  24.674  56.834  1.00  0.00    -0.069 N 
HETATM    8  H   UNL     1       7.208  23.856  57.314  1.00  0.00     0.279 HD
HETATM    9  C   UNL     1       9.101  24.539  57.129  1.00  0.00     0.270 C 
HETATM   10  C   UNL     1       7.047  25.865  57.521  1.00  0.00     0.270 C 
ENDBRANCH   6   7
BRANCH   6  11
HETATM   11  C   UNL     1       7.518  23.163  54.769  1.00  0.00    -0.004 A 
HETATM   12  C   UNL     1       7.902  23.008  53.421  1.00  0.00     0.042 A 
HETATM   13 CL   UNL     1       8.028  24.346  52.336  1.00  0.00    -0.084 Cl
HETATM   14  C   UNL     1       8.200  21.744  52.898  1.00  0.00     0.024 A 
HETATM   15  C   UNL     1       8.117  20.612  53.704  1.00  0.00     0.002 A 
HETATM   16  C   UNL     1       7.733  20.738  55.034  1.00  0.00     0.001 A 
HETATM   17  C   UNL     1       7.435  21.997  55.561  1.00  0.00     0.011 A 
ENDBRANCH   6  11
ENDBRANCH   5   6
ENDBRANCH   2   5
BRANCH   1  18
HETATM   18  C   UNL     1       4.948  26.779  51.907  1.00  0.00     0.107 C 
BRANCH  18  19
HETATM   19  C   UNL     1       5.348  26.242  50.539  1.00  0.00     0.052 C 
BRANCH  19  20
HETATM   20  C   UNL     1       4.685  26.982  49.429  1.00  0.00    -0.008 A 
HETATM   21  C   UNL     1       3.791  26.500  48.491  1.00  0.00     0.032 A 
HETATM   22  C   UNL     1       3.205  25.158  48.273  1.00  0.00     0.070 C 
HETATM   23  N   UNL     1       3.475  27.566  47.694  1.00  0.00    -0.282 N 
HETATM   24  H   UNL     1       2.841  27.594  46.900  1.00  0.00     0.189 HD
HETATM   25  N   UNL     1       4.104  28.696  48.035  1.00  0.00    -0.179 NA
HETATM   26  C   UNL     1       4.836  28.360  49.100  1.00  0.00     0.059 A 
HETATM   27  C   UNL     1       5.679  29.380  49.772  1.00  0.00     0.073 C 
ENDBRANCH  19  20
ENDBRANCH  18  19
ENDBRANCH   1  18
TORSDOF 7
ENDMDL
MODEL 5
REMARK VINA RESULT:      -7.8      4.533      8.024
REMARK  7 active torsions:
REMARK  status: ('A' for Active; 'I' for Inactive)
REMARK    1  A    between atoms: C_8  and  C_9 
REMARK    2  A    between atoms: C_9  and  C_10 
REMARK    3  A    between atoms: C_10  and  C_11 
REMARK       I    between atoms: C_11  and  N_12 
REMARK    4  A    between atoms: N_12  and  C_13 
REMARK    5  A    between atoms: C_13  and  C_14 
REMARK    6  A    between atoms: C_14  and  N_15 
REMARK    7  A    between atoms: C_14  and  C_19 
ROOT
HETATM    1  C   UNL     1       5.263  25.994  52.608  1.00  0.00     0.217 C 
HETATM    2  N   UNL     1       5.682  26.044  53.914  1.00  0.00    -0.359 N 
HETATM    3  O   UNL     1       4.736  24.984  52.145  1.00  0.00    -0.274 OA
HETATM    4  H   UNL     1       6.209  26.866  54.201  1.00  0.00     0.162 HD
ENDROOT
BRANCH   2   5
HETATM    5  C   UNL     1       5.744  24.873  54.791  1.00  0.00     0.160 C 
BRANCH   5   6
HETATM    6  C   UNL     1       7.180  24.418  55.249  1.00  0.00     0.239 C 
BRANCH   6   7
HETATM    7  N   UNL     1       7.364  24.589  56.763  1.00  0.00    -0.069 N 
HETATM    8  H   UNL     1       7.129  23.654  57.158  1.00  0.00     0.279 HD
HETATM    9  C   UNL     1       8.750  24.855  57.257  1.00  0.00     0.270 C 
HETATM   10  C   UNL     1       6.368  25.518  57.388  1.00  0.00     0.270 C 
ENDBRANCH   6   7
BRANCH   6  11
HETATM   11  C   UNL     1       7.540  23.027  54.740  1.00  0.00    -0.004 A 
HETATM   12  C   UNL     1       7.949  22.799  53.410  1.00  0.00     0.042 A 
HETATM   13 CL   UNL     1       8.054  24.070  52.244  1.00  0.00    -0.084 Cl
HETATM   14  C   UNL     1       8.290  21.514  52.972  1.00  0.00     0.024 A 
HETATM   15  C   UNL     1       8.226  20.433  53.847  1.00  0.00     0.002 A 
HETATM   16  C   UNL     1       7.819  20.631  55.161  1.00  0.00     0.001 A 
HETATM   17  C   UNL     1       7.477  21.912  55.603  1.00  0.00     0.011 A 
ENDBRANCH   6  11
ENDBRANCH   5   6
ENDBRANCH   2   5
BRANCH   1  18
HETATM   18  C   UNL     1       5.506  27.239  51.795  1.00  0.00     0.107 C 
BRANCH  18  19
HETATM   19  C   UNL     1       4.286  27.533  50.930  1.00  0.00     0.052 C 
BRANCH  19  20
HETATM   20  C   UNL     1       4.632  27.621  49.483  1.00  0.00    -0.008 A 
HETATM   21  C   UNL     1       5.318  28.625  48.825  1.00  0.00     0.032 A 
HETATM   22  C   UNL     1       5.922  29.891  49.297  1.00  0.00     0.070 C 
HETATM   23  N   UNL     1       5.377  28.239  47.514  1.00  0.00    -0.282 N 
HETATM   24  H   UNL     1       5.811  28.724  46.733  1.00  0.00     0.189 HD
HETATM   25  N   UNL     1       4.771  27.071  47.270  1.00  0.00    -0.179 NA
HETATM   26  C   UNL     1       4.323  26.675  48.464  1.00  0.00     0.059 A 
HETATM   27  C   UNL     1       3.592  25.389  48.591  1.00  0.00     0.073 C 
ENDBRANCH  19  20
ENDBRANCH  18  19
ENDBRANCH   1  18
TORSDOF 7
ENDMDL
MODEL 6
REMARK VINA RESULT:      -7.8      2.785      3.754
REMARK  7 active torsions:
REMARK  status: ('A' for Active; 'I' for Inactive)
REMARK    1  A    between atoms: C_8  and  C_9 
REMARK    2  A    between atoms: C_9  and  C_10 
REMARK    3  A    between atoms: C_10  and  C_11 
REMARK       I    between atoms: C_11  and  N_12 
REMARK    4  A    between atoms: N_12  and  C_13 
REMARK    5  A    between atoms: C_13  and  C_14 
REMARK    6  A    between atoms: C_14  and  N_15 
REMARK    7  A    between atoms: C_14  and  C_19 
ROOT
HETATM    1  C   UNL     1       7.050  25.016  52.763  1.00  0.00     0.217 C 
HETATM    2  N   UNL     1       7.503  26.267  53.096  1.00  0.00    -0.359 N 
HETATM    3  O   UNL     1       6.000  24.860  52.143  1.00  0.00    -0.274 OA
HETATM    4  H   UNL     1       8.318  26.320  53.703  1.00  0.00     0.162 HD
ENDROOT
BRANCH   2   5
HETATM    5  C   UNL     1       6.703  27.485  52.947  1.00  0.00     0.160 C 
BRANCH   5   6
HETATM    6  C   UNL     1       6.119  28.103  54.273  1.00  0.00     0.239 C 
BRANCH   6   7
HETATM    7  N   UNL     1       4.591  28.239  54.199  1.00  0.00    -0.069 N 
HETATM    8  H   UNL     1       4.240  27.593  54.937  1.00  0.00     0.279 HD
HETATM    9  C   UNL     1       4.005  29.565  54.566  1.00  0.00     0.270 C 
HETATM   10  C   UNL     1       4.001  27.708  52.928  1.00  0.00     0.270 C 
ENDBRANCH   6   7
BRANCH   6  11
HETATM   11  C   UNL     1       6.611  27.378  55.520  1.00  0.00    -0.004 A 
HETATM   12  C   UNL     1       7.782  27.769  56.199  1.00  0.00     0.042 A 
HETATM   13 CL   UNL     1       8.766  29.085  55.664  1.00  0.00    -0.084 Cl
HETATM   14  C   UNL     1       8.204  27.097  57.352  1.00  0.00     0.024 A 
HETATM   15  C   UNL     1       7.472  26.021  57.846  1.00  0.00     0.002 A 
HETATM   16  C   UNL     1       6.318  25.612  57.190  1.00  0.00     0.001 A 
HETATM   17  C   UNL     1       5.892  26.280  56.039  1.00  0.00     0.011 A 
ENDBRANCH   6  11
ENDBRANCH   5   6
ENDBRANCH   2   5
BRANCH   1  18
HETATM   18  C   UNL     1       7.912  23.866  53.218  1.00  0.00     0.107 C 
BRANCH  18  19
HETATM   19  C   UNL     1       7.208  23.107  54.336  1.00  0.00     0.052 C 
BRANCH  19  20
HETATM   20  C   UNL     1       7.987  21.920  54.786  1.00  0.00    -0.008 A 
HETATM   21  C   UNL     1       8.358  20.809  54.051  1.00  0.00     0.032 A 
HETATM   22  C   UNL     1       8.132  20.431  52.637  1.00  0.00     0.070 C 
HETATM   23  N   UNL     1       9.057  20.008  54.912  1.00  0.00    -0.282 N 
HETATM   24  H   UNL     1       9.491  19.108  54.724  1.00  0.00     0.189 HD
HETATM   25  N   UNL     1       9.155  20.507  56.149  1.00  0.00    -0.179 NA
HETATM   26  C   UNL     1       8.519  21.679  56.086  1.00  0.00     0.059 A 
HETATM   27  C   UNL     1       8.429  22.540  57.292  1.00  0.00     0.073 C 
ENDBRANCH  19  20
ENDBRANCH  18  19
ENDBRANCH   1  18
TORSDOF 7
ENDMDL
MODEL 7
REMARK VINA RESULT:      -7.8      3.237      7.949
REMARK  7 active torsions:
REMARK  status: ('A' for Active; 'I' for Inactive)
REMARK    1  A    between atoms: C_8  and  C_9 
REMARK    2  A    between atoms: C_9  and  C_10 
REMARK    3  A    between atoms: C_10  and  C_11 
REMARK       I    between atoms: C_11  and  N_12 
REMARK    4  A    between atoms: N_12  and  C_13 
REMARK    5  A    between atoms: C_13  and  C_14 
REMARK    6  A    between atoms: C_14  and  N_15 
REMARK    7  A    between atoms: C_14  and  C_19 
ROOT
HETATM    1  C   UNL     1       5.576  28.665  57.122  1.00  0.00     0.217 C 
HETATM    2  N   UNL     1       6.191  27.439  57.158  1.00  0.00    -0.359 N 
HETATM    3  O   UNL     1       4.413  28.787  56.742  1.00  0.00    -0.274 OA
HETATM    4  H   UNL     1       7.185  27.424  57.375  1.00  0.00     0.162 HD
ENDROOT
BRANCH   2   5
HETATM    5  C   UNL     1       5.620  26.229  56.562  1.00  0.00     0.160 C 
BRANCH   5   6
HETATM    6  C   UNL     1       5.751  26.093  54.999  1.00  0.00     0.239 C 
BRANCH   6   7
HETATM    7  N   UNL     1       6.140  27.429  54.352  1.00  0.00    -0.069 N 
HETATM    8  H   UNL     1       6.114  28.113  55.138  1.00  0.00     0.279 HD
HETATM    9  C   UNL     1       7.531  27.549  53.814  1.00  0.00     0.270 C 
HETATM   10  C   UNL     1       5.125  27.943  53.377  1.00  0.00     0.270 C 
ENDBRANCH   6   7
BRANCH   6  11
HETATM   11  C   UNL     1       6.645  24.929  54.588  1.00  0.00    -0.004 A 
HETATM   12  C   UNL     1       6.465  24.241  53.370  1.00  0.00     0.042 A 
HETATM   13 CL   UNL     1       5.208  24.645  52.256  1.00  0.00    -0.084 Cl
HETATM   14  C   UNL     1       7.310  23.185  53.008  1.00  0.00     0.024 A 
HETATM   15  C   UNL     1       8.345  22.791  53.853  1.00  0.00     0.002 A 
HETATM   16  C   UNL     1       8.537  23.449  55.062  1.00  0.00     0.001 A 
HETATM   17  C   UNL     1       7.697  24.504  55.427  1.00  0.00     0.011 A 
ENDBRANCH   6  11
ENDBRANCH   5   6
ENDBRANCH   2   5
BRANCH   1  18
HETATM   18  C   UNL     1       6.422  29.834  57.561  1.00  0.00     0.107 C 
BRANCH  18  19
HETATM   19  C   UNL     1       7.670  29.326  58.270  1.00  0.00     0.052 C 
BRANCH  19  20
HETATM   20  C   UNL     1       8.723  30.375  58.374  1.00  0.00    -0.008 A 
HETATM   21  C   UNL     1       9.941  30.435  57.720  1.00  0.00     0.032 A 
HETATM   22  C   UNL     1      10.589  29.533  56.741  1.00  0.00     0.070 C 
HETATM   23  N   UNL     1      10.540  31.587  58.150  1.00  0.00    -0.282 N 
HETATM   24  H   UNL     1      11.443  31.966  57.882  1.00  0.00     0.189 HD
HETATM   25  N   UNL     1       9.810  32.271  59.040  1.00  0.00    -0.179 NA
HETATM   26  C   UNL     1       8.694  31.551  59.177  1.00  0.00     0.059 A 
HETATM   27  C   UNL     1       7.623  32.013  60.095  1.00  0.00     0.073 C 
ENDBRANCH  19  20
ENDBRANCH  18  19
ENDBRANCH   1  18
TORSDOF 7
ENDMDL
MODEL 8
REMARK VINA RESULT:      -7.7      2.581      8.300
REMARK  7 active torsions:
REMARK  status: ('A' for Active; 'I' for Inactive)
REMARK    1  A    between atoms: C_8  and  C_9 
REMARK    2  A    between atoms: C_9  and  C_10 
REMARK    3  A    between atoms: C_10  and  C_11 
REMARK       I    between atoms: C_11  and  N_12 
REMARK    4  A    between atoms: N_12  and  C_13 
REMARK    5  A    between atoms: C_13  and  C_14 
REMARK    6  A    between atoms: C_14  and  N_15 
REMARK    7  A    between atoms: C_14  and  C_19 
ROOT
HETATM    1  C   UNL     1       7.729  26.820  56.790  1.00  0.00     0.217 C 
HETATM    2  N   UNL     1       7.413  26.397  55.523  1.00  0.00    -0.359 N 
HETATM    3  O   UNL     1       8.657  26.316  57.419  1.00  0.00    -0.274 OA
HETATM    4  H   UNL     1       6.568  26.777  55.103  1.00  0.00     0.162 HD
ENDROOT
BRANCH   2   5
HETATM    5  C   UNL     1       7.985  25.199  54.903  1.00  0.00     0.160 C 
BRANCH   5   6
HETATM    6  C   UNL     1       6.962  24.093  54.447  1.00  0.00     0.239 C 
BRANCH   6   7
HETATM    7  N   UNL     1       6.252  24.491  53.146  1.00  0.00    -0.069 N 
HETATM    8  H   UNL     1       6.159  23.597  52.620  1.00  0.00     0.279 HD
HETATM    9  C   UNL     1       4.847  24.993  53.260  1.00  0.00     0.270 C 
HETATM   10  C   UNL     1       7.079  25.365  52.254  1.00  0.00     0.270 C 
ENDBRANCH   6   7
BRANCH   6  11
HETATM   11  C   UNL     1       7.587  22.703  54.405  1.00  0.00    -0.004 A 
HETATM   12  C   UNL     1       8.133  22.093  55.553  1.00  0.00     0.042 A 
HETATM   13 CL   UNL     1       8.158  22.876  57.093  1.00  0.00    -0.084 Cl
HETATM   14  C   UNL     1       8.686  20.809  55.491  1.00  0.00     0.024 A 
HETATM   15  C   UNL     1       8.712  20.111  54.287  1.00  0.00     0.002 A 
HETATM   16  C   UNL     1       8.186  20.695  53.140  1.00  0.00     0.001 A 
HETATM   17  C   UNL     1       7.632  21.976  53.196  1.00  0.00     0.011 A 
ENDBRANCH   6  11
ENDBRANCH   5   6
ENDBRANCH   2   5
BRANCH   1  18
HETATM   18  C   UNL     1       6.859  27.918  57.348  1.00  0.00     0.107 C 
BRANCH  18  19
HETATM   19  C   UNL     1       7.226  29.245  56.695  1.00  0.00     0.052 C 
BRANCH  19  20
HETATM   20  C   UNL     1       8.037  30.109  57.597  1.00  0.00    -0.008 A 
HETATM   21  C   UNL     1       7.594  31.037  58.523  1.00  0.00     0.032 A 
HETATM   22  C   UNL     1       6.236  31.469  58.925  1.00  0.00     0.070 C 
HETATM   23  N   UNL     1       8.720  31.563  59.093  1.00  0.00    -0.282 N 
HETATM   24  H   UNL     1       8.787  32.269  59.821  1.00  0.00     0.189 HD
HETATM   25  N   UNL     1       9.857  31.058  58.601  1.00  0.00    -0.179 NA
HETATM   26  C   UNL     1       9.457  30.161  57.696  1.00  0.00     0.059 A 
HETATM   27  C   UNL     1      10.463  29.377  56.936  1.00  0.00     0.073 C 
ENDBRANCH  19  20
ENDBRANCH  18  19
ENDBRANCH   1  18
TORSDOF 7
ENDMDL
MODEL 9
REMARK VINA RESULT:      -7.6      5.020      8.363
REMARK  7 active torsions:
REMARK  status: ('A' for Active; 'I' for Inactive)
REMARK    1  A    between atoms: C_8  and  C_9 
REMARK    2  A    between atoms: C_9  and  C_10 
REMARK    3  A    between atoms: C_10  and  C_11 
REMARK       I    between atoms: C_11  and  N_12 
REMARK    4  A    between atoms: N_12  and  C_13 
REMARK    5  A    between atoms: C_13  and  C_14 
REMARK    6  A    between atoms: C_14  and  N_15 
REMARK    7  A    between atoms: C_14  and  C_19 
ROOT
HETATM    1  C   UNL     1       6.061  26.307  51.428  1.00  0.00     0.217 C 
HETATM    2  N   UNL     1       7.010  25.318  51.475  1.00  0.00    -0.359 N 
HETATM    3  O   UNL     1       6.224  27.378  52.011  1.00  0.00    -0.274 OA
HETATM    4  H   UNL     1       6.765  24.419  51.067  1.00  0.00     0.162 HD
ENDROOT
BRANCH   2   5
HETATM    5  C   UNL     1       8.171  25.349  52.369  1.00  0.00     0.160 C 
BRANCH   5   6
HETATM    6  C   UNL     1       7.910  24.936  53.866  1.00  0.00     0.239 C 
BRANCH   6   7
HETATM    7  N   UNL     1       6.618  25.570  54.403  1.00  0.00    -0.069 N 
HETATM    8  H   UNL     1       6.246  26.116  53.598  1.00  0.00     0.279 HD
HETATM    9  C   UNL     1       5.501  24.642  54.762  1.00  0.00     0.270 C 
HETATM   10  C   UNL     1       6.851  26.593  55.472  1.00  0.00     0.270 C 
ENDBRANCH   6   7
BRANCH   6  11
HETATM   11  C   UNL     1       7.988  23.429  54.077  1.00  0.00    -0.004 A 
HETATM   12  C   UNL     1       8.301  22.864  55.330  1.00  0.00     0.042 A 
HETATM   13 CL   UNL     1       8.642  23.831  56.721  1.00  0.00    -0.084 Cl
HETATM   14  C   UNL     1       8.351  21.476  55.502  1.00  0.00     0.024 A 
HETATM   15  C   UNL     1       8.097  20.625  54.430  1.00  0.00     0.002 A 
HETATM   16  C   UNL     1       7.793  21.159  53.183  1.00  0.00     0.001 A 
HETATM   17  C   UNL     1       7.742  22.544  53.006  1.00  0.00     0.011 A 
ENDBRANCH   6  11
ENDBRANCH   5   6
ENDBRANCH   2   5
BRANCH   1  18
HETATM   18  C   UNL     1       4.819  25.985  50.638  1.00  0.00     0.107 C 
BRANCH  18  19
HETATM   19  C   UNL     1       4.750  26.875  49.403  1.00  0.00     0.052 C 
BRANCH  19  20
HETATM   20  C   UNL     1       3.357  27.031  48.900  1.00  0.00    -0.008 A 
HETATM   21  C   UNL     1       2.637  26.173  48.089  1.00  0.00     0.032 A 
HETATM   22  C   UNL     1       2.974  24.869  47.474  1.00  0.00     0.070 C 
HETATM   23  N   UNL     1       1.415  26.762  47.914  1.00  0.00    -0.282 N 
HETATM   24  H   UNL     1       0.620  26.419  47.381  1.00  0.00     0.189 HD
HETATM   25  N   UNL     1       1.292  27.939  48.538  1.00  0.00    -0.179 NA
HETATM   26  C   UNL     1       2.464  28.112  49.155  1.00  0.00     0.059 A 
HETATM   27  C   UNL     1       2.699  29.328  49.972  1.00  0.00     0.073 C 
ENDBRANCH  19  20
ENDBRANCH  18  19
ENDBRANCH   1  18
TORSDOF 7
ENDMDL
MODEL 10
REMARK VINA RESULT:      -7.6      2.596      7.780
REMARK  7 active torsions:
REMARK  status: ('A' for Active; 'I' for Inactive)
REMARK    1  A    between atoms: C_8  and  C_9 
REMARK    2  A    between atoms: C_9  and  C_10 
REMARK    3  A    between atoms: C_10  and  C_11 
REMARK       I    between atoms: C_11  and  N_12 
REMARK    4  A    between atoms: N_12  and  C_13 
REMARK    5  A    between atoms: C_13  and  C_14 
REMARK    6  A    between atoms: C_14  and  N_15 
REMARK    7  A    between atoms: C_14  and  C_19 
ROOT
HETATM    1  C   UNL     1       6.062  27.997  57.021  1.00  0.00     0.217 C 
HETATM    2  N   UNL     1       6.738  26.829  57.267  1.00  0.00    -0.359 N 
HETATM    3  O   UNL     1       4.999  28.002  56.403  1.00  0.00    -0.274 OA
HETATM    4  H   UNL     1       7.663  26.905  57.684  1.00  0.00     0.162 HD
ENDROOT
BRANCH   2   5
HETATM    5  C   UNL     1       6.390  25.546  56.651  1.00  0.00     0.160 C 
BRANCH   5   6
HETATM    6  C   UNL     1       7.229  25.129  55.386  1.00  0.00     0.239 C 
BRANCH   6   7
HETATM    7  N   UNL     1       7.694  23.668  55.480  1.00  0.00    -0.069 N 
HETATM    8  H   UNL     1       6.821  23.113  55.360  1.00  0.00     0.279 HD
HETATM    9  C   UNL     1       8.596  23.167  54.398  1.00  0.00     0.270 C 
HETATM   10  C   UNL     1       8.196  23.285  56.839  1.00  0.00     0.270 C 
ENDBRANCH   6   7
BRANCH   6  11
HETATM   11  C   UNL     1       6.520  25.464  54.079  1.00  0.00    -0.004 A 
HETATM   12  C   UNL     1       6.778  26.655  53.372  1.00  0.00     0.042 A 
HETATM   13 CL   UNL     1       7.900  27.842  53.936  1.00  0.00    -0.084 Cl
HETATM   14  C   UNL     1       6.125  26.932  52.165  1.00  0.00     0.024 A 
HETATM   15  C   UNL     1       5.200  26.032  51.644  1.00  0.00     0.002 A 
HETATM   16  C   UNL     1       4.923  24.853  52.327  1.00  0.00     0.001 A 
HETATM   17  C   UNL     1       5.573  24.572  53.531  1.00  0.00     0.011 A 
ENDBRANCH   6  11
ENDBRANCH   5   6
ENDBRANCH   2   5
BRANCH   1  18
HETATM   18  C   UNL     1       6.714  29.252  57.543  1.00  0.00     0.107 C 
BRANCH  18  19
HETATM   19  C   UNL     1       8.028  28.900  58.229  1.00  0.00     0.052 C 
BRANCH  19  20
HETATM   20  C   UNL     1       8.915  30.087  58.383  1.00  0.00    -0.008 A 
HETATM   21  C   UNL     1       8.827  31.109  59.311  1.00  0.00     0.032 A 
HETATM   22  C   UNL     1       7.878  31.368  60.417  1.00  0.00     0.070 C 
HETATM   23  N   UNL     1       9.869  31.952  59.039  1.00  0.00    -0.282 N 
HETATM   24  H   UNL     1      10.127  32.810  59.517  1.00  0.00     0.189 HD
HETATM   25  N   UNL     1      10.617  31.562  58.000  1.00  0.00    -0.179 NA
HETATM   26  C   UNL     1      10.056  30.419  57.597  1.00  0.00     0.059 A 
HETATM   27  C   UNL     1      10.631  29.676  56.449  1.00  0.00     0.073 C 
ENDBRANCH  19  20
ENDBRANCH  18  19
ENDBRANCH   1  18
TORSDOF 7
ENDMDL
