MODEL 1
REMARK VINA RESULT:     -10.8      0.000      0.000
REMARK  6 active torsions:
REMARK  status: ('A' for Active; 'I' for Inactive)
REMARK    1  A    between atoms: O_2  and  C_3 
REMARK    2  A    between atoms: C_6  and  C_7 
REMARK    3  A    between atoms: C_11  and  C_12 
REMARK       I    between atoms: C_12  and  N_13 
REMARK    4  A    between atoms: N_13  and  N_14 
REMARK       I    between atoms: N_14  and  C_15 
REMARK    5  A    between atoms: C_15  and  C_16 
REMARK    6  A    between atoms: C_17  and  C_18 
ROOT
HETATM    1  C   UNL     1       9.244  29.533  57.951  1.00  0.00     0.288 C 
HETATM    2  N   UNL     1       8.221  28.633  57.737  1.00  0.00    -0.262 N 
HETATM    3  O   UNL     1      10.328  29.431  57.374  1.00  0.00    -0.264 OA
HETATM    4  H   UNL     1       7.400  28.585  58.336  1.00  0.00     0.190 HD
ENDROOT
BRANCH   1   5
HETATM    5  C   UNL     1       8.968  30.580  58.894  1.00  0.00     0.121 A 
HETATM    6  N   UNL     1       9.518  31.824  58.762  1.00  0.00    -0.272 N 
HETATM    7  N   UNL     1       9.174  32.684  59.730  1.00  0.00    -0.174 NA
HETATM    8  H   UNL     1      10.144  32.139  58.028  1.00  0.00     0.189 HD
HETATM    9  C   UNL     1       8.344  31.990  60.526  1.00  0.00     0.089 A 
HETATM   10  C   UNL     1       8.193  30.661  60.034  1.00  0.00     0.071 A 
BRANCH   9  11
HETATM   11  C   UNL     1       7.736  32.595  61.717  1.00  0.00    -0.005 A 
HETATM   12  C   UNL     1       8.290  32.418  62.990  1.00  0.00     0.016 A 
HETATM   13  C   UNL     1       7.699  33.011  64.112  1.00  0.00     0.037 A 
HETATM   14  C   UNL     1       6.549  33.792  63.987  1.00  0.00     0.068 A 
HETATM   15  C   UNL     1       5.983  33.967  62.726  1.00  0.00     0.037 A 
HETATM   16  C   UNL     1       6.572  33.371  61.603  1.00  0.00     0.016 A 
BRANCH  14  17
HETATM   17  O   UNL     1       6.082  34.317  65.159  1.00  0.00    -0.356 OA
HETATM   18  C   UNL     1       4.805  33.872  65.598  1.00  0.00     0.210 C 
ENDBRANCH  14  17
ENDBRANCH   9  11
ENDBRANCH   1   5
BRANCH   2  19
HETATM   19  N   UNL     1       8.493  27.487  56.974  1.00  0.00    -0.267 N 
HETATM   20  C   UNL     1       8.095  26.268  57.477  1.00  0.00     0.240 C 
HETATM   21  O   UNL     1       7.389  26.146  58.473  1.00  0.00    -0.271 OA
HETATM   22  H   UNL     1       9.207  27.580  56.256  1.00  0.00     0.190 HD
BRANCH  20  23
HETATM   23  C   UNL     1       8.621  25.092  56.734  1.00  0.00     0.089 A 
HETATM   24  C   UNL     1       7.747  23.863  56.547  1.00  0.00     0.036 A 
HETATM   25  C   UNL     1       8.941  23.820  57.473  1.00  0.00     0.025 A 
BRANCH  24  26
HETATM   26  C   UNL     1       7.777  23.119  55.232  1.00  0.00    -0.015 A 
HETATM   27  C   UNL     1       7.780  21.716  55.181  1.00  0.00     0.123 A 
HETATM   28  F   UNL     1       7.733  21.015  56.324  1.00  0.00    -0.206 F 
HETATM   29  C   UNL     1       7.821  21.016  53.976  1.00  0.00     0.043 A 
HETATM   30  C   UNL     1       7.866  21.715  52.774  1.00  0.00     0.003 A 
HETATM   31  C   UNL     1       7.874  23.108  52.787  1.00  0.00     0.001 A 
HETATM   32  C   UNL     1       7.836  23.799  54.003  1.00  0.00     0.011 A 
ENDBRANCH  24  26
ENDBRANCH  20  23
ENDBRANCH   2  19
TORSDOF 6
ENDMDL
MODEL 2
REMARK VINA RESULT:     -10.6      0.913      1.277
REMARK  6 active torsions:
REMARK  status: ('A' for Active; 'I' for Inactive)
REMARK    1  A    between atoms: O_2  and  C_3 
REMARK    2  A    between atoms: C_6  and  C_7 
REMARK    3  A    between atoms: C_11  and  C_12 
REMARK       I    between atoms: C_12  and  N_13 
REMARK    4  A    between atoms: N_13  and  N_14 
REMARK       I    between atoms: N_14  and  C_15 
REMARK    5  A    between atoms: C_15  and  C_16 
REMARK    6  A    between atoms: C_17  and  C_18 
ROOT
HETATM    1  C   UNL     1       8.614  29.580  58.160  1.00  0.00     0.288 C 
HETATM    2  N   UNL     1       7.796  28.509  57.864  1.00  0.00    -0.262 N 
HETATM    3  O   UNL     1       9.757  29.665  57.709  1.00  0.00    -0.264 OA
HETATM    4  H   UNL     1       6.934  28.322  58.370  1.00  0.00     0.190 HD
ENDROOT
BRANCH   1   5
HETATM    5  C   UNL     1       8.052  30.573  59.031  1.00  0.00     0.121 A 
HETATM    6  N   UNL     1       7.254  31.574  58.552  1.00  0.00    -0.272 N 
HETATM    7  N   UNL     1       6.820  32.428  59.489  1.00  0.00    -0.174 NA
HETATM    8  H   UNL     1       6.977  31.724  57.587  1.00  0.00     0.189 HD
HETATM    9  C   UNL     1       7.334  31.964  60.641  1.00  0.00     0.089 A 
HETATM   10  C   UNL     1       8.117  30.799  60.391  1.00  0.00     0.071 A 
BRANCH   9  11
HETATM   11  C   UNL     1       7.078  32.632  61.921  1.00  0.00    -0.005 A 
HETATM   12  C   UNL     1       5.966  33.464  62.102  1.00  0.00     0.016 A 
HETATM   13  C   UNL     1       5.735  34.086  63.334  1.00  0.00     0.037 A 
HETATM   14  C   UNL     1       6.603  33.888  64.409  1.00  0.00     0.068 A 
HETATM   15  C   UNL     1       7.718  33.070  64.239  1.00  0.00     0.037 A 
HETATM   16  C   UNL     1       7.952  32.450  63.004  1.00  0.00     0.016 A 
BRANCH  14  17
HETATM   17  O   UNL     1       6.256  34.548  65.556  1.00  0.00    -0.356 OA
HETATM   18  C   UNL     1       5.059  34.129  66.198  1.00  0.00     0.210 C 
ENDBRANCH  14  17
ENDBRANCH   9  11
ENDBRANCH   1   5
BRANCH   2  19
HETATM   19  N   UNL     1       8.351  27.420  57.175  1.00  0.00    -0.267 N 
HETATM   20  C   UNL     1       7.525  26.363  56.864  1.00  0.00     0.240 C 
HETATM   21  O   UNL     1       6.308  26.388  57.022  1.00  0.00    -0.271 OA
HETATM   22  H   UNL     1       9.366  27.337  57.200  1.00  0.00     0.190 HD
BRANCH  20  23
HETATM   23  C   UNL     1       8.229  25.158  56.350  1.00  0.00     0.089 A 
HETATM   24  C   UNL     1       7.581  23.790  56.482  1.00  0.00     0.036 A 
HETATM   25  C   UNL     1       8.790  24.148  57.315  1.00  0.00     0.025 A 
BRANCH  24  26
HETATM   26  C   UNL     1       7.703  22.794  55.352  1.00  0.00    -0.015 A 
HETATM   27  C   UNL     1       7.931  21.430  55.596  1.00  0.00     0.123 A 
HETATM   28  F   UNL     1       8.022  20.993  56.861  1.00  0.00    -0.206 F 
HETATM   29  C   UNL     1       8.059  20.502  54.563  1.00  0.00     0.043 A 
HETATM   30  C   UNL     1       7.966  20.924  53.241  1.00  0.00     0.003 A 
HETATM   31  C   UNL     1       7.749  22.272  52.962  1.00  0.00     0.001 A 
HETATM   32  C   UNL     1       7.625  23.194  54.007  1.00  0.00     0.011 A 
ENDBRANCH  24  26
ENDBRANCH  20  23
ENDBRANCH   2  19
TORSDOF 6
ENDMDL
MODEL 3
REMARK VINA RESULT:     -10.3      1.839      2.489
REMARK  6 active torsions:
REMARK  status: ('A' for Active; 'I' for Inactive)
REMARK    1  A    between atoms: O_2  and  C_3 
REMARK    2  A    between atoms: C_6  and  C_7 
REMARK    3  A    between atoms: C_11  and  C_12 
REMARK       I    between atoms: C_12  and  N_13 
REMARK    4  A    between atoms: N_13  and  N_14 
REMARK       I    between atoms: N_14  and  C_15 
REMARK    5  A    between atoms: C_15  and  C_16 
REMARK    6  A    between atoms: C_17  and  C_18 
ROOT
HETATM    1  C   UNL     1       8.286  30.246  59.577  1.00  0.00     0.288 C 
HETATM    2  N   UNL     1       7.484  29.436  58.800  1.00  0.00    -0.262 N 
HETATM    3  O   UNL     1       9.514  30.224  59.483  1.00  0.00    -0.264 OA
HETATM    4  H   UNL     1       6.495  29.299  58.993  1.00  0.00     0.190 HD
ENDROOT
BRANCH   1   5
HETATM    5  C   UNL     1       7.600  31.101  60.505  1.00  0.00     0.121 A 
HETATM    6  N   UNL     1       6.604  31.943  60.098  1.00  0.00    -0.272 N 
HETATM    7  N   UNL     1       6.073  32.684  61.081  1.00  0.00    -0.174 NA
HETATM    8  H   UNL     1       6.251  32.057  59.153  1.00  0.00     0.189 HD
HETATM    9  C   UNL     1       6.728  32.301  62.190  1.00  0.00     0.089 A 
HETATM   10  C   UNL     1       7.698  31.308  61.867  1.00  0.00     0.071 A 
BRANCH   9  11
HETATM   11  C   UNL     1       6.425  32.886  63.501  1.00  0.00    -0.005 A 
HETATM   12  C   UNL     1       5.106  33.037  63.946  1.00  0.00     0.016 A 
HETATM   13  C   UNL     1       4.839  33.589  65.205  1.00  0.00     0.037 A 
HETATM   14  C   UNL     1       5.878  33.997  66.042  1.00  0.00     0.068 A 
HETATM   15  C   UNL     1       7.194  33.860  65.607  1.00  0.00     0.037 A 
HETATM   16  C   UNL     1       7.462  33.311  64.345  1.00  0.00     0.016 A 
BRANCH  14  17
HETATM   17  O   UNL     1       5.477  34.511  67.245  1.00  0.00    -0.356 OA
HETATM   18  C   UNL     1       4.788  35.754  67.213  1.00  0.00     0.210 C 
ENDBRANCH  14  17
ENDBRANCH   9  11
ENDBRANCH   1   5
BRANCH   2  19
HETATM   19  N   UNL     1       8.099  28.451  58.013  1.00  0.00    -0.267 N 
HETATM   20  C   UNL     1       7.289  27.602  57.292  1.00  0.00     0.240 C 
HETATM   21  O   UNL     1       6.077  27.756  57.182  1.00  0.00    -0.271 OA
HETATM   22  H   UNL     1       9.067  28.229  58.239  1.00  0.00     0.190 HD
BRANCH  20  23
HETATM   23  C   UNL     1       7.997  26.448  56.676  1.00  0.00     0.089 A 
HETATM   24  C   UNL     1       7.285  25.112  56.535  1.00  0.00     0.036 A 
HETATM   25  C   UNL     1       8.411  25.279  57.530  1.00  0.00     0.025 A 
BRANCH  24  26
HETATM   26  C   UNL     1       7.489  24.285  55.287  1.00  0.00    -0.015 A 
HETATM   27  C   UNL     1       6.713  24.489  54.136  1.00  0.00     0.123 A 
HETATM   28  F   UNL     1       5.781  25.454  54.131  1.00  0.00    -0.206 F 
HETATM   29  C   UNL     1       6.881  23.724  52.981  1.00  0.00     0.043 A 
HETATM   30  C   UNL     1       7.841  22.718  52.954  1.00  0.00     0.003 A 
HETATM   31  C   UNL     1       8.624  22.483  54.083  1.00  0.00     0.001 A 
HETATM   32  C   UNL     1       8.443  23.254  55.236  1.00  0.00     0.011 A 
ENDBRANCH  24  26
ENDBRANCH  20  23
ENDBRANCH   2  19
TORSDOF 6
ENDMDL
MODEL 4
REMARK VINA RESULT:     -10.1      3.642     11.540
REMARK  6 active torsions:
REMARK  status: ('A' for Active; 'I' for Inactive)
REMARK    1  A    between atoms: O_2  and  C_3 
REMARK    2  A    between atoms: C_6  and  C_7 
REMARK    3  A    between atoms: C_11  and  C_12 
REMARK       I    between atoms: C_12  and  N_13 
REMARK    4  A    between atoms: N_13  and  N_14 
REMARK       I    between atoms: N_14  and  C_15 
REMARK    5  A    between atoms: C_15  and  C_16 
REMARK    6  A    between atoms: C_17  and  C_18 
ROOT
HETATM    1  C   UNL     1       5.739  29.819  56.883  1.00  0.00     0.288 C 
HETATM    2  N   UNL     1       6.513  30.274  57.931  1.00  0.00    -0.262 N 
HETATM    3  O   UNL     1       4.599  30.243  56.689  1.00  0.00    -0.264 OA
HETATM    4  H   UNL     1       7.368  29.807  58.222  1.00  0.00     0.190 HD
ENDROOT
BRANCH   1   5
HETATM    5  C   UNL     1       6.342  28.817  56.050  1.00  0.00     0.121 A 
HETATM    6  N   UNL     1       7.332  29.128  55.162  1.00  0.00    -0.272 N 
HETATM    7  N   UNL     1       7.780  28.085  54.449  1.00  0.00    -0.174 NA
HETATM    8  H   UNL     1       7.737  30.044  54.997  1.00  0.00     0.189 HD
HETATM    9  C   UNL     1       7.073  27.034  54.898  1.00  0.00     0.089 A 
HETATM   10  C   UNL     1       6.156  27.456  55.904  1.00  0.00     0.071 A 
BRANCH   9  11
HETATM   11  C   UNL     1       7.279  25.684  54.361  1.00  0.00    -0.005 A 
HETATM   12  C   UNL     1       7.766  25.480  53.065  1.00  0.00     0.016 A 
HETATM   13  C   UNL     1       7.963  24.183  52.574  1.00  0.00     0.037 A 
HETATM   14  C   UNL     1       7.683  23.069  53.367  1.00  0.00     0.068 A 
HETATM   15  C   UNL     1       7.190  23.259  54.655  1.00  0.00     0.037 A 
HETATM   16  C   UNL     1       6.989  24.557  55.145  1.00  0.00     0.016 A 
BRANCH  14  17
HETATM   17  O   UNL     1       7.929  21.864  52.768  1.00  0.00    -0.356 OA
HETATM   18  C   UNL     1       7.881  20.713  53.601  1.00  0.00     0.210 C 
ENDBRANCH  14  17
ENDBRANCH   9  11
ENDBRANCH   1   5
BRANCH   2  19
HETATM   19  N   UNL     1       5.914  31.110  58.885  1.00  0.00    -0.267 N 
HETATM   20  C   UNL     1       6.701  32.059  59.497  1.00  0.00     0.240 C 
HETATM   21  O   UNL     1       7.850  32.313  59.146  1.00  0.00    -0.271 OA
HETATM   22  H   UNL     1       5.032  30.788  59.280  1.00  0.00     0.190 HD
BRANCH  20  23
HETATM   23  C   UNL     1       6.061  32.741  60.653  1.00  0.00     0.089 A 
HETATM   24  C   UNL     1       5.850  31.986  61.955  1.00  0.00     0.036 A 
HETATM   25  C   UNL     1       4.672  32.349  61.081  1.00  0.00     0.025 A 
BRANCH  24  26
HETATM   26  C   UNL     1       6.067  32.693  63.272  1.00  0.00    -0.015 A 
HETATM   27  C   UNL     1       7.355  32.945  63.769  1.00  0.00     0.123 A 
HETATM   28  F   UNL     1       8.424  32.569  63.049  1.00  0.00    -0.206 F 
HETATM   29  C   UNL     1       7.570  33.584  64.990  1.00  0.00     0.043 A 
HETATM   30  C   UNL     1       6.482  33.988  65.757  1.00  0.00     0.003 A 
HETATM   31  C   UNL     1       5.189  33.747  65.299  1.00  0.00     0.001 A 
HETATM   32  C   UNL     1       4.987  33.101  64.074  1.00  0.00     0.011 A 
ENDBRANCH  24  26
ENDBRANCH  20  23
ENDBRANCH   2  19
TORSDOF 6
ENDMDL
MODEL 5
REMARK VINA RESULT:      -9.7      3.461     11.465
REMARK  6 active torsions:
REMARK  status: ('A' for Active; 'I' for Inactive)
REMARK    1  A    between atoms: O_2  and  C_3 
REMARK    2  A    between atoms: C_6  and  C_7 
REMARK    3  A    between atoms: C_11  and  C_12 
REMARK       I    between atoms: C_12  and  N_13 
REMARK    4  A    between atoms: N_13  and  N_14 
REMARK       I    between atoms: N_14  and  C_15 
REMARK    5  A    between atoms: C_15  and  C_16 
REMARK    6  A    between atoms: C_17  and  C_18 
ROOT
HETATM    1  C   UNL     1       6.573  29.698  57.429  1.00  0.00     0.288 C 
HETATM    2  N   UNL     1       7.527  29.929  58.400  1.00  0.00    -0.262 N 
HETATM    3  O   UNL     1       5.496  30.295  57.425  1.00  0.00    -0.264 OA
HETATM    4  H   UNL     1       8.329  29.319  58.534  1.00  0.00     0.190 HD
ENDROOT
BRANCH   1   5
HETATM    5  C   UNL     1       6.914  28.713  56.441  1.00  0.00     0.121 A 
HETATM    6  N   UNL     1       7.510  29.061  55.262  1.00  0.00    -0.272 N 
HETATM    7  N   UNL     1       7.750  28.030  54.441  1.00  0.00    -0.174 NA
HETATM    8  H   UNL     1       7.771  29.996  54.963  1.00  0.00     0.189 HD
HETATM    9  C   UNL     1       7.316  26.950  55.111  1.00  0.00     0.089 A 
HETATM   10  C   UNL     1       6.780  27.341  56.373  1.00  0.00     0.071 A 
BRANCH   9  11
HETATM   11  C   UNL     1       7.412  25.601  54.541  1.00  0.00    -0.005 A 
HETATM   12  C   UNL     1       7.753  25.399  53.198  1.00  0.00     0.016 A 
HETATM   13  C   UNL     1       7.847  24.104  52.675  1.00  0.00     0.037 A 
HETATM   14  C   UNL     1       7.608  22.988  53.479  1.00  0.00     0.068 A 
HETATM   15  C   UNL     1       7.259  23.177  54.814  1.00  0.00     0.037 A 
HETATM   16  C   UNL     1       7.160  24.474  55.337  1.00  0.00     0.016 A 
BRANCH  14  17
HETATM   17  O   UNL     1       7.742  21.785  52.845  1.00  0.00    -0.356 OA
HETATM   18  C   UNL     1       8.300  20.719  53.602  1.00  0.00     0.210 C 
ENDBRANCH  14  17
ENDBRANCH   9  11
ENDBRANCH   1   5
BRANCH   2  19
HETATM   19  N   UNL     1       7.179  30.736  59.493  1.00  0.00    -0.267 N 
HETATM   20  C   UNL     1       8.060  30.807  60.549  1.00  0.00     0.240 C 
HETATM   21  O   UNL     1       9.189  30.328  60.520  1.00  0.00    -0.271 OA
HETATM   22  H   UNL     1       6.196  30.985  59.579  1.00  0.00     0.190 HD
BRANCH  20  23
HETATM   23  C   UNL     1       7.522  31.486  61.758  1.00  0.00     0.089 A 
HETATM   24  C   UNL     1       7.662  32.992  61.905  1.00  0.00     0.036 A 
HETATM   25  C   UNL     1       8.468  32.060  62.780  1.00  0.00     0.025 A 
BRANCH  24  26
HETATM   26  C   UNL     1       6.524  33.794  62.493  1.00  0.00    -0.015 A 
HETATM   27  C   UNL     1       5.410  34.163  61.724  1.00  0.00     0.123 A 
HETATM   28  F   UNL     1       5.338  33.778  60.440  1.00  0.00    -0.206 F 
HETATM   29  C   UNL     1       4.359  34.914  62.249  1.00  0.00     0.043 A 
HETATM   30  C   UNL     1       4.402  35.325  63.577  1.00  0.00     0.003 A 
HETATM   31  C   UNL     1       5.498  34.984  64.368  1.00  0.00     0.001 A 
HETATM   32  C   UNL     1       6.547  34.233  63.828  1.00  0.00     0.011 A 
ENDBRANCH  24  26
ENDBRANCH  20  23
ENDBRANCH   2  19
TORSDOF 6
ENDMDL
MODEL 6
REMARK VINA RESULT:      -9.6      2.957      3.420
REMARK  6 active torsions:
REMARK  status: ('A' for Active; 'I' for Inactive)
REMARK    1  A    between atoms: O_2  and  C_3 
REMARK    2  A    between atoms: C_6  and  C_7 
REMARK    3  A    between atoms: C_11  and  C_12 
REMARK       I    between atoms: C_12  and  N_13 
REMARK    4  A    between atoms: N_13  and  N_14 
REMARK       I    between atoms: N_14  and  C_15 
REMARK    5  A    between atoms: C_15  and  C_16 
REMARK    6  A    between atoms: C_17  and  C_18 
ROOT
HETATM    1  C   UNL     1       4.805  29.179  56.223  1.00  0.00     0.288 C 
HETATM    2  N   UNL     1       4.645  27.842  56.526  1.00  0.00    -0.262 N 
HETATM    3  O   UNL     1       5.151  29.552  55.101  1.00  0.00    -0.264 OA
HETATM    4  H   UNL     1       4.550  27.506  57.481  1.00  0.00     0.190 HD
ENDROOT
BRANCH   1   5
HETATM    5  C   UNL     1       4.555  30.098  57.297  1.00  0.00     0.121 A 
HETATM    6  N   UNL     1       3.307  30.250  57.832  1.00  0.00    -0.272 N 
HETATM    7  N   UNL     1       3.236  31.155  58.817  1.00  0.00    -0.174 NA
HETATM    8  H   UNL     1       2.461  29.761  57.554  1.00  0.00     0.189 HD
HETATM    9  C   UNL     1       4.493  31.607  58.958  1.00  0.00     0.089 A 
HETATM   10  C   UNL     1       5.351  30.967  58.017  1.00  0.00     0.071 A 
BRANCH   9  11
HETATM   11  C   UNL     1       4.837  32.623  59.960  1.00  0.00    -0.005 A 
HETATM   12  C   UNL     1       5.930  32.461  60.819  1.00  0.00     0.016 A 
HETATM   13  C   UNL     1       6.247  33.447  61.762  1.00  0.00     0.037 A 
HETATM   14  C   UNL     1       5.483  34.611  61.863  1.00  0.00     0.068 A 
HETATM   15  C   UNL     1       4.388  34.779  61.020  1.00  0.00     0.037 A 
HETATM   16  C   UNL     1       4.068  33.791  60.078  1.00  0.00     0.016 A 
BRANCH  14  17
HETATM   17  O   UNL     1       5.907  35.492  62.819  1.00  0.00    -0.356 OA
HETATM   18  C   UNL     1       6.124  34.969  64.123  1.00  0.00     0.210 C 
ENDBRANCH  14  17
ENDBRANCH   9  11
ENDBRANCH   1   5
BRANCH   2  19
HETATM   19  N   UNL     1       5.054  26.893  55.577  1.00  0.00    -0.267 N 
HETATM   20  C   UNL     1       5.414  25.643  56.029  1.00  0.00     0.240 C 
HETATM   21  O   UNL     1       5.252  25.271  57.187  1.00  0.00    -0.271 OA
HETATM   22  H   UNL     1       5.339  27.253  54.669  1.00  0.00     0.190 HD
BRANCH  20  23
HETATM   23  C   UNL     1       6.054  24.776  55.005  1.00  0.00     0.089 A 
HETATM   24  C   UNL     1       7.463  24.253  55.230  1.00  0.00     0.036 A 
HETATM   25  C   UNL     1       7.196  25.307  54.180  1.00  0.00     0.025 A 
BRANCH  24  26
HETATM   26  C   UNL     1       7.810  22.841  54.819  1.00  0.00    -0.015 A 
HETATM   27  C   UNL     1       8.115  21.853  55.768  1.00  0.00     0.123 A 
HETATM   28  F   UNL     1       8.079  22.159  57.074  1.00  0.00    -0.206 F 
HETATM   29  C   UNL     1       8.450  20.549  55.403  1.00  0.00     0.043 A 
HETATM   30  C   UNL     1       8.493  20.199  54.058  1.00  0.00     0.003 A 
HETATM   31  C   UNL     1       8.204  21.157  53.088  1.00  0.00     0.001 A 
HETATM   32  C   UNL     1       7.873  22.462  53.467  1.00  0.00     0.011 A 
ENDBRANCH  24  26
ENDBRANCH  20  23
ENDBRANCH   2  19
TORSDOF 6
ENDMDL
MODEL 7
REMARK VINA RESULT:      -9.4      3.489     11.583
REMARK  6 active torsions:
REMARK  status: ('A' for Active; 'I' for Inactive)
REMARK    1  A    between atoms: O_2  and  C_3 
REMARK    2  A    between atoms: C_6  and  C_7 
REMARK    3  A    between atoms: C_11  and  C_12 
REMARK       I    between atoms: C_12  and  N_13 
REMARK    4  A    between atoms: N_13  and  N_14 
REMARK       I    between atoms: N_14  and  C_15 
REMARK    5  A    between atoms: C_15  and  C_16 
REMARK    6  A    between atoms: C_17  and  C_18 
ROOT
HETATM    1  C   UNL     1       7.352  28.918  57.883  1.00  0.00     0.288 C 
HETATM    2  N   UNL     1       6.250  29.748  57.901  1.00  0.00    -0.262 N 
HETATM    3  O   UNL     1       8.220  28.975  58.755  1.00  0.00    -0.264 OA
HETATM    4  H   UNL     1       5.630  29.851  57.102  1.00  0.00     0.190 HD
ENDROOT
BRANCH   1   5
HETATM    5  C   UNL     1       7.425  27.999  56.782  1.00  0.00     0.121 A 
HETATM    6  N   UNL     1       7.477  28.437  55.489  1.00  0.00    -0.272 N 
HETATM    7  N   UNL     1       7.527  27.456  54.577  1.00  0.00    -0.174 NA
HETATM    8  H   UNL     1       7.473  29.401  55.171  1.00  0.00     0.189 HD
HETATM    9  C   UNL     1       7.531  26.321  55.295  1.00  0.00     0.089 A 
HETATM   10  C   UNL     1       7.465  26.622  56.687  1.00  0.00     0.071 A 
BRANCH   9  11
HETATM   11  C   UNL     1       7.588  25.004  54.650  1.00  0.00    -0.005 A 
HETATM   12  C   UNL     1       7.438  23.823  55.387  1.00  0.00     0.016 A 
HETATM   13  C   UNL     1       7.487  22.576  54.752  1.00  0.00     0.037 A 
HETATM   14  C   UNL     1       7.682  22.483  53.373  1.00  0.00     0.068 A 
HETATM   15  C   UNL     1       7.842  23.651  52.631  1.00  0.00     0.037 A 
HETATM   16  C   UNL     1       7.797  24.899  53.267  1.00  0.00     0.016 A 
BRANCH  14  17
HETATM   17  O   UNL     1       7.701  21.208  52.881  1.00  0.00    -0.356 OA
HETATM   18  C   UNL     1       8.782  20.379  53.289  1.00  0.00     0.210 C 
ENDBRANCH  14  17
ENDBRANCH   9  11
ENDBRANCH   1   5
BRANCH   2  19
HETATM   19  N   UNL     1       6.217  30.788  58.842  1.00  0.00    -0.267 N 
HETATM   20  C   UNL     1       5.134  31.639  58.826  1.00  0.00     0.240 C 
HETATM   21  O   UNL     1       4.135  31.447  58.142  1.00  0.00    -0.271 OA
HETATM   22  H   UNL     1       7.104  31.034  59.278  1.00  0.00     0.190 HD
BRANCH  20  23
HETATM   23  C   UNL     1       5.282  32.843  59.686  1.00  0.00     0.089 A 
HETATM   24  C   UNL     1       4.468  32.966  60.963  1.00  0.00     0.036 A 
HETATM   25  C   UNL     1       4.162  33.845  59.773  1.00  0.00     0.025 A 
BRANCH  24  26
HETATM   26  C   UNL     1       5.103  33.554  62.201  1.00  0.00    -0.015 A 
HETATM   27  C   UNL     1       5.436  32.757  63.307  1.00  0.00     0.123 A 
HETATM   28  F   UNL     1       5.205  31.436  63.261  1.00  0.00    -0.206 F 
HETATM   29  C   UNL     1       6.011  33.289  64.461  1.00  0.00     0.043 A 
HETATM   30  C   UNL     1       6.265  34.654  64.538  1.00  0.00     0.003 A 
HETATM   31  C   UNL     1       5.940  35.477  63.462  1.00  0.00     0.001 A 
HETATM   32  C   UNL     1       5.360  34.932  62.311  1.00  0.00     0.011 A 
ENDBRANCH  24  26
ENDBRANCH  20  23
ENDBRANCH   2  19
TORSDOF 6
ENDMDL
MODEL 8
REMARK VINA RESULT:      -9.3      2.122      2.626
REMARK  6 active torsions:
REMARK  status: ('A' for Active; 'I' for Inactive)
REMARK    1  A    between atoms: O_2  and  C_3 
REMARK    2  A    between atoms: C_6  and  C_7 
REMARK    3  A    between atoms: C_11  and  C_12 
REMARK       I    between atoms: C_12  and  N_13 
REMARK    4  A    between atoms: N_13  and  N_14 
REMARK       I    between atoms: N_14  and  C_15 
REMARK    5  A    between atoms: C_15  and  C_16 
REMARK    6  A    between atoms: C_17  and  C_18 
ROOT
HETATM    1  C   UNL     1       8.284  30.109  59.094  1.00  0.00     0.288 C 
HETATM    2  N   UNL     1       7.520  29.094  58.555  1.00  0.00    -0.262 N 
HETATM    3  O   UNL     1       9.464  30.268  58.781  1.00  0.00    -0.264 OA
HETATM    4  H   UNL     1       6.616  28.828  58.936  1.00  0.00     0.190 HD
ENDROOT
BRANCH   1   5
HETATM    5  C   UNL     1       7.618  30.954  60.045  1.00  0.00     0.121 A 
HETATM    6  N   UNL     1       7.720  30.735  61.390  1.00  0.00    -0.272 N 
HETATM    7  N   UNL     1       7.028  31.602  62.143  1.00  0.00    -0.174 NA
HETATM    8  H   UNL     1       8.247  29.999  61.849  1.00  0.00     0.189 HD
HETATM    9  C   UNL     1       6.462  32.444  61.263  1.00  0.00     0.089 A 
HETATM   10  C   UNL     1       6.807  32.067  59.933  1.00  0.00     0.071 A 
BRANCH   9  11
HETATM   11  C   UNL     1       5.615  33.559  61.703  1.00  0.00    -0.005 A 
HETATM   12  C   UNL     1       6.169  34.766  62.145  1.00  0.00     0.016 A 
HETATM   13  C   UNL     1       5.344  35.822  62.552  1.00  0.00     0.037 A 
HETATM   14  C   UNL     1       3.954  35.695  62.523  1.00  0.00     0.068 A 
HETATM   15  C   UNL     1       3.391  34.496  62.093  1.00  0.00     0.037 A 
HETATM   16  C   UNL     1       4.217  33.437  61.689  1.00  0.00     0.016 A 
BRANCH  14  17
HETATM   17  O   UNL     1       3.269  36.803  62.939  1.00  0.00    -0.356 OA
HETATM   18  C   UNL     1       3.524  38.014  62.241  1.00  0.00     0.210 C 
ENDBRANCH  14  17
ENDBRANCH   9  11
ENDBRANCH   1   5
BRANCH   2  19
HETATM   19  N   UNL     1       8.163  28.127  57.767  1.00  0.00    -0.267 N 
HETATM   20  C   UNL     1       7.401  27.098  57.260  1.00  0.00     0.240 C 
HETATM   21  O   UNL     1       6.177  27.065  57.332  1.00  0.00    -0.271 OA
HETATM   22  H   UNL     1       9.176  28.072  57.854  1.00  0.00     0.190 HD
BRANCH  20  23
HETATM   23  C   UNL     1       8.185  25.997  56.639  1.00  0.00     0.089 A 
HETATM   24  C   UNL     1       7.623  24.584  56.624  1.00  0.00     0.036 A 
HETATM   25  C   UNL     1       8.799  24.931  57.508  1.00  0.00     0.025 A 
BRANCH  24  26
HETATM   26  C   UNL     1       7.820  23.716  55.403  1.00  0.00    -0.015 A 
HETATM   27  C   UNL     1       7.036  23.880  54.250  1.00  0.00     0.123 A 
HETATM   28  F   UNL     1       6.103  24.844  54.219  1.00  0.00    -0.206 F 
HETATM   29  C   UNL     1       7.197  23.077  53.121  1.00  0.00     0.043 A 
HETATM   30  C   UNL     1       8.159  22.072  53.121  1.00  0.00     0.003 A 
HETATM   31  C   UNL     1       8.949  21.876  54.252  1.00  0.00     0.001 A 
HETATM   32  C   UNL     1       8.775  22.685  55.380  1.00  0.00     0.011 A 
ENDBRANCH  24  26
ENDBRANCH  20  23
ENDBRANCH   2  19
TORSDOF 6
ENDMDL
MODEL 9
REMARK VINA RESULT:      -9.1      7.844     11.731
REMARK  6 active torsions:
REMARK  status: ('A' for Active; 'I' for Inactive)
REMARK    1  A    between atoms: O_2  and  C_3 
REMARK    2  A    between atoms: C_6  and  C_7 
REMARK    3  A    between atoms: C_11  and  C_12 
REMARK       I    between atoms: C_12  and  N_13 
REMARK    4  A    between atoms: N_13  and  N_14 
REMARK       I    between atoms: N_14  and  C_15 
REMARK    5  A    between atoms: C_15  and  C_16 
REMARK    6  A    between atoms: C_17  and  C_18 
ROOT
HETATM    1  C   UNL     1       5.029  25.956  50.466  1.00  0.00     0.288 C 
HETATM    2  N   UNL     1       6.251  26.253  51.035  1.00  0.00    -0.262 N 
HETATM    3  O   UNL     1       4.322  25.042  50.891  1.00  0.00    -0.264 OA
HETATM    4  H   UNL     1       6.928  26.866  50.587  1.00  0.00     0.190 HD
ENDROOT
BRANCH   1   5
HETATM    5  C   UNL     1       4.647  26.770  49.347  1.00  0.00     0.121 A 
HETATM    6  N   UNL     1       5.302  26.692  48.150  1.00  0.00    -0.272 N 
HETATM    7  N   UNL     1       4.834  27.527  47.211  1.00  0.00    -0.174 NA
HETATM    8  H   UNL     1       6.084  26.087  47.922  1.00  0.00     0.189 HD
HETATM    9  C   UNL     1       3.813  28.169  47.801  1.00  0.00     0.089 A 
HETATM   10  C   UNL     1       3.666  27.722  49.146  1.00  0.00     0.071 A 
BRANCH   9  11
HETATM   11  C   UNL     1       3.024  29.179  47.086  1.00  0.00    -0.005 A 
HETATM   12  C   UNL     1       1.646  29.026  46.892  1.00  0.00     0.016 A 
HETATM   13  C   UNL     1       0.910  30.005  46.214  1.00  0.00     0.037 A 
HETATM   14  C   UNL     1       1.531  31.154  45.722  1.00  0.00     0.068 A 
HETATM   15  C   UNL     1       2.903  31.313  45.901  1.00  0.00     0.037 A 
HETATM   16  C   UNL     1       3.641  30.331  46.576  1.00  0.00     0.016 A 
BRANCH  14  17
HETATM   17  O   UNL     1       0.695  32.031  45.089  1.00  0.00    -0.356 OA
HETATM   18  C   UNL     1       1.083  32.465  43.791  1.00  0.00     0.210 C 
ENDBRANCH  14  17
ENDBRANCH   9  11
ENDBRANCH   1   5
BRANCH   2  19
HETATM   19  N   UNL     1       6.761  25.378  52.006  1.00  0.00    -0.267 N 
HETATM   20  C   UNL     1       7.097  25.902  53.234  1.00  0.00     0.240 C 
HETATM   21  O   UNL     1       6.835  27.052  53.573  1.00  0.00    -0.271 OA
HETATM   22  H   UNL     1       7.123  24.488  51.669  1.00  0.00     0.190 HD
BRANCH  20  23
HETATM   23  C   UNL     1       7.843  24.969  54.121  1.00  0.00     0.089 A 
HETATM   24  C   UNL     1       7.094  23.888  54.882  1.00  0.00     0.036 A 
HETATM   25  C   UNL     1       7.688  25.069  55.615  1.00  0.00     0.025 A 
BRANCH  24  26
HETATM   26  C   UNL     1       7.709  22.515  55.027  1.00  0.00    -0.015 A 
HETATM   27  C   UNL     1       7.840  21.648  53.931  1.00  0.00     0.123 A 
HETATM   28  F   UNL     1       7.430  22.052  52.719  1.00  0.00    -0.206 F 
HETATM   29  C   UNL     1       8.393  20.374  54.053  1.00  0.00     0.043 A 
HETATM   30  C   UNL     1       8.829  19.928  55.296  1.00  0.00     0.003 A 
HETATM   31  C   UNL     1       8.707  20.759  56.408  1.00  0.00     0.001 A 
HETATM   32  C   UNL     1       8.147  22.034  56.273  1.00  0.00     0.011 A 
ENDBRANCH  24  26
ENDBRANCH  20  23
ENDBRANCH   2  19
TORSDOF 6
ENDMDL
MODEL 10
REMARK VINA RESULT:      -9.0      3.433      4.069
REMARK  6 active torsions:
REMARK  status: ('A' for Active; 'I' for Inactive)
REMARK    1  A    between atoms: O_2  and  C_3 
REMARK    2  A    between atoms: C_6  and  C_7 
REMARK    3  A    between atoms: C_11  and  C_12 
REMARK       I    between atoms: C_12  and  N_13 
REMARK    4  A    between atoms: N_13  and  N_14 
REMARK       I    between atoms: N_14  and  C_15 
REMARK    5  A    between atoms: C_15  and  C_16 
REMARK    6  A    between atoms: C_17  and  C_18 
ROOT
HETATM    1  C   UNL     1       6.216  28.305  57.059  1.00  0.00     0.288 C 
HETATM    2  N   UNL     1       7.366  27.934  56.393  1.00  0.00    -0.262 N 
HETATM    3  O   UNL     1       5.302  27.506  57.268  1.00  0.00    -0.264 OA
HETATM    4  H   UNL     1       8.039  28.612  56.044  1.00  0.00     0.190 HD
ENDROOT
BRANCH   1   5
HETATM    5  C   UNL     1       6.151  29.677  57.478  1.00  0.00     0.121 A 
HETATM    6  N   UNL     1       7.252  30.331  57.955  1.00  0.00    -0.272 N 
HETATM    7  N   UNL     1       7.024  31.601  58.317  1.00  0.00    -0.174 NA
HETATM    8  H   UNL     1       8.187  29.952  58.062  1.00  0.00     0.189 HD
HETATM    9  C   UNL     1       5.723  31.806  58.049  1.00  0.00     0.089 A 
HETATM   10  C   UNL     1       5.140  30.617  57.522  1.00  0.00     0.071 A 
BRANCH   9  11
HETATM   11  C   UNL     1       5.080  33.099  58.304  1.00  0.00    -0.005 A 
HETATM   12  C   UNL     1       4.728  33.497  59.600  1.00  0.00     0.016 A 
HETATM   13  C   UNL     1       4.123  34.739  59.824  1.00  0.00     0.037 A 
HETATM   14  C   UNL     1       3.862  35.609  58.764  1.00  0.00     0.068 A 
HETATM   15  C   UNL     1       4.200  35.221  57.469  1.00  0.00     0.037 A 
HETATM   16  C   UNL     1       4.802  33.975  57.244  1.00  0.00     0.016 A 
BRANCH  14  17
HETATM   17  O   UNL     1       3.276  36.791  59.123  1.00  0.00    -0.356 OA
HETATM   18  C   UNL     1       2.816  36.897  60.464  1.00  0.00     0.210 C 
ENDBRANCH  14  17
ENDBRANCH   9  11
ENDBRANCH   1   5
BRANCH   2  19
HETATM   19  N   UNL     1       7.408  26.664  55.797  1.00  0.00    -0.267 N 
HETATM   20  C   UNL     1       7.091  26.568  54.461  1.00  0.00     0.240 C 
HETATM   21  O   UNL     1       6.923  27.542  53.734  1.00  0.00    -0.271 OA
HETATM   22  H   UNL     1       7.383  25.866  56.429  1.00  0.00     0.190 HD
BRANCH  20  23
HETATM   23  C   UNL     1       6.930  25.176  53.963  1.00  0.00     0.089 A 
HETATM   24  C   UNL     1       8.143  24.406  53.464  1.00  0.00     0.036 A 
HETATM   25  C   UNL     1       7.085  24.881  52.494  1.00  0.00     0.025 A 
BRANCH  24  26
HETATM   26  C   UNL     1       8.276  22.935  53.783  1.00  0.00    -0.015 A 
HETATM   27  C   UNL     1       8.878  22.492  54.971  1.00  0.00     0.123 A 
HETATM   28  F   UNL     1       9.329  23.393  55.858  1.00  0.00    -0.206 F 
HETATM   29  C   UNL     1       9.020  21.137  55.272  1.00  0.00     0.043 A 
HETATM   30  C   UNL     1       8.560  20.180  54.375  1.00  0.00     0.003 A 
HETATM   31  C   UNL     1       7.965  20.584  53.182  1.00  0.00     0.001 A 
HETATM   32  C   UNL     1       7.831  21.945  52.889  1.00  0.00     0.011 A 
ENDBRANCH  24  26
ENDBRANCH  20  23
ENDBRANCH   2  19
TORSDOF 6
ENDMDL
