MODEL 1
REMARK VINA RESULT:      -9.1      0.000      0.000
REMARK  8 active torsions:
REMARK  status: ('A' for Active; 'I' for Inactive)
REMARK    1  A    between atoms: O_2  and  C_3 
REMARK    2  A    between atoms: C_7  and  C_9 
REMARK    3  A    between atoms: C_9  and  C_10 
REMARK    4  A    between atoms: C_9  and  N_18 
REMARK    5  A    between atoms: C_10  and  C_11 
REMARK    6  A    between atoms: C_11  and  N_12 
REMARK       I    between atoms: N_18  and  C_19 
REMARK    7  A    between atoms: C_19  and  C_21 
REMARK    8  A    between atoms: C_24  and  C_27 
ROOT
HETATM    1  C   UNL     1       6.589  25.931  53.703  1.00  0.00     0.119 C 
ENDROOT
BRANCH   1   2
HETATM    2  C   UNL     1       7.312  24.620  53.976  1.00  0.00    -0.033 A 
HETATM    3  C   UNL     1       7.759  23.758  52.965  1.00  0.00     0.009 A 
HETATM    4  C   UNL     1       8.402  22.562  53.287  1.00  0.00     0.003 A 
HETATM    5  C   UNL     1       8.585  22.203  54.622  1.00  0.00     0.037 A 
HETATM    6  C   UNL     1       8.121  23.026  55.646  1.00  0.00     0.068 A 
HETATM    7  C   UNL     1       7.496  24.231  55.321  1.00  0.00     0.046 A 
BRANCH   6   8
HETATM    8  O   UNL     1       8.341  22.550  56.907  1.00  0.00    -0.356 OA
HETATM    9  C   UNL     1       8.425  21.137  57.060  1.00  0.00     0.210 C 
ENDBRANCH   6   8
ENDBRANCH   1   2
BRANCH   1  10
HETATM   10  C   UNL     1       5.081  25.788  53.387  1.00  0.00     0.057 C 
BRANCH  10  11
HETATM   11  C   UNL     1       4.497  27.068  52.792  1.00  0.00     0.237 C 
BRANCH  11  12
HETATM   12  N   UNL     1       5.416  27.643  51.736  1.00  0.00    -0.071 N 
HETATM   13  H   UNL     1       6.375  27.341  51.957  1.00  0.00     0.279 HD
HETATM   14  C   UNL     1       5.425  29.157  51.624  1.00  0.00     0.235 C 
HETATM   15  C   UNL     1       5.009  29.449  50.194  1.00  0.00     0.029 C 
HETATM   16  C   UNL     1       5.471  28.230  49.424  1.00  0.00     0.029 C 
HETATM   17  C   UNL     1       5.100  27.095  50.354  1.00  0.00     0.235 C 
ENDBRANCH  11  12
ENDBRANCH  10  11
ENDBRANCH   1  10
BRANCH   1  18
HETATM   18  N   UNL     1       6.810  26.814  54.841  1.00  0.00    -0.348 N 
HETATM   19  C   UNL     1       7.601  27.938  54.755  1.00  0.00     0.252 C 
HETATM   20  O   UNL     1       8.063  28.323  53.684  1.00  0.00    -0.268 OA
HETATM   21  H   UNL     1       6.394  26.546  55.724  1.00  0.00     0.163 HD
BRANCH  19  22
HETATM   22  C   UNL     1       7.792  28.737  55.997  1.00  0.00     0.032 A 
HETATM   23  C   UNL     1       9.046  28.947  56.578  1.00  0.00     0.018 A 
HETATM   24  C   UNL     1       9.149  29.643  57.789  1.00  0.00     0.013 A 
HETATM   25  C   UNL     1       8.011  30.150  58.438  1.00  0.00    -0.026 A 
HETATM   26  C   UNL     1       6.764  29.970  57.818  1.00  0.00     0.013 A 
HETATM   27  C   UNL     1       6.655  29.275  56.610  1.00  0.00     0.018 A 
BRANCH  25  28
HETATM   28  C   UNL     1       8.117  30.832  59.737  1.00  0.00    -0.023 A 
HETATM   29  C   UNL     1       9.128  30.511  60.650  1.00  0.00     0.031 A 
HETATM   30  C   UNL     1       9.173  31.177  61.865  1.00  0.00     0.117 A 
HETATM   31  N   UNL     1       8.290  32.128  62.232  1.00  0.00    -0.273 NA
HETATM   32  C   UNL     1       7.322  32.431  61.344  1.00  0.00     0.117 A 
HETATM   33  C   UNL     1       7.198  31.822  60.106  1.00  0.00     0.031 A 
ENDBRANCH  25  28
ENDBRANCH  19  22
ENDBRANCH   1  18
TORSDOF 8
ENDMDL
MODEL 2
REMARK VINA RESULT:      -9.1      1.132      1.931
REMARK  8 active torsions:
REMARK  status: ('A' for Active; 'I' for Inactive)
REMARK    1  A    between atoms: O_2  and  C_3 
REMARK    2  A    between atoms: C_7  and  C_9 
REMARK    3  A    between atoms: C_9  and  C_10 
REMARK    4  A    between atoms: C_9  and  N_18 
REMARK    5  A    between atoms: C_10  and  C_11 
REMARK    6  A    between atoms: C_11  and  N_12 
REMARK       I    between atoms: N_18  and  C_19 
REMARK    7  A    between atoms: C_19  and  C_21 
REMARK    8  A    between atoms: C_24  and  C_27 
ROOT
HETATM    1  C   UNL     1       7.001  24.987  54.454  1.00  0.00     0.119 C 
ENDROOT
BRANCH   1   2
HETATM    2  C   UNL     1       7.472  23.686  55.088  1.00  0.00    -0.033 A 
HETATM    3  C   UNL     1       7.857  23.576  56.432  1.00  0.00     0.009 A 
HETATM    4  C   UNL     1       8.294  22.353  56.945  1.00  0.00     0.003 A 
HETATM    5  C   UNL     1       8.373  21.234  56.118  1.00  0.00     0.037 A 
HETATM    6  C   UNL     1       8.027  21.325  54.771  1.00  0.00     0.068 A 
HETATM    7  C   UNL     1       7.571  22.544  54.265  1.00  0.00     0.046 A 
BRANCH   6   8
HETATM    8  O   UNL     1       8.171  20.165  54.063  1.00  0.00    -0.356 OA
HETATM    9  C   UNL     1       8.375  20.285  52.660  1.00  0.00     0.210 C 
ENDBRANCH   6   8
ENDBRANCH   1   2
BRANCH   1  10
HETATM   10  C   UNL     1       5.574  24.941  53.860  1.00  0.00     0.057 C 
BRANCH  10  11
HETATM   11  C   UNL     1       5.568  25.234  52.360  1.00  0.00     0.237 C 
BRANCH  11  12
HETATM   12  N   UNL     1       4.707  26.439  52.047  1.00  0.00    -0.071 N 
HETATM   13  H   UNL     1       3.815  26.095  51.663  1.00  0.00     0.279 HD
HETATM   14  C   UNL     1       5.289  27.423  51.050  1.00  0.00     0.235 C 
HETATM   15  C   UNL     1       5.361  28.743  51.795  1.00  0.00     0.029 C 
HETATM   16  C   UNL     1       4.240  28.651  52.808  1.00  0.00     0.029 C 
HETATM   17  C   UNL     1       4.361  27.226  53.301  1.00  0.00     0.235 C 
ENDBRANCH  11  12
ENDBRANCH  10  11
ENDBRANCH   1  10
BRANCH   1  18
HETATM   18  N   UNL     1       7.127  26.045  55.448  1.00  0.00    -0.348 N 
HETATM   19  C   UNL     1       7.598  27.299  55.129  1.00  0.00     0.252 C 
HETATM   20  O   UNL     1       7.823  27.629  53.968  1.00  0.00    -0.268 OA
HETATM   21  H   UNL     1       6.896  25.811  56.406  1.00  0.00     0.163 HD
BRANCH  19  22
HETATM   22  C   UNL     1       7.729  28.283  56.240  1.00  0.00     0.032 A 
HETATM   23  C   UNL     1       8.950  28.577  56.853  1.00  0.00     0.018 A 
HETATM   24  C   UNL     1       8.993  29.455  57.943  1.00  0.00     0.013 A 
HETATM   25  C   UNL     1       7.826  30.063  58.436  1.00  0.00    -0.026 A 
HETATM   26  C   UNL     1       6.615  29.793  57.779  1.00  0.00     0.013 A 
HETATM   27  C   UNL     1       6.566  28.917  56.692  1.00  0.00     0.018 A 
BRANCH  25  28
HETATM   28  C   UNL     1       7.867  30.942  59.615  1.00  0.00    -0.023 A 
HETATM   29  C   UNL     1       8.886  30.838  60.568  1.00  0.00     0.031 A 
HETATM   30  C   UNL     1       8.869  31.683  61.667  1.00  0.00     0.117 A 
HETATM   31  N   UNL     1       7.915  32.613  61.882  1.00  0.00    -0.273 NA
HETATM   32  C   UNL     1       6.940  32.705  60.957  1.00  0.00     0.117 A 
HETATM   33  C   UNL     1       6.875  31.907  59.826  1.00  0.00     0.031 A 
ENDBRANCH  25  28
ENDBRANCH  19  22
ENDBRANCH   1  18
TORSDOF 8
ENDMDL
MODEL 3
REMARK VINA RESULT:      -9.0      3.254      8.358
REMARK  8 active torsions:
REMARK  status: ('A' for Active; 'I' for Inactive)
REMARK    1  A    between atoms: O_2  and  C_3 
REMARK    2  A    between atoms: C_7  and  C_9 
REMARK    3  A    between atoms: C_9  and  C_10 
REMARK    4  A    between atoms: C_9  and  N_18 
REMARK    5  A    between atoms: C_10  and  C_11 
REMARK    6  A    between atoms: C_11  and  N_12 
REMARK       I    between atoms: N_18  and  C_19 
REMARK    7  A    between atoms: C_19  and  C_21 
REMARK    8  A    between atoms: C_24  and  C_27 
ROOT
HETATM    1  C   UNL     1       4.266  28.926  52.285  1.00  0.00     0.119 C 
ENDROOT
BRANCH   1   2
HETATM    2  C   UNL     1       3.448  28.732  51.018  1.00  0.00    -0.033 A 
HETATM    3  C   UNL     1       2.200  29.334  50.802  1.00  0.00     0.009 A 
HETATM    4  C   UNL     1       1.495  29.099  49.620  1.00  0.00     0.003 A 
HETATM    5  C   UNL     1       2.017  28.243  48.652  1.00  0.00     0.037 A 
HETATM    6  C   UNL     1       3.240  27.606  48.856  1.00  0.00     0.068 A 
HETATM    7  C   UNL     1       3.952  27.858  50.029  1.00  0.00     0.046 A 
BRANCH   6   8
HETATM    8  O   UNL     1       3.628  26.775  47.843  1.00  0.00    -0.356 OA
HETATM    9  C   UNL     1       3.178  25.427  47.904  1.00  0.00     0.210 C 
ENDBRANCH   6   8
ENDBRANCH   1   2
BRANCH   1  10
HETATM   10  C   UNL     1       3.473  29.483  53.491  1.00  0.00     0.057 C 
BRANCH  10  11
HETATM   11  C   UNL     1       4.271  30.530  54.268  1.00  0.00     0.237 C 
BRANCH  11  12
HETATM   12  N   UNL     1       4.550  30.060  55.679  1.00  0.00    -0.071 N 
HETATM   13  H   UNL     1       3.970  30.623  56.317  1.00  0.00     0.279 HD
HETATM   14  C   UNL     1       5.991  30.183  56.141  1.00  0.00     0.235 C 
HETATM   15  C   UNL     1       6.409  28.771  56.506  1.00  0.00     0.029 C 
HETATM   16  C   UNL     1       5.115  28.103  56.921  1.00  0.00     0.029 C 
HETATM   17  C   UNL     1       4.137  28.612  55.884  1.00  0.00     0.235 C 
ENDBRANCH  11  12
ENDBRANCH  10  11
ENDBRANCH   1  10
BRANCH   1  18
HETATM   18  N   UNL     1       4.903  27.657  52.611  1.00  0.00    -0.348 N 
HETATM   19  C   UNL     1       6.240  27.567  52.931  1.00  0.00     0.252 C 
HETATM   20  O   UNL     1       6.938  28.567  53.078  1.00  0.00    -0.268 OA
HETATM   21  H   UNL     1       4.333  26.823  52.549  1.00  0.00     0.163 HD
BRANCH  19  22
HETATM   22  C   UNL     1       6.789  26.209  53.198  1.00  0.00     0.032 A 
HETATM   23  C   UNL     1       7.528  25.492  52.253  1.00  0.00     0.018 A 
HETATM   24  C   UNL     1       7.952  24.188  52.539  1.00  0.00     0.013 A 
HETATM   25  C   UNL     1       7.657  23.578  53.770  1.00  0.00    -0.026 A 
HETATM   26  C   UNL     1       6.954  24.330  54.725  1.00  0.00     0.013 A 
HETATM   27  C   UNL     1       6.528  25.631  54.445  1.00  0.00     0.018 A 
BRANCH  25  28
HETATM   28  C   UNL     1       8.056  22.190  54.045  1.00  0.00    -0.023 A 
HETATM   29  C   UNL     1       8.393  21.308  53.012  1.00  0.00     0.031 A 
HETATM   30  C   UNL     1       8.749  20.006  53.328  1.00  0.00     0.117 A 
HETATM   31  N   UNL     1       8.790  19.524  54.588  1.00  0.00    -0.273 NA
HETATM   32  C   UNL     1       8.464  20.382  55.575  1.00  0.00     0.117 A 
HETATM   33  C   UNL     1       8.099  21.701  55.357  1.00  0.00     0.031 A 
ENDBRANCH  25  28
ENDBRANCH  19  22
ENDBRANCH   1  18
TORSDOF 8
ENDMDL
MODEL 4
REMARK VINA RESULT:      -8.9      2.562      8.975
REMARK  8 active torsions:
REMARK  status: ('A' for Active; 'I' for Inactive)
REMARK    1  A    between atoms: O_2  and  C_3 
REMARK    2  A    between atoms: C_7  and  C_9 
REMARK    3  A    between atoms: C_9  and  C_10 
REMARK    4  A    between atoms: C_9  and  N_18 
REMARK    5  A    between atoms: C_10  and  C_11 
REMARK    6  A    between atoms: C_11  and  N_12 
REMARK       I    between atoms: N_18  and  C_19 
REMARK    7  A    between atoms: C_19  and  C_21 
REMARK    8  A    between atoms: C_24  and  C_27 
ROOT
HETATM    1  C   UNL     1       6.372  30.153  56.786  1.00  0.00     0.119 C 
ENDROOT
BRANCH   1   2
HETATM    2  C   UNL     1       5.311  30.665  55.824  1.00  0.00    -0.033 A 
HETATM    3  C   UNL     1       4.764  31.955  55.890  1.00  0.00     0.009 A 
HETATM    4  C   UNL     1       3.781  32.353  54.983  1.00  0.00     0.003 A 
HETATM    5  C   UNL     1       3.317  31.463  54.016  1.00  0.00     0.037 A 
HETATM    6  C   UNL     1       3.819  30.165  53.950  1.00  0.00     0.068 A 
HETATM    7  C   UNL     1       4.817  29.775  54.845  1.00  0.00     0.046 A 
BRANCH   6   8
HETATM    8  O   UNL     1       3.266  29.385  52.974  1.00  0.00    -0.356 OA
HETATM    9  C   UNL     1       3.568  27.995  53.009  1.00  0.00     0.210 C 
ENDBRANCH   6   8
ENDBRANCH   1   2
BRANCH   1  10
HETATM   10  C   UNL     1       6.084  30.435  58.280  1.00  0.00     0.057 C 
BRANCH  10  11
HETATM   11  C   UNL     1       7.147  31.335  58.908  1.00  0.00     0.237 C 
BRANCH  11  12
HETATM   12  N   UNL     1       7.567  30.813  60.265  1.00  0.00    -0.071 N 
HETATM   13  H   UNL     1       7.078  29.920  60.422  1.00  0.00     0.279 HD
HETATM   14  C   UNL     1       7.259  31.718  61.444  1.00  0.00     0.235 C 
HETATM   15  C   UNL     1       8.604  31.995  62.089  1.00  0.00     0.029 C 
HETATM   16  C   UNL     1       9.427  30.768  61.758  1.00  0.00     0.029 C 
HETATM   17  C   UNL     1       9.055  30.504  60.315  1.00  0.00     0.235 C 
ENDBRANCH  11  12
ENDBRANCH  10  11
ENDBRANCH   1  10
BRANCH   1  18
HETATM   18  N   UNL     1       6.554  28.728  56.541  1.00  0.00    -0.348 N 
HETATM   19  C   UNL     1       7.765  28.100  56.731  1.00  0.00     0.252 C 
HETATM   20  O   UNL     1       8.724  28.682  57.232  1.00  0.00    -0.268 OA
HETATM   21  H   UNL     1       5.761  28.215  56.178  1.00  0.00     0.163 HD
BRANCH  19  22
HETATM   22  C   UNL     1       7.842  26.650  56.400  1.00  0.00     0.032 A 
HETATM   23  C   UNL     1       8.386  25.702  57.272  1.00  0.00     0.018 A 
HETATM   24  C   UNL     1       8.498  24.365  56.870  1.00  0.00     0.013 A 
HETATM   25  C   UNL     1       8.065  23.945  55.601  1.00  0.00    -0.026 A 
HETATM   26  C   UNL     1       7.479  24.902  54.756  1.00  0.00     0.013 A 
HETATM   27  C   UNL     1       7.365  26.238  55.151  1.00  0.00     0.018 A 
BRANCH  25  28
HETATM   28  C   UNL     1       8.235  22.552  55.162  1.00  0.00    -0.023 A 
HETATM   29  C   UNL     1       8.383  21.508  56.083  1.00  0.00     0.031 A 
HETATM   30  C   UNL     1       8.553  20.215  55.613  1.00  0.00     0.117 A 
HETATM   31  N   UNL     1       8.589  19.892  54.304  1.00  0.00    -0.273 NA
HETATM   32  C   UNL     1       8.443  20.904  53.426  1.00  0.00     0.117 A 
HETATM   33  C   UNL     1       8.266  22.226  53.800  1.00  0.00     0.031 A 
ENDBRANCH  25  28
ENDBRANCH  19  22
ENDBRANCH   1  18
TORSDOF 8
ENDMDL
MODEL 5
REMARK VINA RESULT:      -8.8      2.468      7.802
REMARK  8 active torsions:
REMARK  status: ('A' for Active; 'I' for Inactive)
REMARK    1  A    between atoms: O_2  and  C_3 
REMARK    2  A    between atoms: C_7  and  C_9 
REMARK    3  A    between atoms: C_9  and  C_10 
REMARK    4  A    between atoms: C_9  and  N_18 
REMARK    5  A    between atoms: C_10  and  C_11 
REMARK    6  A    between atoms: C_11  and  N_12 
REMARK       I    between atoms: N_18  and  C_19 
REMARK    7  A    between atoms: C_19  and  C_21 
REMARK    8  A    between atoms: C_24  and  C_27 
ROOT
HETATM    1  C   UNL     1       5.721  29.656  56.609  1.00  0.00     0.119 C 
ENDROOT
BRANCH   1   2
HETATM    2  C   UNL     1       6.797  30.224  57.522  1.00  0.00    -0.033 A 
HETATM    3  C   UNL     1       6.546  31.193  58.506  1.00  0.00     0.009 A 
HETATM    4  C   UNL     1       7.585  31.681  59.299  1.00  0.00     0.003 A 
HETATM    5  C   UNL     1       8.888  31.227  59.105  1.00  0.00     0.037 A 
HETATM    6  C   UNL     1       9.170  30.290  58.113  1.00  0.00     0.068 A 
HETATM    7  C   UNL     1       8.126  29.787  57.334  1.00  0.00     0.046 A 
BRANCH   6   8
HETATM    8  O   UNL     1      10.488  29.944  58.009  1.00  0.00    -0.356 OA
HETATM    9  C   UNL     1      10.948  29.528  56.728  1.00  0.00     0.210 C 
ENDBRANCH   6   8
ENDBRANCH   1   2
BRANCH   1  10
HETATM   10  C   UNL     1       5.278  30.597  55.464  1.00  0.00     0.057 C 
BRANCH  10  11
HETATM   11  C   UNL     1       4.193  29.967  54.592  1.00  0.00     0.237 C 
BRANCH  11  12
HETATM   12  N   UNL     1       4.612  29.945  53.137  1.00  0.00    -0.071 N 
HETATM   13  H   UNL     1       5.451  30.534  53.044  1.00  0.00     0.279 HD
HETATM   14  C   UNL     1       3.581  30.453  52.147  1.00  0.00     0.235 C 
HETATM   15  C   UNL     1       3.335  29.291  51.203  1.00  0.00     0.029 C 
HETATM   16  C   UNL     1       4.640  28.524  51.221  1.00  0.00     0.029 C 
HETATM   17  C   UNL     1       5.014  28.549  52.687  1.00  0.00     0.235 C 
ENDBRANCH  11  12
ENDBRANCH  10  11
ENDBRANCH   1  10
BRANCH   1  18
HETATM   18  N   UNL     1       6.194  28.379  56.093  1.00  0.00    -0.348 N 
HETATM   19  C   UNL     1       5.591  27.185  56.421  1.00  0.00     0.252 C 
HETATM   20  O   UNL     1       4.548  27.144  57.068  1.00  0.00    -0.268 OA
HETATM   21  H   UNL     1       7.023  28.393  55.511  1.00  0.00     0.163 HD
BRANCH  19  22
HETATM   22  C   UNL     1       6.195  25.940  55.870  1.00  0.00     0.032 A 
HETATM   23  C   UNL     1       5.910  25.462  54.588  1.00  0.00     0.018 A 
HETATM   24  C   UNL     1       6.451  24.244  54.158  1.00  0.00     0.013 A 
HETATM   25  C   UNL     1       7.292  23.486  54.990  1.00  0.00    -0.026 A 
HETATM   26  C   UNL     1       7.605  24.003  56.257  1.00  0.00     0.013 A 
HETATM   27  C   UNL     1       7.067  25.217  56.692  1.00  0.00     0.018 A 
BRANCH  25  28
HETATM   28  C   UNL     1       7.815  22.181  54.556  1.00  0.00    -0.023 A 
HETATM   29  C   UNL     1       8.270  21.232  55.479  1.00  0.00     0.031 A 
HETATM   30  C   UNL     1       8.764  20.024  55.014  1.00  0.00     0.117 A 
HETATM   31  N   UNL     1       8.840  19.698  53.707  1.00  0.00    -0.273 NA
HETATM   32  C   UNL     1       8.398  20.618  52.827  1.00  0.00     0.117 A 
HETATM   33  C   UNL     1       7.885  21.851  53.197  1.00  0.00     0.031 A 
ENDBRANCH  25  28
ENDBRANCH  19  22
ENDBRANCH   1  18
TORSDOF 8
ENDMDL
MODEL 6
REMARK VINA RESULT:      -8.7      2.921      8.260
REMARK  8 active torsions:
REMARK  status: ('A' for Active; 'I' for Inactive)
REMARK    1  A    between atoms: O_2  and  C_3 
REMARK    2  A    between atoms: C_7  and  C_9 
REMARK    3  A    between atoms: C_9  and  C_10 
REMARK    4  A    between atoms: C_9  and  N_18 
REMARK    5  A    between atoms: C_10  and  C_11 
REMARK    6  A    between atoms: C_11  and  N_12 
REMARK       I    between atoms: N_18  and  C_19 
REMARK    7  A    between atoms: C_19  and  C_21 
REMARK    8  A    between atoms: C_24  and  C_27 
ROOT
HETATM    1  C   UNL     1       6.385  29.666  57.168  1.00  0.00     0.119 C 
ENDROOT
BRANCH   1   2
HETATM    2  C   UNL     1       7.615  30.271  57.829  1.00  0.00    -0.033 A 
HETATM    3  C   UNL     1       8.929  29.920  57.486  1.00  0.00     0.009 A 
HETATM    4  C   UNL     1      10.012  30.503  58.144  1.00  0.00     0.003 A 
HETATM    5  C   UNL     1       9.797  31.426  59.167  1.00  0.00     0.037 A 
HETATM    6  C   UNL     1       8.501  31.767  59.550  1.00  0.00     0.068 A 
HETATM    7  C   UNL     1       7.419  31.197  58.876  1.00  0.00     0.046 A 
BRANCH   6   8
HETATM    8  O   UNL     1       8.425  32.662  60.579  1.00  0.00    -0.356 OA
HETATM    9  C   UNL     1       7.153  32.835  61.193  1.00  0.00     0.210 C 
ENDBRANCH   6   8
ENDBRANCH   1   2
BRANCH   1  10
HETATM   10  C   UNL     1       5.692  30.578  56.128  1.00  0.00     0.057 C 
BRANCH  10  11
HETATM   11  C   UNL     1       4.193  30.714  56.394  1.00  0.00     0.237 C 
BRANCH  11  12
HETATM   12  N   UNL     1       3.396  30.485  55.128  1.00  0.00    -0.071 N 
HETATM   13  H   UNL     1       2.449  30.188  55.404  1.00  0.00     0.279 HD
HETATM   14  C   UNL     1       3.950  29.436  54.181  1.00  0.00     0.235 C 
HETATM   15  C   UNL     1       4.188  30.171  52.875  1.00  0.00     0.029 C 
HETATM   16  C   UNL     1       3.165  31.288  52.893  1.00  0.00     0.029 C 
HETATM   17  C   UNL     1       3.229  31.767  54.327  1.00  0.00     0.235 C 
ENDBRANCH  11  12
ENDBRANCH  10  11
ENDBRANCH   1  10
BRANCH   1  18
HETATM   18  N   UNL     1       6.770  28.390  56.580  1.00  0.00    -0.348 N 
HETATM   19  C   UNL     1       5.937  27.293  56.596  1.00  0.00     0.252 C 
HETATM   20  O   UNL     1       4.779  27.367  56.999  1.00  0.00    -0.268 OA
HETATM   21  H   UNL     1       7.703  28.321  56.193  1.00  0.00     0.163 HD
BRANCH  19  22
HETATM   22  C   UNL     1       6.460  26.029  56.007  1.00  0.00     0.032 A 
HETATM   23  C   UNL     1       6.012  25.521  54.785  1.00  0.00     0.018 A 
HETATM   24  C   UNL     1       6.488  24.287  54.323  1.00  0.00     0.013 A 
HETATM   25  C   UNL     1       7.423  23.543  55.062  1.00  0.00    -0.026 A 
HETATM   26  C   UNL     1       7.896  24.090  56.265  1.00  0.00     0.013 A 
HETATM   27  C   UNL     1       7.424  25.320  56.732  1.00  0.00     0.018 A 
BRANCH  25  28
HETATM   28  C   UNL     1       7.879  22.223  54.601  1.00  0.00    -0.023 A 
HETATM   29  C   UNL     1       8.327  21.249  55.501  1.00  0.00     0.031 A 
HETATM   30  C   UNL     1       8.758  20.027  55.010  1.00  0.00     0.117 A 
HETATM   31  N   UNL     1       8.777  19.709  53.699  1.00  0.00    -0.273 NA
HETATM   32  C   UNL     1       8.342  20.654  52.842  1.00  0.00     0.117 A 
HETATM   33  C   UNL     1       7.890  21.902  53.238  1.00  0.00     0.031 A 
ENDBRANCH  25  28
ENDBRANCH  19  22
ENDBRANCH   1  18
TORSDOF 8
ENDMDL
MODEL 7
REMARK VINA RESULT:      -8.6      2.874      9.564
REMARK  8 active torsions:
REMARK  status: ('A' for Active; 'I' for Inactive)
REMARK    1  A    between atoms: O_2  and  C_3 
REMARK    2  A    between atoms: C_7  and  C_9 
REMARK    3  A    between atoms: C_9  and  C_10 
REMARK    4  A    between atoms: C_9  and  N_18 
REMARK    5  A    between atoms: C_10  and  C_11 
REMARK    6  A    between atoms: C_11  and  N_12 
REMARK       I    between atoms: N_18  and  C_19 
REMARK    7  A    between atoms: C_19  and  C_21 
REMARK    8  A    between atoms: C_24  and  C_27 
ROOT
HETATM    1  C   UNL     1       7.467  29.852  57.801  1.00  0.00     0.119 C 
ENDROOT
BRANCH   1   2
HETATM    2  C   UNL     1       6.005  30.267  57.748  1.00  0.00    -0.033 A 
HETATM    3  C   UNL     1       5.016  29.535  57.073  1.00  0.00     0.009 A 
HETATM    4  C   UNL     1       3.695  29.983  57.052  1.00  0.00     0.003 A 
HETATM    5  C   UNL     1       3.349  31.176  57.684  1.00  0.00     0.037 A 
HETATM    6  C   UNL     1       4.318  31.939  58.334  1.00  0.00     0.068 A 
HETATM    7  C   UNL     1       5.635  31.479  58.371  1.00  0.00     0.046 A 
BRANCH   6   8
HETATM    8  O   UNL     1       3.855  33.097  58.892  1.00  0.00    -0.356 OA
HETATM    9  C   UNL     1       3.081  32.977  60.080  1.00  0.00     0.210 C 
ENDBRANCH   6   8
ENDBRANCH   1   2
BRANCH   1  10
HETATM   10  C   UNL     1       8.157  30.075  59.168  1.00  0.00     0.057 C 
BRANCH  10  11
HETATM   11  C   UNL     1       8.997  31.351  59.184  1.00  0.00     0.237 C 
BRANCH  11  12
HETATM   12  N   UNL     1       9.190  31.854  60.599  1.00  0.00    -0.071 N 
HETATM   13  H   UNL     1       9.985  32.508  60.593  1.00  0.00     0.279 HD
HETATM   14  C   UNL     1       9.478  30.790  61.642  1.00  0.00     0.235 C 
HETATM   15  C   UNL     1       8.363  30.927  62.662  1.00  0.00     0.029 C 
HETATM   16  C   UNL     1       7.968  32.386  62.577  1.00  0.00     0.029 C 
HETATM   17  C   UNL     1       7.986  32.643  61.086  1.00  0.00     0.235 C 
ENDBRANCH  11  12
ENDBRANCH  10  11
ENDBRANCH   1  10
BRANCH   1  18
HETATM   18  N   UNL     1       7.556  28.459  57.384  1.00  0.00    -0.348 N 
HETATM   19  C   UNL     1       7.859  28.097  56.090  1.00  0.00     0.252 C 
HETATM   20  O   UNL     1       8.190  28.928  55.247  1.00  0.00    -0.268 OA
HETATM   21  H   UNL     1       7.340  27.753  58.076  1.00  0.00     0.163 HD
BRANCH  19  22
HETATM   22  C   UNL     1       7.874  26.643  55.771  1.00  0.00     0.032 A 
HETATM   23  C   UNL     1       8.189  25.663  56.716  1.00  0.00     0.018 A 
HETATM   24  C   UNL     1       8.259  24.317  56.334  1.00  0.00     0.013 A 
HETATM   25  C   UNL     1       8.009  23.922  55.009  1.00  0.00    -0.026 A 
HETATM   26  C   UNL     1       7.649  24.914  54.083  1.00  0.00     0.013 A 
HETATM   27  C   UNL     1       7.578  26.258  54.458  1.00  0.00     0.018 A 
BRANCH  25  28
HETATM   28  C   UNL     1       8.138  22.516  54.598  1.00  0.00    -0.023 A 
HETATM   29  C   UNL     1       8.010  22.131  53.259  1.00  0.00     0.031 A 
HETATM   30  C   UNL     1       8.127  20.789  52.930  1.00  0.00     0.117 A 
HETATM   31  N   UNL     1       8.358  19.813  53.832  1.00  0.00    -0.273 NA
HETATM   32  C   UNL     1       8.481  20.195  55.119  1.00  0.00     0.117 A 
HETATM   33  C   UNL     1       8.382  21.511  55.542  1.00  0.00     0.031 A 
ENDBRANCH  25  28
ENDBRANCH  19  22
ENDBRANCH   1  18
TORSDOF 8
ENDMDL
MODEL 8
REMARK VINA RESULT:      -8.6      2.153      5.554
REMARK  8 active torsions:
REMARK  status: ('A' for Active; 'I' for Inactive)
REMARK    1  A    between atoms: O_2  and  C_3 
REMARK    2  A    between atoms: C_7  and  C_9 
REMARK    3  A    between atoms: C_9  and  C_10 
REMARK    4  A    between atoms: C_9  and  N_18 
REMARK    5  A    between atoms: C_10  and  C_11 
REMARK    6  A    between atoms: C_11  and  N_12 
REMARK       I    between atoms: N_18  and  C_19 
REMARK    7  A    between atoms: C_19  and  C_21 
REMARK    8  A    between atoms: C_24  and  C_27 
ROOT
HETATM    1  C   UNL     1       6.219  25.758  52.630  1.00  0.00     0.119 C 
ENDROOT
BRANCH   1   2
HETATM    2  C   UNL     1       5.557  26.570  51.527  1.00  0.00    -0.033 A 
HETATM    3  C   UNL     1       5.464  27.970  51.547  1.00  0.00     0.009 A 
HETATM    4  C   UNL     1       4.829  28.651  50.508  1.00  0.00     0.003 A 
HETATM    5  C   UNL     1       4.260  27.943  49.450  1.00  0.00     0.037 A 
HETATM    6  C   UNL     1       4.309  26.551  49.423  1.00  0.00     0.068 A 
HETATM    7  C   UNL     1       4.963  25.872  50.453  1.00  0.00     0.046 A 
BRANCH   6   8
HETATM    8  O   UNL     1       3.695  25.977  48.346  1.00  0.00    -0.356 OA
HETATM    9  C   UNL     1       2.501  26.593  47.879  1.00  0.00     0.210 C 
ENDBRANCH   6   8
ENDBRANCH   1   2
BRANCH   1  10
HETATM   10  C   UNL     1       7.413  24.888  52.169  1.00  0.00     0.057 C 
BRANCH  10  11
HETATM   11  C   UNL     1       8.127  24.225  53.347  1.00  0.00     0.237 C 
BRANCH  11  12
HETATM   12  N   UNL     1       7.434  22.940  53.747  1.00  0.00    -0.071 N 
HETATM   13  H   UNL     1       6.459  22.996  53.421  1.00  0.00     0.279 HD
HETATM   14  C   UNL     1       7.405  22.644  55.235  1.00  0.00     0.235 C 
HETATM   15  C   UNL     1       8.103  21.305  55.383  1.00  0.00     0.029 C 
HETATM   16  C   UNL     1       7.849  20.612  54.061  1.00  0.00     0.029 C 
HETATM   17  C   UNL     1       8.050  21.731  53.062  1.00  0.00     0.235 C 
ENDBRANCH  11  12
ENDBRANCH  10  11
ENDBRANCH   1  10
BRANCH   1  18
HETATM   18  N   UNL     1       6.611  26.674  53.693  1.00  0.00    -0.348 N 
HETATM   19  C   UNL     1       6.141  26.548  54.982  1.00  0.00     0.252 C 
HETATM   20  O   UNL     1       5.463  25.585  55.331  1.00  0.00    -0.268 OA
HETATM   21  H   UNL     1       7.214  27.447  53.440  1.00  0.00     0.163 HD
BRANCH  19  22
HETATM   22  C   UNL     1       6.573  27.574  55.971  1.00  0.00     0.032 A 
HETATM   23  C   UNL     1       5.721  28.573  56.448  1.00  0.00     0.018 A 
HETATM   24  C   UNL     1       6.210  29.554  57.319  1.00  0.00     0.013 A 
HETATM   25  C   UNL     1       7.551  29.554  57.739  1.00  0.00    -0.026 A 
HETATM   26  C   UNL     1       8.382  28.516  57.286  1.00  0.00     0.013 A 
HETATM   27  C   UNL     1       7.899  27.535  56.416  1.00  0.00     0.018 A 
BRANCH  25  28
HETATM   28  C   UNL     1       8.076  30.616  58.610  1.00  0.00    -0.023 A 
HETATM   29  C   UNL     1       9.439  30.933  58.637  1.00  0.00     0.031 A 
HETATM   30  C   UNL     1       9.880  31.935  59.487  1.00  0.00     0.117 A 
HETATM   31  N   UNL     1       9.069  32.635  60.306  1.00  0.00    -0.273 NA
HETATM   32  C   UNL     1       7.758  32.323  60.270  1.00  0.00     0.117 A 
HETATM   33  C   UNL     1       7.224  31.341  59.453  1.00  0.00     0.031 A 
ENDBRANCH  25  28
ENDBRANCH  19  22
ENDBRANCH   1  18
TORSDOF 8
ENDMDL
MODEL 9
REMARK VINA RESULT:      -8.5      2.839      9.141
REMARK  8 active torsions:
REMARK  status: ('A' for Active; 'I' for Inactive)
REMARK    1  A    between atoms: O_2  and  C_3 
REMARK    2  A    between atoms: C_7  and  C_9 
REMARK    3  A    between atoms: C_9  and  C_10 
REMARK    4  A    between atoms: C_9  and  N_18 
REMARK    5  A    between atoms: C_10  and  C_11 
REMARK    6  A    between atoms: C_11  and  N_12 
REMARK       I    between atoms: N_18  and  C_19 
REMARK    7  A    between atoms: C_19  and  C_21 
REMARK    8  A    between atoms: C_24  and  C_27 
ROOT
HETATM    1  C   UNL     1       5.804  29.955  56.081  1.00  0.00     0.119 C 
ENDROOT
BRANCH   1   2
HETATM    2  C   UNL     1       4.819  30.391  55.006  1.00  0.00    -0.033 A 
HETATM    3  C   UNL     1       4.352  29.541  53.993  1.00  0.00     0.009 A 
HETATM    4  C   UNL     1       3.460  30.012  53.029  1.00  0.00     0.003 A 
HETATM    5  C   UNL     1       3.041  31.341  53.052  1.00  0.00     0.037 A 
HETATM    6  C   UNL     1       3.515  32.215  54.028  1.00  0.00     0.068 A 
HETATM    7  C   UNL     1       4.392  31.737  55.004  1.00  0.00     0.046 A 
BRANCH   6   8
HETATM    8  O   UNL     1       3.047  33.495  53.927  1.00  0.00    -0.356 OA
HETATM    9  C   UNL     1       3.483  34.255  52.805  1.00  0.00     0.210 C 
ENDBRANCH   6   8
ENDBRANCH   1   2
BRANCH   1  10
HETATM   10  C   UNL     1       5.350  30.239  57.532  1.00  0.00     0.057 C 
BRANCH  10  11
HETATM   11  C   UNL     1       6.109  31.412  58.150  1.00  0.00     0.237 C 
BRANCH  11  12
HETATM   12  N   UNL     1       6.891  30.970  59.368  1.00  0.00    -0.071 N 
HETATM   13  H   UNL     1       6.328  30.264  59.863  1.00  0.00     0.279 HD
HETATM   14  C   UNL     1       7.235  32.064  60.363  1.00  0.00     0.235 C 
HETATM   15  C   UNL     1       8.749  32.054  60.451  1.00  0.00     0.029 C 
HETATM   16  C   UNL     1       9.125  30.623  60.131  1.00  0.00     0.029 C 
HETATM   17  C   UNL     1       8.195  30.289  58.985  1.00  0.00     0.235 C 
ENDBRANCH  11  12
ENDBRANCH  10  11
ENDBRANCH   1  10
BRANCH   1  18
HETATM   18  N   UNL     1       6.090  28.540  55.882  1.00  0.00    -0.348 N 
HETATM   19  C   UNL     1       7.315  28.094  55.437  1.00  0.00     0.252 C 
HETATM   20  O   UNL     1       8.269  28.856  55.299  1.00  0.00    -0.268 OA
HETATM   21  H   UNL     1       5.333  27.887  56.042  1.00  0.00     0.163 HD
BRANCH  19  22
HETATM   22  C   UNL     1       7.474  26.628  55.226  1.00  0.00     0.032 A 
HETATM   23  C   UNL     1       7.670  25.728  56.277  1.00  0.00     0.018 A 
HETATM   24  C   UNL     1       7.889  24.372  56.006  1.00  0.00     0.013 A 
HETATM   25  C   UNL     1       7.907  23.885  54.687  1.00  0.00    -0.026 A 
HETATM   26  C   UNL     1       7.663  24.795  53.646  1.00  0.00     0.013 A 
HETATM   27  C   UNL     1       7.445  26.150  53.911  1.00  0.00     0.018 A 
BRANCH  25  28
HETATM   28  C   UNL     1       8.192  22.471  54.403  1.00  0.00    -0.023 A 
HETATM   29  C   UNL     1       7.930  21.910  53.147  1.00  0.00     0.031 A 
HETATM   30  C   UNL     1       8.205  20.568  52.939  1.00  0.00     0.117 A 
HETATM   31  N   UNL     1       8.716  19.752  53.883  1.00  0.00    -0.273 NA
HETATM   32  C   UNL     1       8.966  20.302  55.088  1.00  0.00     0.117 A 
HETATM   33  C   UNL     1       8.726  21.633  55.390  1.00  0.00     0.031 A 
ENDBRANCH  25  28
ENDBRANCH  19  22
ENDBRANCH   1  18
TORSDOF 8
ENDMDL
MODEL 10
REMARK VINA RESULT:      -8.3      1.714      5.437
REMARK  8 active torsions:
REMARK  status: ('A' for Active; 'I' for Inactive)
REMARK    1  A    between atoms: O_2  and  C_3 
REMARK    2  A    between atoms: C_7  and  C_9 
REMARK    3  A    between atoms: C_9  and  C_10 
REMARK    4  A    between atoms: C_9  and  N_18 
REMARK    5  A    between atoms: C_10  and  C_11 
REMARK    6  A    between atoms: C_11  and  N_12 
REMARK       I    between atoms: N_18  and  C_19 
REMARK    7  A    between atoms: C_19  and  C_21 
REMARK    8  A    between atoms: C_24  and  C_27 
ROOT
HETATM    1  C   UNL     1       6.543  25.685  53.012  1.00  0.00     0.119 C 
ENDROOT
BRANCH   1   2
HETATM    2  C   UNL     1       5.862  26.450  51.887  1.00  0.00    -0.033 A 
HETATM    3  C   UNL     1       5.257  25.830  50.784  1.00  0.00     0.009 A 
HETATM    4  C   UNL     1       4.663  26.594  49.780  1.00  0.00     0.003 A 
HETATM    5  C   UNL     1       4.685  27.986  49.852  1.00  0.00     0.037 A 
HETATM    6  C   UNL     1       5.309  28.628  50.920  1.00  0.00     0.068 A 
HETATM    7  C   UNL     1       5.885  27.862  51.935  1.00  0.00     0.046 A 
BRANCH   6   8
HETATM    8  O   UNL     1       5.282  29.993  50.862  1.00  0.00    -0.356 OA
HETATM    9  C   UNL     1       4.365  30.583  49.948  1.00  0.00     0.210 C 
ENDBRANCH   6   8
ENDBRANCH   1   2
BRANCH   1  10
HETATM   10  C   UNL     1       7.742  24.813  52.571  1.00  0.00     0.057 C 
BRANCH  10  11
HETATM   11  C   UNL     1       7.443  23.320  52.702  1.00  0.00     0.237 C 
BRANCH  11  12
HETATM   12  N   UNL     1       8.270  22.697  53.806  1.00  0.00    -0.071 N 
HETATM   13  H   UNL     1       9.109  23.279  53.935  1.00  0.00     0.279 HD
HETATM   14  C   UNL     1       8.731  21.272  53.559  1.00  0.00     0.235 C 
HETATM   15  C   UNL     1       8.156  20.467  54.709  1.00  0.00     0.029 C 
HETATM   16  C   UNL     1       8.051  21.468  55.839  1.00  0.00     0.029 C 
HETATM   17  C   UNL     1       7.531  22.703  55.135  1.00  0.00     0.235 C 
ENDBRANCH  11  12
ENDBRANCH  10  11
ENDBRANCH   1  10
BRANCH   1  18
HETATM   18  N   UNL     1       6.935  26.644  54.037  1.00  0.00    -0.348 N 
HETATM   19  C   UNL     1       6.430  26.597  55.318  1.00  0.00     0.252 C 
HETATM   20  O   UNL     1       5.716  25.672  55.697  1.00  0.00    -0.268 OA
HETATM   21  H   UNL     1       7.566  27.385  53.761  1.00  0.00     0.163 HD
BRANCH  19  22
HETATM   22  C   UNL     1       6.867  27.659  56.265  1.00  0.00     0.032 A 
HETATM   23  C   UNL     1       8.185  27.778  56.715  1.00  0.00     0.018 A 
HETATM   24  C   UNL     1       8.515  28.752  57.665  1.00  0.00     0.013 A 
HETATM   25  C   UNL     1       7.545  29.631  58.177  1.00  0.00    -0.026 A 
HETATM   26  C   UNL     1       6.236  29.528  57.679  1.00  0.00     0.013 A 
HETATM   27  C   UNL     1       5.900  28.557  56.732  1.00  0.00     0.018 A 
BRANCH  25  28
HETATM   28  C   UNL     1       7.884  30.616  59.214  1.00  0.00    -0.023 A 
HETATM   29  C   UNL     1       9.098  30.559  59.908  1.00  0.00     0.031 A 
HETATM   30  C   UNL     1       9.360  31.506  60.886  1.00  0.00     0.117 A 
HETATM   31  N   UNL     1       8.506  32.495  61.220  1.00  0.00    -0.273 NA
HETATM   32  C   UNL     1       7.341  32.542  60.544  1.00  0.00     0.117 A 
HETATM   33  C   UNL     1       6.992  31.642  59.550  1.00  0.00     0.031 A 
ENDBRANCH  25  28
ENDBRANCH  19  22
ENDBRANCH   1  18
TORSDOF 8
ENDMDL
