MODEL 1
REMARK VINA RESULT:      -9.4      0.000      0.000
REMARK  2 active torsions:
REMARK  status: ('A' for Active; 'I' for Inactive)
REMARK    1  A    between atoms: O_2  and  C_3 
REMARK    2  A    between atoms: C_7  and  N_8 
REMARK       I    between atoms: N_8  and  C_9 
REMARK       I    between atoms: C_9  and  N_10 
ROOT
HETATM    1  N   UNL     1       6.286  28.740  57.050  1.00  0.00    -0.307 N 
HETATM    2  C   UNL     1       6.405  28.178  55.803  1.00  0.00     0.323 C 
HETATM    3  N   UNL     1       7.111  26.981  55.752  1.00  0.00    -0.328 N 
HETATM    4  C   UNL     1       7.459  26.496  54.408  1.00  0.00     0.185 C 
HETATM    5  C   UNL     1       7.589  25.016  54.427  1.00  0.00     0.035 A 
HETATM    6  C   UNL     1       7.584  24.193  55.532  1.00  0.00    -0.020 A 
HETATM    7  C   UNL     1       7.408  24.749  56.897  1.00  0.00     0.061 C 
HETATM    8  C   UNL     1       7.712  26.262  56.901  1.00  0.00     0.132 C 
HETATM    9  N   UNL     1       7.728  24.234  53.314  1.00  0.00    -0.357 N 
HETATM   10  H   UNL     1       7.751  24.565  52.359  1.00  0.00     0.166 HD
HETATM   11  C   UNL     1       7.809  22.907  53.682  1.00  0.00     0.043 A 
HETATM   12  C   UNL     1       7.722  22.855  55.076  1.00  0.00    -0.001 A 
HETATM   13  C   UNL     1       7.942  21.761  52.891  1.00  0.00     0.030 A 
HETATM   14  C   UNL     1       7.987  20.525  53.542  1.00  0.00     0.002 A 
HETATM   15  C   UNL     1       7.904  20.441  54.929  1.00  0.00     0.001 A 
HETATM   16  C   UNL     1       7.771  21.598  55.709  1.00  0.00     0.014 A 
HETATM   17  O   UNL     1       5.940  28.687  54.784  1.00  0.00    -0.247 OA
HETATM   18  H   UNL     1       7.033  28.551  57.702  1.00  0.00     0.170 HD
ENDROOT
BRANCH   1  19
HETATM   19  C   UNL     1       5.471  29.844  57.410  1.00  0.00     0.058 A 
HETATM   20  C   UNL     1       6.059  30.939  58.064  1.00  0.00     0.063 A 
HETATM   21  C   UNL     1       5.296  32.051  58.428  1.00  0.00     0.063 A 
HETATM   22 CL   UNL     1       7.754  30.955  58.424  1.00  0.00    -0.082 Cl
HETATM   23  C   UNL     1       3.929  32.088  58.151  1.00  0.00     0.070 A 
HETATM   24  C   UNL     1       3.329  30.991  57.535  1.00  0.00     0.039 A 
HETATM   25  C   UNL     1       4.095  29.877  57.170  1.00  0.00     0.034 A 
BRANCH  23  26
HETATM   26  O   UNL     1       3.293  33.234  58.539  1.00  0.00    -0.356 OA
HETATM   27  C   UNL     1       3.055  33.392  59.933  1.00  0.00     0.210 C 
ENDBRANCH  23  26
ENDBRANCH   1  19
TORSDOF 2
ENDMDL
MODEL 2
REMARK VINA RESULT:      -9.3      3.452      9.541
REMARK  2 active torsions:
REMARK  status: ('A' for Active; 'I' for Inactive)
REMARK    1  A    between atoms: O_2  and  C_3 
REMARK    2  A    between atoms: C_7  and  N_8 
REMARK       I    between atoms: N_8  and  C_9 
REMARK       I    between atoms: C_9  and  N_10 
ROOT
HETATM    1  N   UNL     1       6.822  28.920  56.746  1.00  0.00    -0.307 N 
HETATM    2  C   UNL     1       7.558  28.966  57.905  1.00  0.00     0.323 C 
HETATM    3  N   UNL     1       7.512  30.172  58.594  1.00  0.00    -0.328 N 
HETATM    4  C   UNL     1       8.479  30.322  59.693  1.00  0.00     0.185 C 
HETATM    5  C   UNL     1       7.942  31.266  60.706  1.00  0.00     0.035 A 
HETATM    6  C   UNL     1       6.815  32.051  60.601  1.00  0.00    -0.020 A 
HETATM    7  C   UNL     1       5.960  32.000  59.388  1.00  0.00     0.061 C 
HETATM    8  C   UNL     1       6.740  31.378  58.210  1.00  0.00     0.132 C 
HETATM    9  N   UNL     1       8.504  31.491  61.933  1.00  0.00    -0.357 N 
HETATM   10  H   UNL     1       9.335  31.042  62.293  1.00  0.00     0.166 HD
HETATM   11  C   UNL     1       7.751  32.412  62.630  1.00  0.00     0.043 A 
HETATM   12  C   UNL     1       6.681  32.782  61.811  1.00  0.00    -0.001 A 
HETATM   13  C   UNL     1       7.932  32.932  63.917  1.00  0.00     0.030 A 
HETATM   14  C   UNL     1       6.992  33.857  64.380  1.00  0.00     0.002 A 
HETATM   15  C   UNL     1       5.916  34.246  63.587  1.00  0.00     0.001 A 
HETATM   16  C   UNL     1       5.748  33.717  62.301  1.00  0.00     0.014 A 
HETATM   17  O   UNL     1       8.229  28.021  58.317  1.00  0.00    -0.247 OA
HETATM   18  H   UNL     1       6.703  29.793  56.254  1.00  0.00     0.170 HD
ENDROOT
BRANCH   1  19
HETATM   19  C   UNL     1       6.546  27.773  55.960  1.00  0.00     0.058 A 
HETATM   20  C   UNL     1       7.315  27.535  54.809  1.00  0.00     0.063 A 
HETATM   21  C   UNL     1       7.084  26.412  54.010  1.00  0.00     0.063 A 
HETATM   22 CL   UNL     1       8.589  28.616  54.352  1.00  0.00    -0.082 Cl
HETATM   23  C   UNL     1       6.075  25.508  54.343  1.00  0.00     0.070 A 
HETATM   24  C   UNL     1       5.282  25.754  55.463  1.00  0.00     0.039 A 
HETATM   25  C   UNL     1       5.516  26.879  56.263  1.00  0.00     0.034 A 
BRANCH  23  26
HETATM   26  O   UNL     1       5.956  24.440  53.497  1.00  0.00    -0.356 OA
HETATM   27  C   UNL     1       7.026  23.502  53.498  1.00  0.00     0.210 C 
ENDBRANCH  23  26
ENDBRANCH   1  19
TORSDOF 2
ENDMDL
MODEL 3
REMARK VINA RESULT:      -9.0      3.063      4.079
REMARK  2 active torsions:
REMARK  status: ('A' for Active; 'I' for Inactive)
REMARK    1  A    between atoms: O_2  and  C_3 
REMARK    2  A    between atoms: C_7  and  N_8 
REMARK       I    between atoms: N_8  and  C_9 
REMARK       I    between atoms: C_9  and  N_10 
ROOT
HETATM    1  N   UNL     1       7.706  30.771  59.288  1.00  0.00    -0.307 N 
HETATM    2  C   UNL     1       6.937  30.545  58.173  1.00  0.00     0.323 C 
HETATM    3  N   UNL     1       7.398  29.546  57.322  1.00  0.00    -0.328 N 
HETATM    4  C   UNL     1       6.732  29.459  56.013  1.00  0.00     0.185 C 
HETATM    5  C   UNL     1       6.813  28.067  55.502  1.00  0.00     0.035 A 
HETATM    6  C   UNL     1       7.542  27.025  56.031  1.00  0.00    -0.020 A 
HETATM    7  C   UNL     1       8.350  27.207  57.264  1.00  0.00     0.061 C 
HETATM    8  C   UNL     1       8.605  28.708  57.518  1.00  0.00     0.132 C 
HETATM    9  N   UNL     1       6.145  27.604  54.402  1.00  0.00    -0.357 N 
HETATM   10  H   UNL     1       5.520  28.144  53.819  1.00  0.00     0.166 HD
HETATM   11  C   UNL     1       6.428  26.267  54.211  1.00  0.00     0.043 A 
HETATM   12  C   UNL     1       7.309  25.879  55.225  1.00  0.00    -0.001 A 
HETATM   13  C   UNL     1       5.967  25.381  53.232  1.00  0.00     0.030 A 
HETATM   14  C   UNL     1       6.418  24.059  53.290  1.00  0.00     0.002 A 
HETATM   15  C   UNL     1       7.296  23.643  54.287  1.00  0.00     0.001 A 
HETATM   16  C   UNL     1       7.750  24.542  55.261  1.00  0.00     0.014 A 
HETATM   17  O   UNL     1       5.914  31.178  57.917  1.00  0.00    -0.247 OA
HETATM   18  H   UNL     1       8.693  30.580  59.200  1.00  0.00     0.170 HD
ENDROOT
BRANCH   1  19
HETATM   19  C   UNL     1       7.372  31.588  60.398  1.00  0.00     0.058 A 
HETATM   20  C   UNL     1       8.112  31.459  61.585  1.00  0.00     0.063 A 
HETATM   21  C   UNL     1       7.823  32.250  62.700  1.00  0.00     0.063 A 
HETATM   22 CL   UNL     1       9.419  30.327  61.700  1.00  0.00    -0.082 Cl
HETATM   23  C   UNL     1       6.786  33.181  62.653  1.00  0.00     0.070 A 
HETATM   24  C   UNL     1       6.023  33.292  61.492  1.00  0.00     0.039 A 
HETATM   25  C   UNL     1       6.313  32.499  60.374  1.00  0.00     0.034 A 
BRANCH  23  26
HETATM   26  O   UNL     1       6.611  33.908  63.798  1.00  0.00    -0.356 OA
HETATM   27  C   UNL     1       7.218  33.395  64.978  1.00  0.00     0.210 C 
ENDBRANCH  23  26
ENDBRANCH   1  19
TORSDOF 2
ENDMDL
MODEL 4
REMARK VINA RESULT:      -9.0      2.820      9.335
REMARK  2 active torsions:
REMARK  status: ('A' for Active; 'I' for Inactive)
REMARK    1  A    between atoms: O_2  and  C_3 
REMARK    2  A    between atoms: C_7  and  N_8 
REMARK       I    between atoms: N_8  and  C_9 
REMARK       I    between atoms: C_9  and  N_10 
ROOT
HETATM    1  N   UNL     1       7.535  26.090  55.426  1.00  0.00    -0.307 N 
HETATM    2  C   UNL     1       7.879  26.729  56.592  1.00  0.00     0.323 C 
HETATM    3  N   UNL     1       7.520  28.070  56.666  1.00  0.00    -0.328 N 
HETATM    4  C   UNL     1       8.091  28.828  57.790  1.00  0.00     0.185 C 
HETATM    5  C   UNL     1       7.192  29.956  58.143  1.00  0.00     0.035 A 
HETATM    6  C   UNL     1       6.084  30.388  57.448  1.00  0.00    -0.020 A 
HETATM    7  C   UNL     1       5.643  29.699  56.209  1.00  0.00     0.061 C 
HETATM    8  C   UNL     1       6.795  28.848  55.633  1.00  0.00     0.132 C 
HETATM    9  N   UNL     1       7.334  30.746  59.250  1.00  0.00    -0.357 N 
HETATM   10  H   UNL     1       8.054  30.653  59.954  1.00  0.00     0.166 HD
HETATM   11  C   UNL     1       6.327  31.688  59.285  1.00  0.00     0.043 A 
HETATM   12  C   UNL     1       5.525  31.484  58.159  1.00  0.00    -0.001 A 
HETATM   13  C   UNL     1       6.063  32.687  60.228  1.00  0.00     0.030 A 
HETATM   14  C   UNL     1       4.948  33.503  60.013  1.00  0.00     0.002 A 
HETATM   15  C   UNL     1       4.132  33.325  58.899  1.00  0.00     0.001 A 
HETATM   16  C   UNL     1       4.409  32.319  57.964  1.00  0.00     0.014 A 
HETATM   17  O   UNL     1       8.476  26.177  57.516  1.00  0.00    -0.247 OA
HETATM   18  H   UNL     1       7.492  26.661  54.596  1.00  0.00     0.170 HD
ENDROOT
BRANCH   1  19
HETATM   19  C   UNL     1       7.613  24.698  55.166  1.00  0.00     0.058 A 
HETATM   20  C   UNL     1       7.877  24.264  53.857  1.00  0.00     0.063 A 
HETATM   21  C   UNL     1       7.972  22.903  53.558  1.00  0.00     0.063 A 
HETATM   22 CL   UNL     1       8.113  25.403  52.573  1.00  0.00    -0.082 Cl
HETATM   23  C   UNL     1       7.798  21.948  54.560  1.00  0.00     0.070 A 
HETATM   24  C   UNL     1       7.500  22.367  55.855  1.00  0.00     0.039 A 
HETATM   25  C   UNL     1       7.406  23.732  56.154  1.00  0.00     0.034 A 
BRANCH  23  26
HETATM   26  O   UNL     1       7.931  20.651  54.149  1.00  0.00    -0.356 OA
HETATM   27  C   UNL     1       8.374  20.446  52.812  1.00  0.00     0.210 C 
ENDBRANCH  23  26
ENDBRANCH   1  19
TORSDOF 2
ENDMDL
MODEL 5
REMARK VINA RESULT:      -8.7      4.553     10.724
REMARK  2 active torsions:
REMARK  status: ('A' for Active; 'I' for Inactive)
REMARK    1  A    between atoms: O_2  and  C_3 
REMARK    2  A    between atoms: C_7  and  N_8 
REMARK       I    between atoms: N_8  and  C_9 
REMARK       I    between atoms: C_9  and  N_10 
ROOT
HETATM    1  N   UNL     1       7.088  30.538  58.809  1.00  0.00    -0.307 N 
HETATM    2  C   UNL     1       7.812  30.783  59.950  1.00  0.00     0.323 C 
HETATM    3  N   UNL     1       7.309  31.784  60.774  1.00  0.00    -0.328 N 
HETATM    4  C   UNL     1       8.194  32.227  61.862  1.00  0.00     0.185 C 
HETATM    5  C   UNL     1       7.379  32.751  62.988  1.00  0.00     0.035 A 
HETATM    6  C   UNL     1       6.022  32.985  62.997  1.00  0.00    -0.020 A 
HETATM    7  C   UNL     1       5.188  32.689  61.805  1.00  0.00     0.061 C 
HETATM    8  C   UNL     1       6.075  32.574  60.547  1.00  0.00     0.132 C 
HETATM    9  N   UNL     1       7.876  33.077  64.220  1.00  0.00    -0.357 N 
HETATM   10  H   UNL     1       8.841  32.994  64.509  1.00  0.00     0.166 HD
HETATM   11  C   UNL     1       6.854  33.518  65.034  1.00  0.00     0.043 A 
HETATM   12  C   UNL     1       5.674  33.470  64.286  1.00  0.00    -0.001 A 
HETATM   13  C   UNL     1       6.885  33.940  66.368  1.00  0.00     0.030 A 
HETATM   14  C   UNL     1       5.676  34.327  66.954  1.00  0.00     0.002 A 
HETATM   15  C   UNL     1       4.485  34.292  66.234  1.00  0.00     0.001 A 
HETATM   16  C   UNL     1       4.469  33.866  64.899  1.00  0.00     0.014 A 
HETATM   17  O   UNL     1       8.846  30.182  60.237  1.00  0.00    -0.247 OA
HETATM   18  H   UNL     1       6.578  31.318  58.424  1.00  0.00     0.170 HD
ENDROOT
BRANCH   1  19
HETATM   19  C   UNL     1       7.270  29.463  57.903  1.00  0.00     0.058 A 
HETATM   20  C   UNL     1       6.153  28.947  57.225  1.00  0.00     0.063 A 
HETATM   21  C   UNL     1       6.288  27.894  56.317  1.00  0.00     0.063 A 
HETATM   22 CL   UNL     1       4.574  29.613  57.479  1.00  0.00    -0.082 Cl
HETATM   23  C   UNL     1       7.540  27.331  56.073  1.00  0.00     0.070 A 
HETATM   24  C   UNL     1       8.649  27.811  56.767  1.00  0.00     0.039 A 
HETATM   25  C   UNL     1       8.514  28.867  57.677  1.00  0.00     0.034 A 
BRANCH  23  26
HETATM   26  O   UNL     1       7.549  26.321  55.152  1.00  0.00    -0.356 OA
HETATM   27  C   UNL     1       7.431  26.701  53.785  1.00  0.00     0.210 C 
ENDBRANCH  23  26
ENDBRANCH   1  19
TORSDOF 2
ENDMDL
MODEL 6
REMARK VINA RESULT:      -8.7      4.562      5.199
REMARK  2 active torsions:
REMARK  status: ('A' for Active; 'I' for Inactive)
REMARK    1  A    between atoms: O_2  and  C_3 
REMARK    2  A    between atoms: C_7  and  N_8 
REMARK       I    between atoms: N_8  and  C_9 
REMARK       I    between atoms: C_9  and  N_10 
ROOT
HETATM    1  N   UNL     1       5.952  27.904  51.982  1.00  0.00    -0.307 N 
HETATM    2  C   UNL     1       6.091  26.589  51.613  1.00  0.00     0.323 C 
HETATM    3  N   UNL     1       6.926  25.827  52.423  1.00  0.00    -0.328 N 
HETATM    4  C   UNL     1       7.281  24.495  51.909  1.00  0.00     0.185 C 
HETATM    5  C   UNL     1       7.580  23.583  53.042  1.00  0.00     0.035 A 
HETATM    6  C   UNL     1       7.707  23.920  54.372  1.00  0.00    -0.020 A 
HETATM    7  C   UNL     1       7.516  25.321  54.827  1.00  0.00     0.061 C 
HETATM    8  C   UNL     1       7.645  26.292  53.634  1.00  0.00     0.132 C 
HETATM    9  N   UNL     1       7.769  22.234  52.925  1.00  0.00    -0.357 N 
HETATM   10  H   UNL     1       7.721  21.703  52.066  1.00  0.00     0.166 HD
HETATM   11  C   UNL     1       8.014  21.687  54.167  1.00  0.00     0.043 A 
HETATM   12  C   UNL     1       7.981  22.730  55.097  1.00  0.00    -0.001 A 
HETATM   13  C   UNL     1       8.249  20.357  54.534  1.00  0.00     0.030 A 
HETATM   14  C   UNL     1       8.457  20.085  55.889  1.00  0.00     0.002 A 
HETATM   15  C   UNL     1       8.432  21.103  56.838  1.00  0.00     0.001 A 
HETATM   16  C   UNL     1       8.195  22.430  56.456  1.00  0.00     0.014 A 
HETATM   17  O   UNL     1       5.536  26.099  50.631  1.00  0.00    -0.247 OA
HETATM   18  H   UNL     1       6.737  28.324  52.456  1.00  0.00     0.170 HD
ENDROOT
BRANCH   1  19
HETATM   19  C   UNL     1       5.029  28.841  51.451  1.00  0.00     0.058 A 
HETATM   20  C   UNL     1       3.862  29.133  52.175  1.00  0.00     0.063 A 
HETATM   21  C   UNL     1       2.930  30.056  51.694  1.00  0.00     0.063 A 
HETATM   22 CL   UNL     1       3.548  28.371  53.700  1.00  0.00    -0.082 Cl
HETATM   23  C   UNL     1       3.144  30.702  50.476  1.00  0.00     0.070 A 
HETATM   24  C   UNL     1       4.281  30.393  49.732  1.00  0.00     0.039 A 
HETATM   25  C   UNL     1       5.215  29.467  50.216  1.00  0.00     0.034 A 
BRANCH  23  26
HETATM   26  O   UNL     1       2.172  31.595  50.119  1.00  0.00    -0.356 OA
HETATM   27  C   UNL     1       0.857  31.078  49.960  1.00  0.00     0.210 C 
ENDBRANCH  23  26
ENDBRANCH   1  19
TORSDOF 2
ENDMDL
MODEL 7
REMARK VINA RESULT:      -8.7      2.045      2.566
REMARK  2 active torsions:
REMARK  status: ('A' for Active; 'I' for Inactive)
REMARK    1  A    between atoms: O_2  and  C_3 
REMARK    2  A    between atoms: C_7  and  N_8 
REMARK       I    between atoms: N_8  and  C_9 
REMARK       I    between atoms: C_9  and  N_10 
ROOT
HETATM    1  N   UNL     1       5.474  28.228  56.329  1.00  0.00    -0.307 N 
HETATM    2  C   UNL     1       6.322  27.299  56.881  1.00  0.00     0.323 C 
HETATM    3  N   UNL     1       6.244  26.022  56.337  1.00  0.00    -0.328 N 
HETATM    4  C   UNL     1       6.958  24.966  57.072  1.00  0.00     0.185 C 
HETATM    5  C   UNL     1       7.352  23.883  56.135  1.00  0.00     0.035 A 
HETATM    6  C   UNL     1       6.975  23.742  54.817  1.00  0.00    -0.020 A 
HETATM    7  C   UNL     1       6.099  24.746  54.162  1.00  0.00     0.061 C 
HETATM    8  C   UNL     1       5.364  25.589  55.226  1.00  0.00     0.132 C 
HETATM    9  N   UNL     1       8.180  22.842  56.454  1.00  0.00    -0.357 N 
HETATM   10  H   UNL     1       8.623  22.693  57.351  1.00  0.00     0.166 HD
HETATM   11  C   UNL     1       8.351  22.026  55.355  1.00  0.00     0.043 A 
HETATM   12  C   UNL     1       7.599  22.571  54.310  1.00  0.00    -0.001 A 
HETATM   13  C   UNL     1       9.115  20.863  55.209  1.00  0.00     0.030 A 
HETATM   14  C   UNL     1       9.111  20.238  53.958  1.00  0.00     0.002 A 
HETATM   15  C   UNL     1       8.371  20.756  52.899  1.00  0.00     0.001 A 
HETATM   16  C   UNL     1       7.611  21.922  53.060  1.00  0.00     0.014 A 
HETATM   17  O   UNL     1       7.097  27.554  57.802  1.00  0.00    -0.247 OA
HETATM   18  H   UNL     1       4.606  27.877  55.954  1.00  0.00     0.170 HD
ENDROOT
BRANCH   1  19
HETATM   19  C   UNL     1       5.478  29.626  56.563  1.00  0.00     0.058 A 
HETATM   20  C   UNL     1       4.968  30.483  55.575  1.00  0.00     0.063 A 
HETATM   21  C   UNL     1       4.945  31.867  55.767  1.00  0.00     0.063 A 
HETATM   22 CL   UNL     1       4.332  29.852  54.092  1.00  0.00    -0.082 Cl
HETATM   23  C   UNL     1       5.437  32.422  56.948  1.00  0.00     0.070 A 
HETATM   24  C   UNL     1       5.979  31.583  57.920  1.00  0.00     0.039 A 
HETATM   25  C   UNL     1       6.001  30.196  57.727  1.00  0.00     0.034 A 
BRANCH  23  26
HETATM   26  O   UNL     1       5.344  33.784  57.027  1.00  0.00    -0.356 OA
HETATM   27  C   UNL     1       4.115  34.313  57.511  1.00  0.00     0.210 C 
ENDBRANCH  23  26
ENDBRANCH   1  19
TORSDOF 2
ENDMDL
MODEL 8
REMARK VINA RESULT:      -8.5      1.529      2.145
REMARK  2 active torsions:
REMARK  status: ('A' for Active; 'I' for Inactive)
REMARK    1  A    between atoms: O_2  and  C_3 
REMARK    2  A    between atoms: C_7  and  N_8 
REMARK       I    between atoms: N_8  and  C_9 
REMARK       I    between atoms: C_9  and  N_10 
ROOT
HETATM    1  N   UNL     1       6.310  30.239  58.178  1.00  0.00    -0.307 N 
HETATM    2  C   UNL     1       6.422  29.975  56.835  1.00  0.00     0.323 C 
HETATM    3  N   UNL     1       7.081  28.794  56.511  1.00  0.00    -0.328 N 
HETATM    4  C   UNL     1       7.426  28.618  55.092  1.00  0.00     0.185 C 
HETATM    5  C   UNL     1       7.499  27.170  54.770  1.00  0.00     0.035 A 
HETATM    6  C   UNL     1       7.449  26.116  55.654  1.00  0.00    -0.020 A 
HETATM    7  C   UNL     1       7.279  26.348  57.111  1.00  0.00     0.061 C 
HETATM    8  C   UNL     1       7.641  27.807  57.465  1.00  0.00     0.132 C 
HETATM    9  N   UNL     1       7.621  26.661  53.506  1.00  0.00    -0.357 N 
HETATM   10  H   UNL     1       7.667  27.201  52.653  1.00  0.00     0.166 HD
HETATM   11  C   UNL     1       7.646  25.283  53.559  1.00  0.00     0.043 A 
HETATM   12  C   UNL     1       7.541  24.914  54.903  1.00  0.00    -0.001 A 
HETATM   13  C   UNL     1       7.744  24.345  52.524  1.00  0.00     0.030 A 
HETATM   14  C   UNL     1       7.734  22.991  52.873  1.00  0.00     0.002 A 
HETATM   15  C   UNL     1       7.631  22.594  54.204  1.00  0.00     0.001 A 
HETATM   16  C   UNL     1       7.534  23.544  55.228  1.00  0.00     0.014 A 
HETATM   17  O   UNL     1       5.988  30.723  55.960  1.00  0.00    -0.247 OA
HETATM   18  H   UNL     1       7.041  29.875  58.770  1.00  0.00     0.170 HD
ENDROOT
BRANCH   1  19
HETATM   19  C   UNL     1       5.534  31.262  58.780  1.00  0.00     0.058 A 
HETATM   20  C   UNL     1       6.180  32.236  59.559  1.00  0.00     0.063 A 
HETATM   21  C   UNL     1       5.455  33.266  60.164  1.00  0.00     0.063 A 
HETATM   22 CL   UNL     1       7.898  32.203  59.781  1.00  0.00    -0.082 Cl
HETATM   23  C   UNL     1       4.071  33.340  60.007  1.00  0.00     0.070 A 
HETATM   24  C   UNL     1       3.417  32.358  59.266  1.00  0.00     0.039 A 
HETATM   25  C   UNL     1       4.144  31.325  58.660  1.00  0.00     0.034 A 
BRANCH  23  26
HETATM   26  O   UNL     1       3.476  34.402  60.630  1.00  0.00    -0.356 OA
HETATM   27  C   UNL     1       3.182  35.535  59.821  1.00  0.00     0.210 C 
ENDBRANCH  23  26
ENDBRANCH   1  19
TORSDOF 2
ENDMDL
MODEL 9
REMARK VINA RESULT:      -8.3      4.039      4.976
REMARK  2 active torsions:
REMARK  status: ('A' for Active; 'I' for Inactive)
REMARK    1  A    between atoms: O_2  and  C_3 
REMARK    2  A    between atoms: C_7  and  N_8 
REMARK       I    between atoms: N_8  and  C_9 
REMARK       I    between atoms: C_9  and  N_10 
ROOT
HETATM    1  N   UNL     1       5.058  28.250  52.281  1.00  0.00    -0.307 N 
HETATM    2  C   UNL     1       5.755  27.849  53.394  1.00  0.00     0.323 C 
HETATM    3  N   UNL     1       5.783  26.478  53.618  1.00  0.00    -0.328 N 
HETATM    4  C   UNL     1       6.308  26.050  54.924  1.00  0.00     0.185 C 
HETATM    5  C   UNL     1       6.885  24.686  54.811  1.00  0.00     0.035 A 
HETATM    6  C   UNL     1       6.803  23.833  53.732  1.00  0.00    -0.020 A 
HETATM    7  C   UNL     1       6.102  24.241  52.488  1.00  0.00     0.061 C 
HETATM    8  C   UNL     1       5.162  25.432  52.770  1.00  0.00     0.132 C 
HETATM    9  N   UNL     1       7.612  24.066  55.789  1.00  0.00    -0.357 N 
HETATM   10  H   UNL     1       7.846  24.460  56.690  1.00  0.00     0.166 HD
HETATM   11  C   UNL     1       8.009  22.818  55.357  1.00  0.00     0.043 A 
HETATM   12  C   UNL     1       7.509  22.646  54.063  1.00  0.00    -0.001 A 
HETATM   13  C   UNL     1       8.773  21.843  56.006  1.00  0.00     0.030 A 
HETATM   14  C   UNL     1       9.036  20.657  55.314  1.00  0.00     0.002 A 
HETATM   15  C   UNL     1       8.550  20.456  54.024  1.00  0.00     0.001 A 
HETATM   16  C   UNL     1       7.786  21.442  53.387  1.00  0.00     0.014 A 
HETATM   17  O   UNL     1       6.313  28.632  54.161  1.00  0.00    -0.247 OA
HETATM   18  H   UNL     1       4.289  27.663  51.996  1.00  0.00     0.170 HD
ENDROOT
BRANCH   1  19
HETATM   19  C   UNL     1       5.027  29.554  51.722  1.00  0.00     0.058 A 
HETATM   20  C   UNL     1       4.226  30.535  52.329  1.00  0.00     0.063 A 
HETATM   21  C   UNL     1       4.172  31.834  51.817  1.00  0.00     0.063 A 
HETATM   22 CL   UNL     1       3.292  30.172  53.743  1.00  0.00    -0.082 Cl
HETATM   23  C   UNL     1       4.913  32.177  50.686  1.00  0.00     0.070 A 
HETATM   24  C   UNL     1       5.683  31.201  50.056  1.00  0.00     0.039 A 
HETATM   25  C   UNL     1       5.736  29.899  50.569  1.00  0.00     0.034 A 
BRANCH  23  26
HETATM   26  O   UNL     1       4.793  33.480  50.292  1.00  0.00    -0.356 OA
HETATM   27  C   UNL     1       6.004  34.201  50.094  1.00  0.00     0.210 C 
ENDBRANCH  23  26
ENDBRANCH   1  19
TORSDOF 2
ENDMDL
MODEL 10
REMARK VINA RESULT:      -8.1      5.051      9.080
REMARK  2 active torsions:
REMARK  status: ('A' for Active; 'I' for Inactive)
REMARK    1  A    between atoms: O_2  and  C_3 
REMARK    2  A    between atoms: C_7  and  N_8 
REMARK       I    between atoms: N_8  and  C_9 
REMARK       I    between atoms: C_9  and  N_10 
ROOT
HETATM    1  N   UNL     1       6.933  25.858  53.801  1.00  0.00    -0.307 N 
HETATM    2  C   UNL     1       5.581  26.053  53.663  1.00  0.00     0.323 C 
HETATM    3  N   UNL     1       5.207  27.272  53.108  1.00  0.00    -0.328 N 
HETATM    4  C   UNL     1       3.775  27.600  53.179  1.00  0.00     0.185 C 
HETATM    5  C   UNL     1       3.412  28.507  52.060  1.00  0.00     0.035 A 
HETATM    6  C   UNL     1       4.269  29.126  51.178  1.00  0.00    -0.020 A 
HETATM    7  C   UNL     1       5.736  28.907  51.256  1.00  0.00     0.061 C 
HETATM    8  C   UNL     1       6.119  28.345  52.641  1.00  0.00     0.132 C 
HETATM    9  N   UNL     1       2.133  28.859  51.729  1.00  0.00    -0.357 N 
HETATM   10  H   UNL     1       1.294  28.543  52.196  1.00  0.00     0.166 HD
HETATM   11  C   UNL     1       2.147  29.700  50.636  1.00  0.00     0.043 A 
HETATM   12  C   UNL     1       3.483  29.886  50.270  1.00  0.00    -0.001 A 
HETATM   13  C   UNL     1       1.086  30.296  49.946  1.00  0.00     0.030 A 
HETATM   14  C   UNL     1       1.399  31.106  48.850  1.00  0.00     0.002 A 
HETATM   15  C   UNL     1       2.720  31.311  48.462  1.00  0.00     0.001 A 
HETATM   16  C   UNL     1       3.772  30.707  49.163  1.00  0.00     0.014 A 
HETATM   17  O   UNL     1       4.738  25.227  54.011  1.00  0.00    -0.247 OA
HETATM   18  H   UNL     1       7.495  26.684  53.940  1.00  0.00     0.170 HD
ENDROOT
BRANCH   1  19
HETATM   19  C   UNL     1       7.584  24.650  54.159  1.00  0.00     0.058 A 
HETATM   20  C   UNL     1       7.983  24.461  55.492  1.00  0.00     0.063 A 
HETATM   21  C   UNL     1       8.619  23.282  55.891  1.00  0.00     0.063 A 
HETATM   22 CL   UNL     1       7.683  25.675  56.691  1.00  0.00    -0.082 Cl
HETATM   23  C   UNL     1       8.874  22.272  54.963  1.00  0.00     0.070 A 
HETATM   24  C   UNL     1       8.515  22.465  53.630  1.00  0.00     0.039 A 
HETATM   25  C   UNL     1       7.877  23.646  53.232  1.00  0.00     0.034 A 
BRANCH  23  26
HETATM   26  O   UNL     1       9.485  21.161  55.475  1.00  0.00    -0.356 OA
HETATM   27  C   UNL     1       8.677  19.999  55.622  1.00  0.00     0.210 C 
ENDBRANCH  23  26
ENDBRANCH   1  19
TORSDOF 2
ENDMDL
