MODEL 1
REMARK VINA RESULT:      -9.8      0.000      0.000
REMARK  8 active torsions:
REMARK  status: ('A' for Active; 'I' for Inactive)
REMARK    1  A    between atoms: C_4  and  S_5 
REMARK    2  A    between atoms: S_5  and  C_6 
REMARK    3  A    between atoms: C_6  and  C_7 
REMARK       I    between atoms: C_7  and  N_8 
REMARK    4  A    between atoms: N_8  and  C_9 
REMARK    5  A    between atoms: C_10  and  O_11 
REMARK    6  A    between atoms: C_22  and  C_23 
REMARK    7  A    between atoms: C_29  and  C_30 
REMARK       I    between atoms: C_30  and  N_31 
REMARK    8  A    between atoms: N_31  and  C_32 
ROOT
HETATM    1  C   UNL     1       7.811  27.930  53.903  1.00  0.00     0.069 C 
HETATM    2  C   UNL     1       6.520  28.045  53.132  1.00  0.00     0.019 C 
HETATM    3  N   UNL     1       5.816  29.230  53.304  1.00  0.00    -0.353 N 
HETATM    4  C   UNL     1       4.476  29.380  52.983  1.00  0.00     0.088 C 
HETATM    5  C   UNL     1       3.902  28.511  52.116  1.00  0.00     0.069 C 
HETATM    6  C   UNL     1       2.523  28.558  51.752  1.00  0.00     0.099 C 
HETATM    7  N   UNL     1       1.406  28.526  51.440  1.00  0.00    -0.192 NA
HETATM    8  C   UNL     1       4.722  27.354  51.545  1.00  0.00     0.106 C 
HETATM    9  C   UNL     1       6.011  27.083  52.322  1.00  0.00     0.046 C 
HETATM   10  H   UNL     1       6.152  29.863  54.026  1.00  0.00     0.166 HD
ENDROOT
BRANCH   4  11
HETATM   11  S   UNL     1       3.521  30.608  53.804  1.00  0.00    -0.102 SA
BRANCH  11  12
HETATM   12  C   UNL     1       4.576  30.752  55.279  1.00  0.00     0.184 C 
BRANCH  12  13
HETATM   13  C   UNL     1       3.882  30.300  56.550  1.00  0.00     0.231 C 
HETATM   14  N   UNL     1       4.422  29.263  57.265  1.00  0.00    -0.324 N 
HETATM   15  H   UNL     1       3.736  28.726  57.788  1.00  0.00     0.169 HD
HETATM   16  O   UNL     1       2.766  30.722  56.859  1.00  0.00    -0.272 OA
BRANCH  14  17
HETATM   17  C   UNL     1       5.745  28.791  57.329  1.00  0.00     0.070 A 
HETATM   18  C   UNL     1       5.978  27.429  57.067  1.00  0.00     0.095 A 
HETATM   19  C   UNL     1       7.271  26.910  57.183  1.00  0.00     0.041 A 
HETATM   20  C   UNL     1       8.328  27.745  57.554  1.00  0.00     0.026 A 
HETATM   21  C   UNL     1       8.089  29.090  57.820  1.00  0.00     0.036 A 
HETATM   22 CL   UNL     1       9.387  30.109  58.309  1.00  0.00    -0.084 Cl
HETATM   23  C   UNL     1       6.804  29.616  57.716  1.00  0.00     0.056 A 
BRANCH  18  24
HETATM   24  O   UNL     1       4.883  26.683  56.703  1.00  0.00    -0.354 OA
HETATM   25  C   UNL     1       4.800  25.389  57.294  1.00  0.00     0.210 C 
ENDBRANCH  18  24
ENDBRANCH  14  17
ENDBRANCH  12  13
ENDBRANCH  11  12
ENDBRANCH   4  11
BRANCH   8  26
HETATM   26  C   UNL     1       4.966  27.561  50.046  1.00  0.00    -0.044 A 
HETATM   27  C   UNL     1       5.486  28.765  49.541  1.00  0.00     0.008 A 
HETATM   28  C   UNL     1       5.697  28.930  48.171  1.00  0.00     0.001 A 
HETATM   29  C   UNL     1       5.377  27.903  47.286  1.00  0.00     0.000 A 
HETATM   30  C   UNL     1       4.841  26.712  47.769  1.00  0.00     0.001 A 
HETATM   31  C   UNL     1       4.635  26.540  49.138  1.00  0.00     0.008 A 
ENDBRANCH   8  26
BRANCH   9  32
HETATM   32  C   UNL     1       6.546  25.679  52.374  1.00  0.00     0.255 C 
HETATM   33  N   UNL     1       6.329  25.022  53.566  1.00  0.00    -0.323 N 
HETATM   34  H   UNL     1       5.711  25.451  54.241  1.00  0.00     0.169 HD
HETATM   35  O   UNL     1       7.196  25.248  51.427  1.00  0.00    -0.268 OA
BRANCH  33  36
HETATM   36  C   UNL     1       6.919  23.811  53.994  1.00  0.00     0.035 A 
HETATM   37  C   UNL     1       7.317  22.784  53.137  1.00  0.00     0.029 A 
HETATM   38  C   UNL     1       7.933  21.634  53.642  1.00  0.00     0.002 A 
HETATM   39  C   UNL     1       8.162  21.504  55.009  1.00  0.00     0.000 A 
HETATM   40  C   UNL     1       7.766  22.520  55.875  1.00  0.00     0.002 A 
HETATM   41  C   UNL     1       7.141  23.664  55.370  1.00  0.00     0.029 A 
ENDBRANCH  33  36
ENDBRANCH   9  32
TORSDOF 8
ENDMDL
MODEL 2
REMARK VINA RESULT:      -9.3      3.641      5.808
REMARK  8 active torsions:
REMARK  status: ('A' for Active; 'I' for Inactive)
REMARK    1  A    between atoms: C_4  and  S_5 
REMARK    2  A    between atoms: S_5  and  C_6 
REMARK    3  A    between atoms: C_6  and  C_7 
REMARK       I    between atoms: C_7  and  N_8 
REMARK    4  A    between atoms: N_8  and  C_9 
REMARK    5  A    between atoms: C_10  and  O_11 
REMARK    6  A    between atoms: C_22  and  C_23 
REMARK    7  A    between atoms: C_29  and  C_30 
REMARK       I    between atoms: C_30  and  N_31 
REMARK    8  A    between atoms: N_31  and  C_32 
ROOT
HETATM    1  C   UNL     1       5.061  25.528  57.035  1.00  0.00     0.069 C 
HETATM    2  C   UNL     1       5.383  26.963  56.701  1.00  0.00     0.019 C 
HETATM    3  N   UNL     1       4.593  27.920  57.325  1.00  0.00    -0.353 N 
HETATM    4  C   UNL     1       4.491  29.233  56.889  1.00  0.00     0.088 C 
HETATM    5  C   UNL     1       5.459  29.742  56.090  1.00  0.00     0.069 C 
HETATM    6  C   UNL     1       5.424  31.065  55.557  1.00  0.00     0.099 C 
HETATM    7  N   UNL     1       5.440  32.119  55.073  1.00  0.00    -0.192 NA
HETATM    8  C   UNL     1       6.619  28.854  55.641  1.00  0.00     0.106 C 
HETATM    9  C   UNL     1       6.352  27.361  55.840  1.00  0.00     0.046 C 
HETATM   10  H   UNL     1       3.788  27.583  57.847  1.00  0.00     0.166 HD
ENDROOT
BRANCH   4  11
HETATM   11  S   UNL     1       3.048  30.162  57.273  1.00  0.00    -0.102 SA
BRANCH  11  12
HETATM   12  C   UNL     1       3.675  30.913  58.806  1.00  0.00     0.184 C 
BRANCH  12  13
HETATM   13  C   UNL     1       3.769  32.425  58.729  1.00  0.00     0.231 C 
HETATM   14  N   UNL     1       4.314  33.108  59.786  1.00  0.00    -0.324 N 
HETATM   15  H   UNL     1       3.951  34.051  59.894  1.00  0.00     0.169 HD
HETATM   16  O   UNL     1       3.220  33.060  57.827  1.00  0.00    -0.272 OA
BRANCH  14  17
HETATM   17  C   UNL     1       5.226  32.688  60.769  1.00  0.00     0.070 A 
HETATM   18  C   UNL     1       4.745  32.469  62.073  1.00  0.00     0.095 A 
HETATM   19  C   UNL     1       5.634  32.113  63.091  1.00  0.00     0.041 A 
HETATM   20  C   UNL     1       6.996  31.971  62.813  1.00  0.00     0.026 A 
HETATM   21  C   UNL     1       7.466  32.197  61.523  1.00  0.00     0.036 A 
HETATM   22 CL   UNL     1       9.149  32.053  61.188  1.00  0.00    -0.084 Cl
HETATM   23  C   UNL     1       6.592  32.560  60.502  1.00  0.00     0.056 A 
BRANCH  18  24
HETATM   24  O   UNL     1       3.392  32.626  62.257  1.00  0.00    -0.354 OA
HETATM   25  C   UNL     1       3.005  33.776  63.005  1.00  0.00     0.210 C 
ENDBRANCH  18  24
ENDBRANCH  14  17
ENDBRANCH  12  13
ENDBRANCH  11  12
ENDBRANCH   4  11
BRANCH   8  26
HETATM   26  C   UNL     1       7.928  29.314  56.293  1.00  0.00    -0.044 A 
HETATM   27  C   UNL     1       9.137  29.351  55.579  1.00  0.00     0.008 A 
HETATM   28  C   UNL     1      10.315  29.772  56.196  1.00  0.00     0.001 A 
HETATM   29  C   UNL     1      10.307  30.146  57.538  1.00  0.00     0.000 A 
HETATM   30  C   UNL     1       9.121  30.095  58.266  1.00  0.00     0.001 A 
HETATM   31  C   UNL     1       7.938  29.681  57.651  1.00  0.00     0.008 A 
ENDBRANCH   8  26
BRANCH   9  32
HETATM   32  C   UNL     1       6.987  26.377  54.897  1.00  0.00     0.255 C 
HETATM   33  N   UNL     1       6.968  25.069  55.329  1.00  0.00    -0.323 N 
HETATM   34  H   UNL     1       6.411  24.843  56.142  1.00  0.00     0.169 HD
HETATM   35  O   UNL     1       7.542  26.788  53.883  1.00  0.00    -0.268 OA
BRANCH  33  36
HETATM   36  C   UNL     1       7.690  23.980  54.790  1.00  0.00     0.035 A 
HETATM   37  C   UNL     1       8.788  23.381  55.409  1.00  0.00     0.029 A 
HETATM   38  C   UNL     1       9.421  22.279  54.825  1.00  0.00     0.002 A 
HETATM   39  C   UNL     1       8.957  21.762  53.618  1.00  0.00     0.000 A 
HETATM   40  C   UNL     1       7.866  22.353  52.988  1.00  0.00     0.002 A 
HETATM   41  C   UNL     1       7.240  23.461  53.568  1.00  0.00     0.029 A 
ENDBRANCH  33  36
ENDBRANCH   9  32
TORSDOF 8
ENDMDL
MODEL 3
REMARK VINA RESULT:      -9.3      1.559      2.023
REMARK  8 active torsions:
REMARK  status: ('A' for Active; 'I' for Inactive)
REMARK    1  A    between atoms: C_4  and  S_5 
REMARK    2  A    between atoms: S_5  and  C_6 
REMARK    3  A    between atoms: C_6  and  C_7 
REMARK       I    between atoms: C_7  and  N_8 
REMARK    4  A    between atoms: N_8  and  C_9 
REMARK    5  A    between atoms: C_10  and  O_11 
REMARK    6  A    between atoms: C_22  and  C_23 
REMARK    7  A    between atoms: C_29  and  C_30 
REMARK       I    between atoms: C_30  and  N_31 
REMARK    8  A    between atoms: N_31  and  C_32 
ROOT
HETATM    1  C   UNL     1       7.919  27.728  53.880  1.00  0.00     0.069 C 
HETATM    2  C   UNL     1       6.622  27.898  53.130  1.00  0.00     0.019 C 
HETATM    3  N   UNL     1       5.959  29.102  53.333  1.00  0.00    -0.353 N 
HETATM    4  C   UNL     1       4.620  29.300  53.034  1.00  0.00     0.088 C 
HETATM    5  C   UNL     1       4.006  28.466  52.161  1.00  0.00     0.069 C 
HETATM    6  C   UNL     1       2.625  28.563  51.819  1.00  0.00     0.099 C 
HETATM    7  N   UNL     1       1.503  28.573  51.522  1.00  0.00    -0.192 NA
HETATM    8  C   UNL     1       4.781  27.294  51.558  1.00  0.00     0.106 C 
HETATM    9  C   UNL     1       6.071  26.967  52.312  1.00  0.00     0.046 C 
HETATM   10  H   UNL     1       6.326  29.711  54.061  1.00  0.00     0.166 HD
ENDROOT
BRANCH   4  11
HETATM   11  S   UNL     1       3.717  30.543  53.891  1.00  0.00    -0.102 SA
BRANCH  11  12
HETATM   12  C   UNL     1       4.138  29.997  55.573  1.00  0.00     0.184 C 
BRANCH  12  13
HETATM   13  C   UNL     1       5.214  30.848  56.221  1.00  0.00     0.231 C 
HETATM   14  N   UNL     1       6.076  30.260  57.110  1.00  0.00    -0.324 N 
HETATM   15  H   UNL     1       6.431  30.897  57.817  1.00  0.00     0.169 HD
HETATM   16  O   UNL     1       5.224  32.074  56.102  1.00  0.00    -0.272 OA
BRANCH  14  17
HETATM   17  C   UNL     1       6.480  28.920  57.237  1.00  0.00     0.070 A 
HETATM   18  C   UNL     1       7.855  28.649  57.363  1.00  0.00     0.095 A 
HETATM   19  C   UNL     1       8.300  27.325  57.428  1.00  0.00     0.041 A 
HETATM   20  C   UNL     1       7.380  26.275  57.372  1.00  0.00     0.026 A 
HETATM   21  C   UNL     1       6.022  26.549  57.239  1.00  0.00     0.036 A 
HETATM   22 CL   UNL     1       4.893  25.254  57.138  1.00  0.00    -0.084 Cl
HETATM   23  C   UNL     1       5.567  27.864  57.165  1.00  0.00     0.056 A 
BRANCH  18  24
HETATM   24  O   UNL     1       8.688  29.740  57.416  1.00  0.00    -0.354 OA
HETATM   25  C   UNL     1       9.776  29.725  56.496  1.00  0.00     0.210 C 
ENDBRANCH  18  24
ENDBRANCH  14  17
ENDBRANCH  12  13
ENDBRANCH  11  12
ENDBRANCH   4  11
BRANCH   8  26
HETATM   26  C   UNL     1       5.010  27.520  50.059  1.00  0.00    -0.044 A 
HETATM   27  C   UNL     1       5.563  28.715  49.568  1.00  0.00     0.008 A 
HETATM   28  C   UNL     1       5.760  28.897  48.199  1.00  0.00     0.001 A 
HETATM   29  C   UNL     1       5.393  27.898  47.300  1.00  0.00     0.000 A 
HETATM   30  C   UNL     1       4.823  26.717  47.770  1.00  0.00     0.001 A 
HETATM   31  C   UNL     1       4.631  26.527  49.138  1.00  0.00     0.008 A 
ENDBRANCH   8  26
BRANCH   9  32
HETATM   32  C   UNL     1       6.561  25.547  52.331  1.00  0.00     0.255 C 
HETATM   33  N   UNL     1       6.380  24.890  53.529  1.00  0.00    -0.323 N 
HETATM   34  H   UNL     1       5.810  25.335  54.235  1.00  0.00     0.169 HD
HETATM   35  O   UNL     1       7.150  25.101  51.352  1.00  0.00    -0.268 OA
BRANCH  33  36
HETATM   36  C   UNL     1       6.950  23.658  53.922  1.00  0.00     0.035 A 
HETATM   37  C   UNL     1       7.407  22.683  53.034  1.00  0.00     0.029 A 
HETATM   38  C   UNL     1       7.997  21.507  53.510  1.00  0.00     0.002 A 
HETATM   39  C   UNL     1       8.142  21.299  54.878  1.00  0.00     0.000 A 
HETATM   40  C   UNL     1       7.687  22.262  55.775  1.00  0.00     0.002 A 
HETATM   41  C   UNL     1       7.088  23.432  55.299  1.00  0.00     0.029 A 
ENDBRANCH  33  36
ENDBRANCH   9  32
TORSDOF 8
ENDMDL
MODEL 4
REMARK VINA RESULT:      -9.2      3.588      9.082
REMARK  8 active torsions:
REMARK  status: ('A' for Active; 'I' for Inactive)
REMARK    1  A    between atoms: C_4  and  S_5 
REMARK    2  A    between atoms: S_5  and  C_6 
REMARK    3  A    between atoms: C_6  and  C_7 
REMARK       I    between atoms: C_7  and  N_8 
REMARK    4  A    between atoms: N_8  and  C_9 
REMARK    5  A    between atoms: C_10  and  O_11 
REMARK    6  A    between atoms: C_22  and  C_23 
REMARK    7  A    between atoms: C_29  and  C_30 
REMARK       I    between atoms: C_30  and  N_31 
REMARK    8  A    between atoms: N_31  and  C_32 
ROOT
HETATM    1  C   UNL     1       4.433  32.551  55.798  1.00  0.00     0.069 C 
HETATM    2  C   UNL     1       5.340  31.548  56.466  1.00  0.00     0.019 C 
HETATM    3  N   UNL     1       6.213  30.869  55.626  1.00  0.00    -0.353 N 
HETATM    4  C   UNL     1       6.851  29.688  55.975  1.00  0.00     0.088 C 
HETATM    5  C   UNL     1       6.970  29.362  57.285  1.00  0.00     0.069 C 
HETATM    6  C   UNL     1       7.573  28.153  57.743  1.00  0.00     0.099 C 
HETATM    7  N   UNL     1       8.026  27.177  58.177  1.00  0.00    -0.192 NA
HETATM    8  C   UNL     1       6.359  30.271  58.352  1.00  0.00     0.106 C 
HETATM    9  C   UNL     1       5.339  31.264  57.792  1.00  0.00     0.046 C 
HETATM   10  H   UNL     1       6.085  31.001  54.625  1.00  0.00     0.166 HD
ENDROOT
BRANCH   4  11
HETATM   11  S   UNL     1       7.373  28.580  54.713  1.00  0.00    -0.102 SA
BRANCH  11  12
HETATM   12  C   UNL     1       5.738  28.328  53.956  1.00  0.00     0.184 C 
BRANCH  12  13
HETATM   13  C   UNL     1       4.776  27.581  54.859  1.00  0.00     0.231 C 
HETATM   14  N   UNL     1       4.814  26.210  54.875  1.00  0.00    -0.324 N 
HETATM   15  H   UNL     1       3.921  25.779  55.098  1.00  0.00     0.169 HD
HETATM   16  O   UNL     1       3.856  28.159  55.440  1.00  0.00    -0.272 OA
BRANCH  14  17
HETATM   17  C   UNL     1       5.860  25.324  54.566  1.00  0.00     0.070 A 
HETATM   18  C   UNL     1       5.846  24.691  53.310  1.00  0.00     0.095 A 
HETATM   19  C   UNL     1       6.835  23.755  52.992  1.00  0.00     0.041 A 
HETATM   20  C   UNL     1       7.836  23.454  53.919  1.00  0.00     0.026 A 
HETATM   21  C   UNL     1       7.839  24.077  55.163  1.00  0.00     0.036 A 
HETATM   22 CL   UNL     1       9.055  23.681  56.316  1.00  0.00    -0.084 Cl
HETATM   23  C   UNL     1       6.855  25.005  55.494  1.00  0.00     0.056 A 
BRANCH  18  24
HETATM   24  O   UNL     1       4.829  25.050  52.459  1.00  0.00    -0.354 OA
HETATM   25  C   UNL     1       5.231  25.766  51.293  1.00  0.00     0.210 C 
ENDBRANCH  18  24
ENDBRANCH  14  17
ENDBRANCH  12  13
ENDBRANCH  11  12
ENDBRANCH   4  11
BRANCH   8  26
HETATM   26  C   UNL     1       7.463  30.952  59.169  1.00  0.00    -0.044 A 
HETATM   27  C   UNL     1       8.717  31.254  58.611  1.00  0.00     0.008 A 
HETATM   28  C   UNL     1       9.706  31.872  59.376  1.00  0.00     0.001 A 
HETATM   29  C   UNL     1       9.465  32.181  60.713  1.00  0.00     0.000 A 
HETATM   30  C   UNL     1       8.236  31.869  61.287  1.00  0.00     0.001 A 
HETATM   31  C   UNL     1       7.241  31.257  60.523  1.00  0.00     0.008 A 
ENDBRANCH   8  26
BRANCH   9  32
HETATM   32  C   UNL     1       4.202  31.709  58.668  1.00  0.00     0.255 C 
HETATM   33  N   UNL     1       4.419  32.891  59.341  1.00  0.00    -0.323 N 
HETATM   34  H   UNL     1       5.230  33.441  59.090  1.00  0.00     0.169 HD
HETATM   35  O   UNL     1       3.223  30.980  58.799  1.00  0.00    -0.268 OA
BRANCH  33  36
HETATM   36  C   UNL     1       3.654  33.423  60.404  1.00  0.00     0.035 A 
HETATM   37  C   UNL     1       2.489  34.173  60.237  1.00  0.00     0.029 A 
HETATM   38  C   UNL     1       1.769  34.626  61.347  1.00  0.00     0.002 A 
HETATM   39  C   UNL     1       2.204  34.326  62.636  1.00  0.00     0.000 A 
HETATM   40  C   UNL     1       3.367  33.583  62.816  1.00  0.00     0.002 A 
HETATM   41  C   UNL     1       4.092  33.140  61.705  1.00  0.00     0.029 A 
ENDBRANCH  33  36
ENDBRANCH   9  32
TORSDOF 8
ENDMDL
MODEL 5
REMARK VINA RESULT:      -9.2      3.085      8.710
REMARK  8 active torsions:
REMARK  status: ('A' for Active; 'I' for Inactive)
REMARK    1  A    between atoms: C_4  and  S_5 
REMARK    2  A    between atoms: S_5  and  C_6 
REMARK    3  A    between atoms: C_6  and  C_7 
REMARK       I    between atoms: C_7  and  N_8 
REMARK    4  A    between atoms: N_8  and  C_9 
REMARK    5  A    between atoms: C_10  and  O_11 
REMARK    6  A    between atoms: C_22  and  C_23 
REMARK    7  A    between atoms: C_29  and  C_30 
REMARK       I    between atoms: C_30  and  N_31 
REMARK    8  A    between atoms: N_31  and  C_32 
ROOT
HETATM    1  C   UNL     1       4.325  29.959  54.608  1.00  0.00     0.069 C 
HETATM    2  C   UNL     1       5.342  29.138  55.362  1.00  0.00     0.019 C 
HETATM    3  N   UNL     1       5.820  28.014  54.701  1.00  0.00    -0.353 N 
HETATM    4  C   UNL     1       6.463  26.964  55.340  1.00  0.00     0.088 C 
HETATM    5  C   UNL     1       7.011  27.169  56.561  1.00  0.00     0.069 C 
HETATM    6  C   UNL     1       7.657  26.145  57.315  1.00  0.00     0.099 C 
HETATM    7  N   UNL     1       8.169  25.350  57.988  1.00  0.00    -0.192 NA
HETATM    8  C   UNL     1       6.872  28.533  57.238  1.00  0.00     0.106 C 
HETATM    9  C   UNL     1       5.786  29.412  56.613  1.00  0.00     0.046 C 
HETATM   10  H   UNL     1       5.359  27.761  53.830  1.00  0.00     0.166 HD
ENDROOT
BRANCH   4  11
HETATM   11  S   UNL     1       6.438  25.363  54.612  1.00  0.00    -0.102 SA
BRANCH  11  12
HETATM   12  C   UNL     1       5.598  25.839  53.070  1.00  0.00     0.184 C 
BRANCH  12  13
HETATM   13  C   UNL     1       6.491  25.724  51.849  1.00  0.00     0.231 C 
HETATM   14  N   UNL     1       6.067  26.273  50.667  1.00  0.00    -0.324 N 
HETATM   15  H   UNL     1       6.429  25.800  49.843  1.00  0.00     0.169 HD
HETATM   16  O   UNL     1       7.494  25.008  51.850  1.00  0.00    -0.272 OA
BRANCH  14  17
HETATM   17  C   UNL     1       5.169  27.326  50.421  1.00  0.00     0.070 A 
HETATM   18  C   UNL     1       4.070  27.079  49.578  1.00  0.00     0.095 A 
HETATM   19  C   UNL     1       3.191  28.118  49.260  1.00  0.00     0.041 A 
HETATM   20  C   UNL     1       3.401  29.397  49.781  1.00  0.00     0.026 A 
HETATM   21  C   UNL     1       4.495  29.636  50.608  1.00  0.00     0.036 A 
HETATM   22 CL   UNL     1       4.772  31.220  51.224  1.00  0.00    -0.084 Cl
HETATM   23  C   UNL     1       5.382  28.612  50.926  1.00  0.00     0.056 A 
BRANCH  18  24
HETATM   24  O   UNL     1       3.936  25.792  49.114  1.00  0.00    -0.354 OA
HETATM   25  C   UNL     1       3.335  25.665  47.828  1.00  0.00     0.210 C 
ENDBRANCH  18  24
ENDBRANCH  14  17
ENDBRANCH  12  13
ENDBRANCH  11  12
ENDBRANCH   4  11
BRANCH   8  26
HETATM   26  C   UNL     1       8.233  29.234  57.311  1.00  0.00    -0.044 A 
HETATM   27  C   UNL     1       8.662  29.896  58.474  1.00  0.00     0.008 A 
HETATM   28  C   UNL     1       9.904  30.529  58.516  1.00  0.00     0.001 A 
HETATM   29  C   UNL     1      10.729  30.524  57.392  1.00  0.00     0.000 A 
HETATM   30  C   UNL     1      10.309  29.891  56.226  1.00  0.00     0.001 A 
HETATM   31  C   UNL     1       9.070  29.251  56.182  1.00  0.00     0.008 A 
ENDBRANCH   8  26
BRANCH   9  32
HETATM   32  C   UNL     1       5.058  30.396  57.485  1.00  0.00     0.255 C 
HETATM   33  N   UNL     1       5.784  31.517  57.821  1.00  0.00    -0.323 N 
HETATM   34  H   UNL     1       6.665  31.674  57.351  1.00  0.00     0.169 HD
HETATM   35  O   UNL     1       3.939  30.116  57.902  1.00  0.00    -0.268 OA
BRANCH  33  36
HETATM   36  C   UNL     1       5.465  32.478  58.808  1.00  0.00     0.035 A 
HETATM   37  C   UNL     1       4.531  33.500  58.638  1.00  0.00     0.029 A 
HETATM   38  C   UNL     1       4.245  34.384  59.683  1.00  0.00     0.002 A 
HETATM   39  C   UNL     1       4.886  34.249  60.912  1.00  0.00     0.000 A 
HETATM   40  C   UNL     1       5.823  33.236  61.093  1.00  0.00     0.002 A 
HETATM   41  C   UNL     1       6.116  32.359  60.044  1.00  0.00     0.029 A 
ENDBRANCH  33  36
ENDBRANCH   9  32
TORSDOF 8
ENDMDL
MODEL 6
REMARK VINA RESULT:      -8.8      3.739      9.010
REMARK  8 active torsions:
REMARK  status: ('A' for Active; 'I' for Inactive)
REMARK    1  A    between atoms: C_4  and  S_5 
REMARK    2  A    between atoms: S_5  and  C_6 
REMARK    3  A    between atoms: C_6  and  C_7 
REMARK       I    between atoms: C_7  and  N_8 
REMARK    4  A    between atoms: N_8  and  C_9 
REMARK    5  A    between atoms: C_10  and  O_11 
REMARK    6  A    between atoms: C_22  and  C_23 
REMARK    7  A    between atoms: C_29  and  C_30 
REMARK       I    between atoms: C_30  and  N_31 
REMARK    8  A    between atoms: N_31  and  C_32 
ROOT
HETATM    1  C   UNL     1       4.166  31.740  54.931  1.00  0.00     0.069 C 
HETATM    2  C   UNL     1       5.003  30.508  55.166  1.00  0.00     0.019 C 
HETATM    3  N   UNL     1       5.188  29.684  54.064  1.00  0.00    -0.353 N 
HETATM    4  C   UNL     1       5.604  28.364  54.154  1.00  0.00     0.088 C 
HETATM    5  C   UNL     1       6.235  27.945  55.276  1.00  0.00     0.069 C 
HETATM    6  C   UNL     1       6.666  26.600  55.481  1.00  0.00     0.099 C 
HETATM    7  N   UNL     1       7.014  25.519  55.718  1.00  0.00    -0.192 NA
HETATM    8  C   UNL     1       6.436  28.913  56.442  1.00  0.00     0.106 C 
HETATM    9  C   UNL     1       5.551  30.157  56.356  1.00  0.00     0.046 C 
HETATM   10  H   UNL     1       4.645  29.901  53.231  1.00  0.00     0.166 HD
ENDROOT
BRANCH   4  11
HETATM   11  S   UNL     1       5.189  27.236  52.870  1.00  0.00    -0.102 SA
BRANCH  11  12
HETATM   12  C   UNL     1       4.313  28.427  51.810  1.00  0.00     0.184 C 
BRANCH  12  13
HETATM   13  C   UNL     1       5.205  29.050  50.754  1.00  0.00     0.231 C 
HETATM   14  N   UNL     1       5.160  28.558  49.476  1.00  0.00    -0.324 N 
HETATM   15  H   UNL     1       6.033  28.663  48.966  1.00  0.00     0.169 HD
HETATM   16  O   UNL     1       6.084  29.862  51.051  1.00  0.00    -0.272 OA
BRANCH  14  17
HETATM   17  C   UNL     1       4.134  27.878  48.797  1.00  0.00     0.070 A 
HETATM   18  C   UNL     1       3.115  28.639  48.196  1.00  0.00     0.095 A 
HETATM   19  C   UNL     1       2.046  27.995  47.567  1.00  0.00     0.041 A 
HETATM   20  C   UNL     1       1.992  26.600  47.532  1.00  0.00     0.026 A 
HETATM   21  C   UNL     1       2.999  25.853  48.135  1.00  0.00     0.036 A 
HETATM   22 CL   UNL     1       2.915  24.133  48.120  1.00  0.00    -0.084 Cl
HETATM   23  C   UNL     1       4.065  26.482  48.772  1.00  0.00     0.056 A 
BRANCH  18  24
HETATM   24  O   UNL     1       3.250  30.005  48.273  1.00  0.00    -0.354 OA
HETATM   25  C   UNL     1       2.243  30.678  49.024  1.00  0.00     0.210 C 
ENDBRANCH  18  24
ENDBRANCH  14  17
ENDBRANCH  12  13
ENDBRANCH  11  12
ENDBRANCH   4  11
BRANCH   8  26
HETATM   26  C   UNL     1       7.922  29.252  56.606  1.00  0.00    -0.044 A 
HETATM   27  C   UNL     1       8.807  29.243  55.514  1.00  0.00     0.008 A 
HETATM   28  C   UNL     1      10.156  29.553  55.689  1.00  0.00     0.001 A 
HETATM   29  C   UNL     1      10.644  29.860  56.958  1.00  0.00     0.000 A 
HETATM   30  C   UNL     1       9.784  29.852  58.053  1.00  0.00     0.001 A 
HETATM   31  C   UNL     1       8.433  29.549  57.881  1.00  0.00     0.008 A 
ENDBRANCH   8  26
BRANCH   9  32
HETATM   32  C   UNL     1       5.100  30.818  57.629  1.00  0.00     0.255 C 
HETATM   33  N   UNL     1       5.924  31.826  58.079  1.00  0.00    -0.323 N 
HETATM   34  H   UNL     1       6.661  32.149  57.467  1.00  0.00     0.169 HD
HETATM   35  O   UNL     1       4.116  30.381  58.217  1.00  0.00    -0.268 OA
BRANCH  33  36
HETATM   36  C   UNL     1       5.898  32.449  59.348  1.00  0.00     0.035 A 
HETATM   37  C   UNL     1       6.853  32.244  60.345  1.00  0.00     0.029 A 
HETATM   38  C   UNL     1       6.774  32.934  61.559  1.00  0.00     0.002 A 
HETATM   39  C   UNL     1       5.742  33.841  61.784  1.00  0.00     0.000 A 
HETATM   40  C   UNL     1       4.781  34.051  60.800  1.00  0.00     0.002 A 
HETATM   41  C   UNL     1       4.855  33.353  59.591  1.00  0.00     0.029 A 
ENDBRANCH  33  36
ENDBRANCH   9  32
TORSDOF 8
ENDMDL
MODEL 7
REMARK VINA RESULT:      -8.8      3.709      5.192
REMARK  8 active torsions:
REMARK  status: ('A' for Active; 'I' for Inactive)
REMARK    1  A    between atoms: C_4  and  S_5 
REMARK    2  A    between atoms: S_5  and  C_6 
REMARK    3  A    between atoms: C_6  and  C_7 
REMARK       I    between atoms: C_7  and  N_8 
REMARK    4  A    between atoms: N_8  and  C_9 
REMARK    5  A    between atoms: C_10  and  O_11 
REMARK    6  A    between atoms: C_22  and  C_23 
REMARK    7  A    between atoms: C_29  and  C_30 
REMARK       I    between atoms: C_30  and  N_31 
REMARK    8  A    between atoms: N_31  and  C_32 
ROOT
HETATM    1  C   UNL     1       8.695  28.173  57.210  1.00  0.00     0.069 C 
HETATM    2  C   UNL     1       7.336  28.669  56.782  1.00  0.00     0.019 C 
HETATM    3  N   UNL     1       7.115  30.031  56.932  1.00  0.00    -0.353 N 
HETATM    4  C   UNL     1       5.854  30.608  56.939  1.00  0.00     0.088 C 
HETATM    5  C   UNL     1       4.814  29.930  56.398  1.00  0.00     0.069 C 
HETATM    6  C   UNL     1       3.473  30.419  56.392  1.00  0.00     0.099 C 
HETATM    7  N   UNL     1       2.361  30.749  56.380  1.00  0.00    -0.192 NA
HETATM    8  C   UNL     1       5.033  28.526  55.833  1.00  0.00     0.106 C 
HETATM    9  C   UNL     1       6.343  27.885  56.294  1.00  0.00     0.046 C 
HETATM   10  H   UNL     1       7.825  30.561  57.433  1.00  0.00     0.166 HD
ENDROOT
BRANCH   4  11
HETATM   11  S   UNL     1       5.608  32.141  57.765  1.00  0.00    -0.102 SA
BRANCH  11  12
HETATM   12  C   UNL     1       5.147  31.447  59.381  1.00  0.00     0.184 C 
BRANCH  12  13
HETATM   13  C   UNL     1       4.178  32.325  60.149  1.00  0.00     0.231 C 
HETATM   14  N   UNL     1       4.426  32.583  61.472  1.00  0.00    -0.324 N 
HETATM   15  H   UNL     1       3.586  32.753  62.020  1.00  0.00     0.169 HD
HETATM   16  O   UNL     1       3.096  32.666  59.666  1.00  0.00    -0.272 OA
BRANCH  14  17
HETATM   17  C   UNL     1       5.633  32.578  62.191  1.00  0.00     0.070 A 
HETATM   18  C   UNL     1       5.610  33.000  63.533  1.00  0.00     0.095 A 
HETATM   19  C   UNL     1       6.802  33.068  64.261  1.00  0.00     0.041 A 
HETATM   20  C   UNL     1       8.011  32.714  63.657  1.00  0.00     0.026 A 
HETATM   21  C   UNL     1       8.028  32.305  62.327  1.00  0.00     0.036 A 
HETATM   22 CL   UNL     1       9.523  31.900  61.575  1.00  0.00    -0.084 Cl
HETATM   23  C   UNL     1       6.849  32.241  61.589  1.00  0.00     0.056 A 
BRANCH  18  24
HETATM   24  O   UNL     1       4.378  33.324  64.048  1.00  0.00    -0.354 OA
HETATM   25  C   UNL     1       4.385  33.824  65.382  1.00  0.00     0.210 C 
ENDBRANCH  18  24
ENDBRANCH  14  17
ENDBRANCH  12  13
ENDBRANCH  11  12
ENDBRANCH   4  11
BRANCH   8  26
HETATM   26  C   UNL     1       4.880  28.533  54.309  1.00  0.00    -0.044 A 
HETATM   27  C   UNL     1       5.996  28.541  53.454  1.00  0.00     0.008 A 
HETATM   28  C   UNL     1       5.831  28.550  52.068  1.00  0.00     0.001 A 
HETATM   29  C   UNL     1       4.551  28.569  51.517  1.00  0.00     0.000 A 
HETATM   30  C   UNL     1       3.436  28.583  52.350  1.00  0.00     0.001 A 
HETATM   31  C   UNL     1       3.596  28.567  53.736  1.00  0.00     0.008 A 
ENDBRANCH   8  26
BRANCH   9  32
HETATM   32  C   UNL     1       6.410  26.390  56.436  1.00  0.00     0.255 C 
HETATM   33  N   UNL     1       7.421  25.787  55.721  1.00  0.00    -0.323 N 
HETATM   34  H   UNL     1       8.120  26.379  55.292  1.00  0.00     0.169 HD
HETATM   35  O   UNL     1       5.543  25.808  57.081  1.00  0.00    -0.268 OA
BRANCH  33  36
HETATM   36  C   UNL     1       7.579  24.406  55.462  1.00  0.00     0.035 A 
HETATM   37  C   UNL     1       7.268  23.793  54.248  1.00  0.00     0.029 A 
HETATM   38  C   UNL     1       7.495  22.425  54.063  1.00  0.00     0.002 A 
HETATM   39  C   UNL     1       8.043  21.660  55.089  1.00  0.00     0.000 A 
HETATM   40  C   UNL     1       8.353  22.259  56.306  1.00  0.00     0.002 A 
HETATM   41  C   UNL     1       8.116  23.624  56.493  1.00  0.00     0.029 A 
ENDBRANCH  33  36
ENDBRANCH   9  32
TORSDOF 8
ENDMDL
MODEL 8
REMARK VINA RESULT:      -8.8      3.155      6.047
REMARK  8 active torsions:
REMARK  status: ('A' for Active; 'I' for Inactive)
REMARK    1  A    between atoms: C_4  and  S_5 
REMARK    2  A    between atoms: S_5  and  C_6 
REMARK    3  A    between atoms: C_6  and  C_7 
REMARK       I    between atoms: C_7  and  N_8 
REMARK    4  A    between atoms: N_8  and  C_9 
REMARK    5  A    between atoms: C_10  and  O_11 
REMARK    6  A    between atoms: C_22  and  C_23 
REMARK    7  A    between atoms: C_29  and  C_30 
REMARK       I    between atoms: C_30  and  N_31 
REMARK    8  A    between atoms: N_31  and  C_32 
ROOT
HETATM    1  C   UNL     1       3.304  29.391  54.033  1.00  0.00     0.069 C 
HETATM    2  C   UNL     1       4.745  29.040  54.306  1.00  0.00     0.019 C 
HETATM    3  N   UNL     1       5.172  29.214  55.615  1.00  0.00    -0.353 N 
HETATM    4  C   UNL     1       6.507  29.294  55.983  1.00  0.00     0.088 C 
HETATM    5  C   UNL     1       7.453  28.803  55.148  1.00  0.00     0.069 C 
HETATM    6  C   UNL     1       8.853  28.872  55.417  1.00  0.00     0.099 C 
HETATM    7  N   UNL     1      10.002  28.923  55.566  1.00  0.00    -0.192 NA
HETATM    8  C   UNL     1       7.045  28.214  53.797  1.00  0.00     0.106 C 
HETATM    9  C   UNL     1       5.626  28.599  53.373  1.00  0.00     0.046 C 
HETATM   10  H   UNL     1       4.529  29.681  56.251  1.00  0.00     0.166 HD
ENDROOT
BRANCH   4  11
HETATM   11  S   UNL     1       6.949  30.145  57.458  1.00  0.00    -0.102 SA
BRANCH  11  12
HETATM   12  C   UNL     1       5.312  30.863  57.792  1.00  0.00     0.184 C 
BRANCH  12  13
HETATM   13  C   UNL     1       5.325  32.380  57.823  1.00  0.00     0.231 C 
HETATM   14  N   UNL     1       5.501  33.015  59.026  1.00  0.00    -0.324 N 
HETATM   15  H   UNL     1       5.061  33.930  59.072  1.00  0.00     0.169 HD
HETATM   16  O   UNL     1       5.013  33.047  56.835  1.00  0.00    -0.272 OA
BRANCH  14  17
HETATM   17  C   UNL     1       6.122  32.575  60.207  1.00  0.00     0.070 A 
HETATM   18  C   UNL     1       5.319  32.363  61.342  1.00  0.00     0.095 A 
HETATM   19  C   UNL     1       5.910  31.986  62.551  1.00  0.00     0.041 A 
HETATM   20  C   UNL     1       7.294  31.817  62.630  1.00  0.00     0.026 A 
HETATM   21  C   UNL     1       8.084  32.036  61.506  1.00  0.00     0.036 A 
HETATM   22 CL   UNL     1       9.793  31.858  61.613  1.00  0.00    -0.084 Cl
HETATM   23  C   UNL     1       7.508  32.419  60.298  1.00  0.00     0.056 A 
BRANCH  18  24
HETATM   24  O   UNL     1       3.967  32.547  61.174  1.00  0.00    -0.354 OA
HETATM   25  C   UNL     1       3.317  33.288  62.203  1.00  0.00     0.210 C 
ENDBRANCH  18  24
ENDBRANCH  14  17
ENDBRANCH  12  13
ENDBRANCH  11  12
ENDBRANCH   4  11
BRANCH   8  26
HETATM   26  C   UNL     1       7.279  26.700  53.781  1.00  0.00    -0.044 A 
HETATM   27  C   UNL     1       7.011  25.898  54.904  1.00  0.00     0.008 A 
HETATM   28  C   UNL     1       7.234  24.522  54.865  1.00  0.00     0.001 A 
HETATM   29  C   UNL     1       7.744  23.928  53.712  1.00  0.00     0.000 A 
HETATM   30  C   UNL     1       8.035  24.712  52.599  1.00  0.00     0.001 A 
HETATM   31  C   UNL     1       7.806  26.088  52.631  1.00  0.00     0.008 A 
ENDBRANCH   8  26
BRANCH   9  32
HETATM   32  C   UNL     1       5.314  28.723  51.908  1.00  0.00     0.255 C 
HETATM   33  N   UNL     1       4.423  27.790  51.427  1.00  0.00    -0.323 N 
HETATM   34  H   UNL     1       3.936  27.207  52.094  1.00  0.00     0.169 HD
HETATM   35  O   UNL     1       5.913  29.556  51.235  1.00  0.00    -0.268 OA
BRANCH  33  36
HETATM   36  C   UNL     1       4.133  27.503  50.073  1.00  0.00     0.035 A 
HETATM   37  C   UNL     1       4.745  26.488  49.336  1.00  0.00     0.029 A 
HETATM   38  C   UNL     1       4.368  26.245  48.011  1.00  0.00     0.002 A 
HETATM   39  C   UNL     1       3.371  27.012  47.413  1.00  0.00     0.000 A 
HETATM   40  C   UNL     1       2.757  28.030  48.136  1.00  0.00     0.002 A 
HETATM   41  C   UNL     1       3.141  28.279  49.457  1.00  0.00     0.029 A 
ENDBRANCH  33  36
ENDBRANCH   9  32
TORSDOF 8
ENDMDL
MODEL 9
REMARK VINA RESULT:      -8.7      1.523      2.356
REMARK  8 active torsions:
REMARK  status: ('A' for Active; 'I' for Inactive)
REMARK    1  A    between atoms: C_4  and  S_5 
REMARK    2  A    between atoms: S_5  and  C_6 
REMARK    3  A    between atoms: C_6  and  C_7 
REMARK       I    between atoms: C_7  and  N_8 
REMARK    4  A    between atoms: N_8  and  C_9 
REMARK    5  A    between atoms: C_10  and  O_11 
REMARK    6  A    between atoms: C_22  and  C_23 
REMARK    7  A    between atoms: C_29  and  C_30 
REMARK       I    between atoms: C_30  and  N_31 
REMARK    8  A    between atoms: N_31  and  C_32 
ROOT
HETATM    1  C   UNL     1       6.947  27.851  54.223  1.00  0.00     0.069 C 
HETATM    2  C   UNL     1       5.831  28.125  53.247  1.00  0.00     0.019 C 
HETATM    3  N   UNL     1       5.413  29.447  53.163  1.00  0.00    -0.353 N 
HETATM    4  C   UNL     1       4.199  29.835  52.615  1.00  0.00     0.088 C 
HETATM    5  C   UNL     1       3.552  28.990  51.777  1.00  0.00     0.069 C 
HETATM    6  C   UNL     1       2.282  29.280  51.194  1.00  0.00     0.099 C 
HETATM    7  N   UNL     1       1.239  29.445  50.713  1.00  0.00    -0.192 NA
HETATM    8  C   UNL     1       4.140  27.609  51.486  1.00  0.00     0.106 C 
HETATM    9  C   UNL     1       5.216  27.186  52.487  1.00  0.00     0.046 C 
HETATM   10  H   UNL     1       5.794  30.095  53.849  1.00  0.00     0.166 HD
ENDROOT
BRANCH   4  11
HETATM   11  S   UNL     1       3.466  31.351  53.121  1.00  0.00    -0.102 SA
BRANCH  11  12
HETATM   12  C   UNL     1       4.246  31.432  54.762  1.00  0.00     0.184 C 
BRANCH  12  13
HETATM   13  C   UNL     1       3.252  31.294  55.899  1.00  0.00     0.231 C 
HETATM   14  N   UNL     1       3.670  30.736  57.079  1.00  0.00    -0.324 N 
HETATM   15  H   UNL     1       2.931  30.263  57.592  1.00  0.00     0.169 HD
HETATM   16  O   UNL     1       2.050  31.510  55.733  1.00  0.00    -0.272 OA
BRANCH  14  17
HETATM   17  C   UNL     1       4.954  30.656  57.645  1.00  0.00     0.070 A 
HETATM   18  C   UNL     1       5.401  31.730  58.436  1.00  0.00     0.095 A 
HETATM   19  C   UNL     1       6.696  31.713  58.963  1.00  0.00     0.041 A 
HETATM   20  C   UNL     1       7.541  30.630  58.707  1.00  0.00     0.026 A 
HETATM   21  C   UNL     1       7.095  29.575  57.917  1.00  0.00     0.036 A 
HETATM   22 CL   UNL     1       8.149  28.256  57.577  1.00  0.00    -0.084 Cl
HETATM   23  C   UNL     1       5.811  29.583  57.380  1.00  0.00     0.056 A 
BRANCH  18  24
HETATM   24  O   UNL     1       4.504  32.750  58.640  1.00  0.00    -0.354 OA
HETATM   25  C   UNL     1       4.747  33.559  59.788  1.00  0.00     0.210 C 
ENDBRANCH  18  24
ENDBRANCH  14  17
ENDBRANCH  12  13
ENDBRANCH  11  12
ENDBRANCH   4  11
BRANCH   8  26
HETATM   26  C   UNL     1       4.617  27.528  50.032  1.00  0.00    -0.044 A 
HETATM   27  C   UNL     1       5.403  28.539  49.453  1.00  0.00     0.008 A 
HETATM   28  C   UNL     1       5.823  28.443  48.126  1.00  0.00     0.001 A 
HETATM   29  C   UNL     1       5.451  27.345  47.353  1.00  0.00     0.000 A 
HETATM   30  C   UNL     1       4.654  26.345  47.905  1.00  0.00     0.001 A 
HETATM   31  C   UNL     1       4.238  26.434  49.234  1.00  0.00     0.008 A 
ENDBRANCH   8  26
BRANCH   9  32
HETATM   32  C   UNL     1       5.391  25.724  52.790  1.00  0.00     0.255 C 
HETATM   33  N   UNL     1       6.530  25.414  53.501  1.00  0.00    -0.323 N 
HETATM   34  H   UNL     1       7.069  26.174  53.893  1.00  0.00     0.169 HD
HETATM   35  O   UNL     1       4.592  24.915  52.330  1.00  0.00    -0.268 OA
BRANCH  33  36
HETATM   36  C   UNL     1       7.082  24.130  53.714  1.00  0.00     0.035 A 
HETATM   37  C   UNL     1       7.673  23.353  52.716  1.00  0.00     0.029 A 
HETATM   38  C   UNL     1       8.233  22.108  53.023  1.00  0.00     0.002 A 
HETATM   39  C   UNL     1       8.213  21.633  54.331  1.00  0.00     0.000 A 
HETATM   40  C   UNL     1       7.623  22.397  55.334  1.00  0.00     0.002 A 
HETATM   41  C   UNL     1       7.054  23.636  55.025  1.00  0.00     0.029 A 
ENDBRANCH  33  36
ENDBRANCH   9  32
TORSDOF 8
ENDMDL
MODEL 10
REMARK VINA RESULT:      -8.5      3.625      5.241
REMARK  8 active torsions:
REMARK  status: ('A' for Active; 'I' for Inactive)
REMARK    1  A    between atoms: C_4  and  S_5 
REMARK    2  A    between atoms: S_5  and  C_6 
REMARK    3  A    between atoms: C_6  and  C_7 
REMARK       I    between atoms: C_7  and  N_8 
REMARK    4  A    between atoms: N_8  and  C_9 
REMARK    5  A    between atoms: C_10  and  O_11 
REMARK    6  A    between atoms: C_22  and  C_23 
REMARK    7  A    between atoms: C_29  and  C_30 
REMARK       I    between atoms: C_30  and  N_31 
REMARK    8  A    between atoms: N_31  and  C_32 
ROOT
HETATM    1  C   UNL     1       6.983  30.134  57.050  1.00  0.00     0.069 C 
HETATM    2  C   UNL     1       5.713  30.670  56.437  1.00  0.00     0.019 C 
HETATM    3  N   UNL     1       5.379  31.973  56.784  1.00  0.00    -0.353 N 
HETATM    4  C   UNL     1       4.109  32.507  56.625  1.00  0.00     0.088 C 
HETATM    5  C   UNL     1       3.249  31.922  55.757  1.00  0.00     0.069 C 
HETATM    6  C   UNL     1       1.911  32.372  55.552  1.00  0.00     0.099 C 
HETATM    7  N   UNL     1       0.806  32.672  55.362  1.00  0.00    -0.192 NA
HETATM    8  C   UNL     1       3.670  30.659  55.005  1.00  0.00     0.106 C 
HETATM    9  C   UNL     1       4.895  29.972  55.612  1.00  0.00     0.046 C 
HETATM   10  H   UNL     1       5.935  32.412  57.514  1.00  0.00     0.166 HD
ENDROOT
BRANCH   4  11
HETATM   11  S   UNL     1       3.600  33.847  57.645  1.00  0.00    -0.102 SA
BRANCH  11  12
HETATM   12  C   UNL     1       4.626  33.424  59.086  1.00  0.00     0.184 C 
BRANCH  12  13
HETATM   13  C   UNL     1       3.869  32.648  60.146  1.00  0.00     0.231 C 
HETATM   14  N   UNL     1       4.577  31.890  61.042  1.00  0.00    -0.324 N 
HETATM   15  H   UNL     1       4.065  31.084  61.390  1.00  0.00     0.169 HD
HETATM   16  O   UNL     1       2.641  32.544  60.115  1.00  0.00    -0.272 OA
BRANCH  14  17
HETATM   17  C   UNL     1       5.904  32.011  61.491  1.00  0.00     0.070 A 
HETATM   18  C   UNL     1       6.123  32.272  62.856  1.00  0.00     0.095 A 
HETATM   19  C   UNL     1       7.426  32.462  63.326  1.00  0.00     0.041 A 
HETATM   20  C   UNL     1       8.506  32.388  62.444  1.00  0.00     0.026 A 
HETATM   21  C   UNL     1       8.281  32.138  61.093  1.00  0.00     0.036 A 
HETATM   22 CL   UNL     1       9.611  32.079  60.001  1.00  0.00    -0.084 Cl
HETATM   23  C   UNL     1       6.988  31.955  60.611  1.00  0.00     0.056 A 
BRANCH  18  24
HETATM   24  O   UNL     1       5.005  32.322  63.653  1.00  0.00    -0.354 OA
HETATM   25  C   UNL     1       4.818  33.540  64.369  1.00  0.00     0.210 C 
ENDBRANCH  18  24
ENDBRANCH  14  17
ENDBRANCH  12  13
ENDBRANCH  11  12
ENDBRANCH   4  11
BRANCH   8  26
HETATM   26  C   UNL     1       3.836  30.957  53.511  1.00  0.00    -0.044 A 
HETATM   27  C   UNL     1       4.361  32.178  53.055  1.00  0.00     0.008 A 
HETATM   28  C   UNL     1       4.500  32.427  51.689  1.00  0.00     0.001 A 
HETATM   29  C   UNL     1       4.102  31.468  50.760  1.00  0.00     0.000 A 
HETATM   30  C   UNL     1       3.561  30.261  51.196  1.00  0.00     0.001 A 
HETATM   31  C   UNL     1       3.426  30.006  52.561  1.00  0.00     0.008 A 
ENDBRANCH   8  26
BRANCH   9  32
HETATM   32  C   UNL     1       5.027  28.480  55.488  1.00  0.00     0.255 C 
HETATM   33  N   UNL     1       5.810  28.055  54.437  1.00  0.00    -0.323 N 
HETATM   34  H   UNL     1       6.350  28.747  53.935  1.00  0.00     0.169 HD
HETATM   35  O   UNL     1       4.385  27.755  56.242  1.00  0.00    -0.268 OA
BRANCH  33  36
HETATM   36  C   UNL     1       5.915  26.741  53.927  1.00  0.00     0.035 A 
HETATM   37  C   UNL     1       4.943  26.122  53.140  1.00  0.00     0.029 A 
HETATM   38  C   UNL     1       5.147  24.832  52.640  1.00  0.00     0.002 A 
HETATM   39  C   UNL     1       6.329  24.151  52.918  1.00  0.00     0.000 A 
HETATM   40  C   UNL     1       7.305  24.755  53.705  1.00  0.00     0.002 A 
HETATM   41  C   UNL     1       7.095  26.041  54.213  1.00  0.00     0.029 A 
ENDBRANCH  33  36
ENDBRANCH   9  32
TORSDOF 8
ENDMDL
