MODEL 1
REMARK VINA RESULT:      -8.6      0.000      0.000
REMARK  3 active torsions:
REMARK  status: ('A' for Active; 'I' for Inactive)
REMARK    1  A    between atoms: C_9  and  C_10 
REMARK    2  A    between atoms: C_16  and  C_17 
REMARK       I    between atoms: C_17  and  N_18 
REMARK    3  A    between atoms: N_18  and  C_19 
ROOT
HETATM    1  C   UNL     1       8.753  27.225  57.064  1.00  0.00     0.070 C 
HETATM    2  C   UNL     1       7.493  27.543  56.298  1.00  0.00     0.037 C 
HETATM    3  N   UNL     1       7.141  28.888  56.251  1.00  0.00    -0.191 N 
HETATM    4  C   UNL     1       5.936  29.313  55.817  1.00  0.00     0.735 A 
HETATM    5  N   UNL     1       5.066  28.413  55.267  1.00  0.00    -0.092 N 
HETATM    6  N   UNL     1       3.902  29.013  54.974  1.00  0.00     0.012 NA
HETATM    7  N   UNL     1       4.091  30.287  55.304  1.00  0.00     0.033 NA
HETATM    8  N   UNL     1       5.354  30.487  55.831  1.00  0.00     0.030 NA
HETATM    9  C   UNL     1       5.350  26.991  55.082  1.00  0.00     0.198 C 
HETATM   10  C   UNL     1       6.679  26.615  55.732  1.00  0.00     0.062 C 
HETATM   11  H   UNL     1       7.725  29.544  56.765  1.00  0.00     0.184 HD
ENDROOT
BRANCH  10  12
HETATM   12  C   UNL     1       6.925  25.149  55.789  1.00  0.00     0.257 C 
HETATM   13  N   UNL     1       7.641  24.684  54.711  1.00  0.00    -0.308 N 
HETATM   14  H   UNL     1       7.891  25.339  53.985  1.00  0.00     0.170 HD
HETATM   15  O   UNL     1       6.449  24.521  56.725  1.00  0.00    -0.267 OA
BRANCH  13  16
HETATM   16  C   UNL     1       8.064  23.361  54.531  1.00  0.00     0.129 A 
HETATM   17  N   UNL     1       8.865  22.766  55.429  1.00  0.00    -0.243 NA
HETATM   18  C   UNL     1       9.250  21.494  55.195  1.00  0.00     0.119 A 
HETATM   19  C   UNL     1       8.877  20.772  54.076  1.00  0.00     0.019 A 
HETATM   20  C   UNL     1       8.055  21.395  53.147  1.00  0.00     0.005 A 
HETATM   21  C   UNL     1       7.638  22.705  53.378  1.00  0.00     0.050 A 
ENDBRANCH  13  16
ENDBRANCH  10  12
BRANCH   9  22
HETATM   22  C   UNL     1       5.314  26.630  53.600  1.00  0.00    -0.029 A 
HETATM   23  C   UNL     1       5.830  27.489  52.612  1.00  0.00     0.009 A 
HETATM   24  C   UNL     1       5.779  27.130  51.263  1.00  0.00     0.001 A 
HETATM   25  C   UNL     1       5.224  25.910  50.885  1.00  0.00     0.000 A 
HETATM   26  C   UNL     1       4.724  25.043  51.852  1.00  0.00     0.001 A 
HETATM   27  C   UNL     1       4.772  25.397  53.201  1.00  0.00     0.009 A 
ENDBRANCH   9  22
TORSDOF 3
ENDMDL
MODEL 2
REMARK VINA RESULT:      -8.4      2.767      5.565
REMARK  3 active torsions:
REMARK  status: ('A' for Active; 'I' for Inactive)
REMARK    1  A    between atoms: C_9  and  C_10 
REMARK    2  A    between atoms: C_16  and  C_17 
REMARK       I    between atoms: C_17  and  N_18 
REMARK    3  A    between atoms: N_18  and  C_19 
ROOT
HETATM    1  C   UNL     1       3.463  29.728  54.006  1.00  0.00     0.070 C 
HETATM    2  C   UNL     1       4.722  28.997  54.399  1.00  0.00     0.037 C 
HETATM    3  N   UNL     1       4.993  28.957  55.763  1.00  0.00    -0.191 N 
HETATM    4  C   UNL     1       6.182  28.557  56.260  1.00  0.00     0.735 A 
HETATM    5  N   UNL     1       7.121  28.035  55.415  1.00  0.00    -0.092 N 
HETATM    6  N   UNL     1       8.254  27.775  56.085  1.00  0.00     0.012 NA
HETATM    7  N   UNL     1       7.978  28.096  57.345  1.00  0.00     0.033 NA
HETATM    8  N   UNL     1       6.690  28.585  57.468  1.00  0.00     0.030 NA
HETATM    9  C   UNL     1       6.930  27.847  53.978  1.00  0.00     0.198 C 
HETATM   10  C   UNL     1       5.608  28.458  53.522  1.00  0.00     0.062 C 
HETATM   11  H   UNL     1       4.354  29.452  56.383  1.00  0.00     0.184 HD
ENDROOT
BRANCH  10  12
HETATM   12  C   UNL     1       5.450  28.512  52.044  1.00  0.00     0.257 C 
HETATM   13  N   UNL     1       4.550  27.588  51.568  1.00  0.00    -0.308 N 
HETATM   14  H   UNL     1       4.125  26.952  52.226  1.00  0.00     0.170 HD
HETATM   15  O   UNL     1       6.139  29.308  51.420  1.00  0.00    -0.267 OA
BRANCH  13  16
HETATM   16  C   UNL     1       4.165  27.451  50.228  1.00  0.00     0.129 A 
HETATM   17  N   UNL     1       3.315  28.324  49.664  1.00  0.00    -0.243 NA
HETATM   18  C   UNL     1       2.970  28.133  48.373  1.00  0.00     0.119 A 
HETATM   19  C   UNL     1       3.431  27.082  47.602  1.00  0.00     0.019 A 
HETATM   20  C   UNL     1       4.303  26.179  48.192  1.00  0.00     0.005 A 
HETATM   21  C   UNL     1       4.680  26.367  49.522  1.00  0.00     0.050 A 
ENDBRANCH  13  16
ENDBRANCH  10  12
BRANCH   9  22
HETATM   22  C   UNL     1       7.031  26.367  53.619  1.00  0.00    -0.029 A 
HETATM   23  C   UNL     1       7.882  25.905  52.598  1.00  0.00     0.009 A 
HETATM   24  C   UNL     1       7.950  24.544  52.293  1.00  0.00     0.001 A 
HETATM   25  C   UNL     1       7.180  23.628  53.005  1.00  0.00     0.000 A 
HETATM   26  C   UNL     1       6.345  24.068  54.029  1.00  0.00     0.001 A 
HETATM   27  C   UNL     1       6.273  25.427  54.337  1.00  0.00     0.009 A 
ENDBRANCH   9  22
TORSDOF 3
ENDMDL
MODEL 3
REMARK VINA RESULT:      -8.1      3.703      8.253
REMARK  3 active torsions:
REMARK  status: ('A' for Active; 'I' for Inactive)
REMARK    1  A    between atoms: C_9  and  C_10 
REMARK    2  A    between atoms: C_16  and  C_17 
REMARK       I    between atoms: C_17  and  N_18 
REMARK    3  A    between atoms: N_18  and  C_19 
ROOT
HETATM    1  C   UNL     1       4.194  28.785  54.777  1.00  0.00     0.070 C 
HETATM    2  C   UNL     1       5.328  28.304  55.647  1.00  0.00     0.037 C 
HETATM    3  N   UNL     1       5.734  26.990  55.432  1.00  0.00    -0.191 N 
HETATM    4  C   UNL     1       6.562  26.335  56.273  1.00  0.00     0.735 A 
HETATM    5  N   UNL     1       7.144  27.015  57.305  1.00  0.00    -0.092 N 
HETATM    6  N   UNL     1       7.862  26.175  58.068  1.00  0.00     0.012 NA
HETATM    7  N   UNL     1       7.749  24.997  57.462  1.00  0.00     0.033 NA
HETATM    8  N   UNL     1       6.941  25.083  56.343  1.00  0.00     0.030 NA
HETATM    9  C   UNL     1       6.959  28.441  57.569  1.00  0.00     0.198 C 
HETATM   10  C   UNL     1       5.905  29.031  56.637  1.00  0.00     0.062 C 
HETATM   11  H   UNL     1       5.216  26.445  54.745  1.00  0.00     0.184 HD
ENDROOT
BRANCH  10  12
HETATM   12  C   UNL     1       5.495  30.416  56.997  1.00  0.00     0.257 C 
HETATM   13  N   UNL     1       5.007  30.514  58.279  1.00  0.00    -0.308 N 
HETATM   14  H   UNL     1       4.932  29.670  58.827  1.00  0.00     0.170 HD
HETATM   15  O   UNL     1       5.585  31.284  56.139  1.00  0.00    -0.267 OA
BRANCH  13  16
HETATM   16  C   UNL     1       4.601  31.702  58.900  1.00  0.00     0.129 A 
HETATM   17  N   UNL     1       3.406  32.249  58.625  1.00  0.00    -0.243 NA
HETATM   18  C   UNL     1       3.076  33.401  59.245  1.00  0.00     0.119 A 
HETATM   19  C   UNL     1       3.903  34.058  60.137  1.00  0.00     0.019 A 
HETATM   20  C   UNL     1       5.140  33.492  60.412  1.00  0.00     0.005 A 
HETATM   21  C   UNL     1       5.494  32.295  59.789  1.00  0.00     0.050 A 
ENDBRANCH  13  16
ENDBRANCH  10  12
BRANCH   9  22
HETATM   22  C   UNL     1       8.292  29.177  57.466  1.00  0.00    -0.029 A 
HETATM   23  C   UNL     1       9.090  29.116  56.308  1.00  0.00     0.009 A 
HETATM   24  C   UNL     1      10.306  29.799  56.247  1.00  0.00     0.001 A 
HETATM   25  C   UNL     1      10.737  30.558  57.333  1.00  0.00     0.000 A 
HETATM   26  C   UNL     1       9.951  30.642  58.479  1.00  0.00     0.001 A 
HETATM   27  C   UNL     1       8.735  29.960  58.545  1.00  0.00     0.009 A 
ENDBRANCH   9  22
TORSDOF 3
ENDMDL
MODEL 4
REMARK VINA RESULT:      -8.1      3.532      5.173
REMARK  3 active torsions:
REMARK  status: ('A' for Active; 'I' for Inactive)
REMARK    1  A    between atoms: C_9  and  C_10 
REMARK    2  A    between atoms: C_16  and  C_17 
REMARK       I    between atoms: C_17  and  N_18 
REMARK    3  A    between atoms: N_18  and  C_19 
ROOT
HETATM    1  C   UNL     1      11.006  29.720  56.652  1.00  0.00     0.070 C 
HETATM    2  C   UNL     1       9.802  30.147  57.455  1.00  0.00     0.037 C 
HETATM    3  N   UNL     1       9.993  31.248  58.284  1.00  0.00    -0.191 N 
HETATM    4  C   UNL     1       9.106  31.610  59.233  1.00  0.00     0.735 A 
HETATM    5  N   UNL     1       7.902  30.967  59.306  1.00  0.00    -0.092 N 
HETATM    6  N   UNL     1       7.200  31.414  60.359  1.00  0.00     0.012 NA
HETATM    7  N   UNL     1       7.964  32.363  60.890  1.00  0.00     0.033 NA
HETATM    8  N   UNL     1       9.155  32.495  60.199  1.00  0.00     0.030 NA
HETATM    9  C   UNL     1       7.474  29.903  58.399  1.00  0.00     0.198 C 
HETATM   10  C   UNL     1       8.610  29.498  57.465  1.00  0.00     0.062 C 
HETATM   11  H   UNL     1      10.928  31.652  58.320  1.00  0.00     0.184 HD
ENDROOT
BRANCH  10  12
HETATM   12  C   UNL     1       8.327  28.270  56.673  1.00  0.00     0.257 C 
HETATM   13  N   UNL     1       8.273  27.135  57.448  1.00  0.00    -0.308 N 
HETATM   14  H   UNL     1       8.464  27.220  58.435  1.00  0.00     0.170 HD
HETATM   15  O   UNL     1       8.220  28.379  55.460  1.00  0.00    -0.267 OA
BRANCH  13  16
HETATM   16  C   UNL     1       7.970  25.850  56.979  1.00  0.00     0.129 A 
HETATM   17  N   UNL     1       6.844  25.619  56.285  1.00  0.00    -0.243 NA
HETATM   18  C   UNL     1       6.600  24.358  55.871  1.00  0.00     0.119 A 
HETATM   19  C   UNL     1       7.435  23.288  56.131  1.00  0.00     0.019 A 
HETATM   20  C   UNL     1       8.594  23.531  56.855  1.00  0.00     0.005 A 
HETATM   21  C   UNL     1       8.870  24.831  57.281  1.00  0.00     0.050 A 
ENDBRANCH  13  16
ENDBRANCH  10  12
BRANCH   9  22
HETATM   22  C   UNL     1       6.226  30.331  57.631  1.00  0.00    -0.029 A 
HETATM   23  C   UNL     1       6.053  31.647  57.163  1.00  0.00     0.009 A 
HETATM   24  C   UNL     1       4.898  32.006  56.466  1.00  0.00     0.001 A 
HETATM   25  C   UNL     1       3.907  31.060  56.219  1.00  0.00     0.000 A 
HETATM   26  C   UNL     1       4.070  29.749  56.662  1.00  0.00     0.001 A 
HETATM   27  C   UNL     1       5.223  29.385  57.360  1.00  0.00     0.009 A 
ENDBRANCH   9  22
TORSDOF 3
ENDMDL
MODEL 5
REMARK VINA RESULT:      -8.0      2.737      5.494
REMARK  3 active torsions:
REMARK  status: ('A' for Active; 'I' for Inactive)
REMARK    1  A    between atoms: C_9  and  C_10 
REMARK    2  A    between atoms: C_16  and  C_17 
REMARK       I    between atoms: C_17  and  N_18 
REMARK    3  A    between atoms: N_18  and  C_19 
ROOT
HETATM    1  C   UNL     1       3.660  30.110  56.004  1.00  0.00     0.070 C 
HETATM    2  C   UNL     1       5.000  29.428  56.135  1.00  0.00     0.037 C 
HETATM    3  N   UNL     1       5.649  29.609  57.353  1.00  0.00    -0.191 N 
HETATM    4  C   UNL     1       6.940  29.272  57.549  1.00  0.00     0.735 A 
HETATM    5  N   UNL     1       7.613  28.598  56.568  1.00  0.00    -0.092 N 
HETATM    6  N   UNL     1       8.898  28.428  56.920  1.00  0.00     0.012 NA
HETATM    7  N   UNL     1       8.983  28.958  58.136  1.00  0.00     0.033 NA
HETATM    8  N   UNL     1       7.771  29.488  58.539  1.00  0.00     0.030 NA
HETATM    9  C   UNL     1       7.026  28.178  55.297  1.00  0.00     0.198 C 
HETATM   10  C   UNL     1       5.613  28.733  55.144  1.00  0.00     0.062 C 
HETATM   11  H   UNL     1       5.200  30.213  58.039  1.00  0.00     0.184 HD
ENDROOT
BRANCH  10  12
HETATM   12  C   UNL     1       5.039  28.545  53.784  1.00  0.00     0.257 C 
HETATM   13  N   UNL     1       5.891  28.949  52.783  1.00  0.00    -0.308 N 
HETATM   14  H   UNL     1       6.774  29.359  53.044  1.00  0.00     0.170 HD
HETATM   15  O   UNL     1       3.899  28.111  53.695  1.00  0.00    -0.267 OA
BRANCH  13  16
HETATM   16  C   UNL     1       5.635  28.837  51.410  1.00  0.00     0.129 A 
HETATM   17  N   UNL     1       5.681  29.915  50.611  1.00  0.00    -0.243 NA
HETATM   18  C   UNL     1       5.413  29.746  49.299  1.00  0.00     0.119 A 
HETATM   19  C   UNL     1       5.079  28.530  48.733  1.00  0.00     0.019 A 
HETATM   20  C   UNL     1       5.025  27.420  49.565  1.00  0.00     0.005 A 
HETATM   21  C   UNL     1       5.312  27.573  50.922  1.00  0.00     0.050 A 
ENDBRANCH  13  16
ENDBRANCH  10  12
BRANCH   9  22
HETATM   22  C   UNL     1       7.062  26.657  55.172  1.00  0.00    -0.029 A 
HETATM   23  C   UNL     1       7.636  26.014  54.060  1.00  0.00     0.009 A 
HETATM   24  C   UNL     1       7.650  24.621  53.976  1.00  0.00     0.001 A 
HETATM   25  C   UNL     1       7.102  23.852  54.999  1.00  0.00     0.000 A 
HETATM   26  C   UNL     1       6.544  24.474  56.114  1.00  0.00     0.001 A 
HETATM   27  C   UNL     1       6.527  25.866  56.203  1.00  0.00     0.009 A 
ENDBRANCH   9  22
TORSDOF 3
ENDMDL
MODEL 6
REMARK VINA RESULT:      -7.8      3.058      4.107
REMARK  3 active torsions:
REMARK  status: ('A' for Active; 'I' for Inactive)
REMARK    1  A    between atoms: C_9  and  C_10 
REMARK    2  A    between atoms: C_16  and  C_17 
REMARK       I    between atoms: C_17  and  N_18 
REMARK    3  A    between atoms: N_18  and  C_19 
ROOT
HETATM    1  C   UNL     1       8.767  30.777  58.429  1.00  0.00     0.070 C 
HETATM    2  C   UNL     1       7.278  30.769  58.190  1.00  0.00     0.037 C 
HETATM    3  N   UNL     1       6.571  31.819  58.767  1.00  0.00    -0.191 N 
HETATM    4  C   UNL     1       5.224  31.834  58.850  1.00  0.00     0.735 A 
HETATM    5  N   UNL     1       4.503  30.856  58.225  1.00  0.00    -0.092 N 
HETATM    6  N   UNL     1       3.195  31.001  58.492  1.00  0.00     0.012 NA
HETATM    7  N   UNL     1       3.128  32.099  59.240  1.00  0.00     0.033 NA
HETATM    8  N   UNL     1       4.385  32.626  59.471  1.00  0.00     0.030 NA
HETATM    9  C   UNL     1       5.085  29.776  57.430  1.00  0.00     0.198 C 
HETATM   10  C   UNL     1       6.607  29.793  57.525  1.00  0.00     0.062 C 
HETATM   11  H   UNL     1       7.095  32.481  59.336  1.00  0.00     0.184 HD
ENDROOT
BRANCH  10  12
HETATM   12  C   UNL     1       7.259  28.592  56.936  1.00  0.00     0.257 C 
HETATM   13  N   UNL     1       6.957  27.433  57.612  1.00  0.00    -0.308 N 
HETATM   14  H   UNL     1       6.380  27.498  58.437  1.00  0.00     0.170 HD
HETATM   15  O   UNL     1       8.002  28.753  55.978  1.00  0.00    -0.267 OA
BRANCH  13  16
HETATM   16  C   UNL     1       7.384  26.150  57.247  1.00  0.00     0.129 A 
HETATM   17  N   UNL     1       8.475  25.603  57.807  1.00  0.00    -0.243 NA
HETATM   18  C   UNL     1       8.845  24.369  57.405  1.00  0.00     0.119 A 
HETATM   19  C   UNL     1       8.175  23.641  56.439  1.00  0.00     0.019 A 
HETATM   20  C   UNL     1       7.053  24.215  55.858  1.00  0.00     0.005 A 
HETATM   21  C   UNL     1       6.647  25.485  56.269  1.00  0.00     0.050 A 
ENDBRANCH  13  16
ENDBRANCH  10  12
BRANCH   9  22
HETATM   22  C   UNL     1       4.600  29.860  55.985  1.00  0.00    -0.029 A 
HETATM   23  C   UNL     1       4.567  31.077  55.280  1.00  0.00     0.009 A 
HETATM   24  C   UNL     1       4.116  31.120  53.959  1.00  0.00     0.001 A 
HETATM   25  C   UNL     1       3.701  29.952  53.324  1.00  0.00     0.000 A 
HETATM   26  C   UNL     1       3.742  28.737  54.003  1.00  0.00     0.001 A 
HETATM   27  C   UNL     1       4.192  28.689  55.323  1.00  0.00     0.009 A 
ENDBRANCH   9  22
TORSDOF 3
ENDMDL
MODEL 7
REMARK VINA RESULT:      -7.8      9.634     11.526
REMARK  3 active torsions:
REMARK  status: ('A' for Active; 'I' for Inactive)
REMARK    1  A    between atoms: C_9  and  C_10 
REMARK    2  A    between atoms: C_16  and  C_17 
REMARK       I    between atoms: C_17  and  N_18 
REMARK    3  A    between atoms: N_18  and  C_19 
ROOT
HETATM    1  C   UNL     1       3.074  34.246  64.129  1.00  0.00     0.070 C 
HETATM    2  C   UNL     1       2.660  34.607  62.724  1.00  0.00     0.037 C 
HETATM    3  N   UNL     1       1.292  34.763  62.522  1.00  0.00    -0.191 N 
HETATM    4  C   UNL     1       0.741  34.850  61.294  1.00  0.00     0.735 A 
HETATM    5  N   UNL     1       1.554  34.930  60.198  1.00  0.00    -0.092 N 
HETATM    6  N   UNL     1       0.819  34.928  59.074  1.00  0.00     0.012 NA
HETATM    7  N   UNL     1      -0.440  34.896  59.500  1.00  0.00     0.033 NA
HETATM    8  N   UNL     1      -0.503  34.846  60.880  1.00  0.00     0.030 NA
HETATM    9  C   UNL     1       3.015  34.955  60.249  1.00  0.00     0.198 C 
HETATM   10  C   UNL     1       3.511  34.715  61.672  1.00  0.00     0.062 C 
HETATM   11  H   UNL     1       0.677  34.583  63.314  1.00  0.00     0.184 HD
ENDROOT
BRANCH  10  12
HETATM   12  C   UNL     1       4.979  34.495  61.766  1.00  0.00     0.257 C 
HETATM   13  N   UNL     1       5.345  33.199  61.490  1.00  0.00    -0.308 N 
HETATM   14  H   UNL     1       4.617  32.528  61.297  1.00  0.00     0.170 HD
HETATM   15  O   UNL     1       5.682  35.436  62.110  1.00  0.00    -0.267 OA
BRANCH  13  16
HETATM   16  C   UNL     1       6.661  32.722  61.449  1.00  0.00     0.129 A 
HETATM   17  N   UNL     1       7.333  32.458  62.581  1.00  0.00    -0.243 NA
HETATM   18  C   UNL     1       8.604  32.013  62.478  1.00  0.00     0.119 A 
HETATM   19  C   UNL     1       9.257  31.826  61.275  1.00  0.00     0.019 A 
HETATM   20  C   UNL     1       8.561  32.108  60.108  1.00  0.00     0.005 A 
HETATM   21  C   UNL     1       7.243  32.557  60.194  1.00  0.00     0.050 A 
ENDBRANCH  13  16
ENDBRANCH  10  12
BRANCH   9  22
HETATM   22  C   UNL     1       3.544  36.263  59.669  1.00  0.00    -0.029 A 
HETATM   23  C   UNL     1       3.442  37.482  60.365  1.00  0.00     0.009 A 
HETATM   24  C   UNL     1       3.935  38.662  59.806  1.00  0.00     0.001 A 
HETATM   25  C   UNL     1       4.543  38.642  58.553  1.00  0.00     0.000 A 
HETATM   26  C   UNL     1       4.666  37.441  57.859  1.00  0.00     0.001 A 
HETATM   27  C   UNL     1       4.174  36.259  58.413  1.00  0.00     0.009 A 
ENDBRANCH   9  22
TORSDOF 3
ENDMDL
MODEL 8
REMARK VINA RESULT:      -7.8      3.061      7.885
REMARK  3 active torsions:
REMARK  status: ('A' for Active; 'I' for Inactive)
REMARK    1  A    between atoms: C_9  and  C_10 
REMARK    2  A    between atoms: C_16  and  C_17 
REMARK       I    between atoms: C_17  and  N_18 
REMARK    3  A    between atoms: N_18  and  C_19 
ROOT
HETATM    1  C   UNL     1       4.808  27.932  54.134  1.00  0.00     0.070 C 
HETATM    2  C   UNL     1       5.827  27.623  55.202  1.00  0.00     0.037 C 
HETATM    3  N   UNL     1       6.526  26.431  55.039  1.00  0.00    -0.191 N 
HETATM    4  C   UNL     1       7.291  25.893  56.012  1.00  0.00     0.735 A 
HETATM    5  N   UNL     1       7.513  26.603  57.159  1.00  0.00    -0.092 N 
HETATM    6  N   UNL     1       8.226  25.869  58.028  1.00  0.00     0.012 NA
HETATM    7  N   UNL     1       8.474  24.735  57.380  1.00  0.00     0.033 NA
HETATM    8  N   UNL     1       7.897  24.737  56.124  1.00  0.00     0.030 NA
HETATM    9  C   UNL     1       6.994  27.946  57.417  1.00  0.00     0.198 C 
HETATM   10  C   UNL     1       6.042  28.381  56.308  1.00  0.00     0.062 C 
HETATM   11  H   UNL     1       6.272  25.843  54.247  1.00  0.00     0.184 HD
ENDROOT
BRANCH  10  12
HETATM   12  C   UNL     1       5.297  29.632  56.614  1.00  0.00     0.257 C 
HETATM   13  N   UNL     1       5.680  30.690  55.823  1.00  0.00    -0.308 N 
HETATM   14  H   UNL     1       6.429  30.546  55.162  1.00  0.00     0.170 HD
HETATM   15  O   UNL     1       4.485  29.610  57.528  1.00  0.00    -0.267 OA
BRANCH  13  16
HETATM   16  C   UNL     1       5.111  31.969  55.853  1.00  0.00     0.129 A 
HETATM   17  N   UNL     1       5.366  32.812  56.867  1.00  0.00    -0.243 NA
HETATM   18  C   UNL     1       4.778  34.027  56.847  1.00  0.00     0.119 A 
HETATM   19  C   UNL     1       3.917  34.449  55.851  1.00  0.00     0.019 A 
HETATM   20  C   UNL     1       3.651  33.570  54.810  1.00  0.00     0.005 A 
HETATM   21  C   UNL     1       4.259  32.315  54.807  1.00  0.00     0.050 A 
ENDBRANCH  13  16
ENDBRANCH  10  12
BRANCH   9  22
HETATM   22  C   UNL     1       8.144  28.932  57.606  1.00  0.00    -0.029 A 
HETATM   23  C   UNL     1       8.244  29.751  58.746  1.00  0.00     0.009 A 
HETATM   24  C   UNL     1       9.307  30.644  58.887  1.00  0.00     0.001 A 
HETATM   25  C   UNL     1      10.287  30.726  57.901  1.00  0.00     0.000 A 
HETATM   26  C   UNL     1      10.212  29.910  56.775  1.00  0.00     0.001 A 
HETATM   27  C   UNL     1       9.150  29.016  56.629  1.00  0.00     0.009 A 
ENDBRANCH   9  22
TORSDOF 3
ENDMDL
MODEL 9
REMARK VINA RESULT:      -7.8      6.345      9.016
REMARK  3 active torsions:
REMARK  status: ('A' for Active; 'I' for Inactive)
REMARK    1  A    between atoms: C_9  and  C_10 
REMARK    2  A    between atoms: C_16  and  C_17 
REMARK       I    between atoms: C_17  and  N_18 
REMARK    3  A    between atoms: N_18  and  C_19 
ROOT
HETATM    1  C   UNL     1       9.336  32.248  61.219  1.00  0.00     0.070 C 
HETATM    2  C   UNL     1       7.903  32.487  61.625  1.00  0.00     0.037 C 
HETATM    3  N   UNL     1       7.713  32.902  62.940  1.00  0.00    -0.191 N 
HETATM    4  C   UNL     1       6.499  32.931  63.528  1.00  0.00     0.735 A 
HETATM    5  N   UNL     1       5.384  32.680  62.777  1.00  0.00    -0.092 N 
HETATM    6  N   UNL     1       4.291  32.676  63.556  1.00  0.00     0.012 NA
HETATM    7  N   UNL     1       4.746  32.975  64.769  1.00  0.00     0.033 NA
HETATM    8  N   UNL     1       6.120  33.134  64.765  1.00  0.00     0.030 NA
HETATM    9  C   UNL     1       5.396  32.398  61.342  1.00  0.00     0.198 C 
HETATM   10  C   UNL     1       6.827  32.262  60.829  1.00  0.00     0.062 C 
HETATM   11  H   UNL     1       8.537  32.971  63.534  1.00  0.00     0.184 HD
ENDROOT
BRANCH  10  12
HETATM   12  C   UNL     1       6.918  31.748  59.436  1.00  0.00     0.257 C 
HETATM   13  N   UNL     1       7.197  30.403  59.378  1.00  0.00    -0.308 N 
HETATM   14  H   UNL     1       7.350  29.910  60.245  1.00  0.00     0.170 HD
HETATM   15  O   UNL     1       6.787  32.547  58.518  1.00  0.00    -0.267 OA
BRANCH  13  16
HETATM   16  C   UNL     1       7.284  29.645  58.203  1.00  0.00     0.129 A 
HETATM   17  N   UNL     1       6.188  29.373  57.477  1.00  0.00    -0.243 NA
HETATM   18  C   UNL     1       6.333  28.627  56.361  1.00  0.00     0.119 A 
HETATM   19  C   UNL     1       7.544  28.116  55.931  1.00  0.00     0.019 A 
HETATM   20  C   UNL     1       8.672  28.394  56.690  1.00  0.00     0.005 A 
HETATM   21  C   UNL     1       8.543  29.173  57.840  1.00  0.00     0.050 A 
ENDBRANCH  13  16
ENDBRANCH  10  12
BRANCH   9  22
HETATM   22  C   UNL     1       4.615  33.468  60.584  1.00  0.00    -0.029 A 
HETATM   23  C   UNL     1       3.638  33.140  59.627  1.00  0.00     0.009 A 
HETATM   24  C   UNL     1       2.942  34.143  58.950  1.00  0.00     0.001 A 
HETATM   25  C   UNL     1       3.205  35.483  59.224  1.00  0.00     0.000 A 
HETATM   26  C   UNL     1       4.157  35.824  60.181  1.00  0.00     0.001 A 
HETATM   27  C   UNL     1       4.855  34.825  60.860  1.00  0.00     0.009 A 
ENDBRANCH   9  22
TORSDOF 3
ENDMDL
MODEL 10
REMARK VINA RESULT:      -7.5      3.213      6.257
REMARK  3 active torsions:
REMARK  status: ('A' for Active; 'I' for Inactive)
REMARK    1  A    between atoms: C_9  and  C_10 
REMARK    2  A    between atoms: C_16  and  C_17 
REMARK       I    between atoms: C_17  and  N_18 
REMARK    3  A    between atoms: N_18  and  C_19 
ROOT
HETATM    1  C   UNL     1       5.758  31.449  58.381  1.00  0.00     0.070 C 
HETATM    2  C   UNL     1       6.890  30.645  57.792  1.00  0.00     0.037 C 
HETATM    3  N   UNL     1       8.140  30.856  58.367  1.00  0.00    -0.191 N 
HETATM    4  C   UNL     1       9.284  30.404  57.813  1.00  0.00     0.735 A 
HETATM    5  N   UNL     1       9.222  29.586  56.720  1.00  0.00    -0.092 N 
HETATM    6  N   UNL     1      10.459  29.312  56.274  1.00  0.00     0.012 NA
HETATM    7  N   UNL     1      11.266  29.929  57.132  1.00  0.00     0.033 NA
HETATM    8  N   UNL     1      10.546  30.613  58.095  1.00  0.00     0.030 NA
HETATM    9  C   UNL     1       7.982  29.127  56.096  1.00  0.00     0.198 C 
HETATM   10  C   UNL     1       6.773  29.812  56.727  1.00  0.00     0.062 C 
HETATM   11  H   UNL     1       8.206  31.558  59.102  1.00  0.00     0.184 HD
ENDROOT
BRANCH  10  12
HETATM   12  C   UNL     1       5.499  29.574  55.995  1.00  0.00     0.257 C 
HETATM   13  N   UNL     1       5.612  29.790  54.641  1.00  0.00    -0.308 N 
HETATM   14  H   UNL     1       6.496  30.117  54.282  1.00  0.00     0.170 HD
HETATM   15  O   UNL     1       4.510  29.267  56.646  1.00  0.00    -0.267 OA
BRANCH  13  16
HETATM   16  C   UNL     1       4.591  29.589  53.704  1.00  0.00     0.129 A 
HETATM   17  N   UNL     1       4.123  28.357  53.448  1.00  0.00    -0.243 NA
HETATM   18  C   UNL     1       3.147  28.225  52.525  1.00  0.00     0.119 A 
HETATM   19  C   UNL     1       2.611  29.285  51.817  1.00  0.00     0.019 A 
HETATM   20  C   UNL     1       3.104  30.555  52.079  1.00  0.00     0.005 A 
HETATM   21  C   UNL     1       4.104  30.713  53.039  1.00  0.00     0.050 A 
ENDBRANCH  13  16
ENDBRANCH  10  12
BRANCH   9  22
HETATM   22  C   UNL     1       7.882  27.606  56.168  1.00  0.00    -0.029 A 
HETATM   23  C   UNL     1       7.613  26.822  55.032  1.00  0.00     0.009 A 
HETATM   24  C   UNL     1       7.526  25.432  55.133  1.00  0.00     0.001 A 
HETATM   25  C   UNL     1       7.715  24.807  56.363  1.00  0.00     0.000 A 
HETATM   26  C   UNL     1       7.999  25.568  57.494  1.00  0.00     0.001 A 
HETATM   27  C   UNL     1       8.086  26.957  57.398  1.00  0.00     0.009 A 
ENDBRANCH   9  22
TORSDOF 3
ENDMDL
