MODEL 1
REMARK VINA RESULT:     -10.5      0.000      0.000
REMARK  2 active torsions:
REMARK  status: ('A' for Active; 'I' for Inactive)
REMARK    1  A    between atoms: O_2  and  C_3 
REMARK    2  A    between atoms: C_5  and  N_6 
ROOT
HETATM    1  N   UNL     1       6.573  25.314  55.418  1.00  0.00    -0.252 N 
HETATM    2  C   UNL     1       5.468  25.973  54.926  1.00  0.00     0.239 C 
HETATM    3  O   UNL     1       4.697  25.687  54.024  1.00  0.00    -0.272 OA
HETATM    4  C   UNL     1       5.320  27.272  55.644  1.00  0.00     0.145 C 
HETATM    5  C   UNL     1       6.129  27.076  56.912  1.00  0.00     0.126 C 
HETATM    6  C   UNL     1       7.100  25.995  56.499  1.00  0.00     0.238 C 
HETATM    7  O   UNL     1       8.175  25.853  57.057  1.00  0.00    -0.272 OA
HETATM    8  C   UNL     1       5.946  28.445  54.874  1.00  0.00     0.250 A 
HETATM    9  C   UNL     1       6.607  28.087  53.488  1.00  0.00     0.264 A 
HETATM   10  O   UNL     1       7.570  27.356  53.325  1.00  0.00    -0.270 OA
HETATM   11  N   UNL     1       5.951  28.801  52.505  1.00  0.00    -0.324 N 
HETATM   12  C   UNL     1       4.957  29.600  53.040  1.00  0.00     0.044 A 
HETATM   13  C   UNL     1       4.903  29.455  54.430  1.00  0.00     0.015 A 
HETATM   14  C   UNL     1       4.120  30.446  52.345  1.00  0.00     0.030 A 
HETATM   15  C   UNL     1       3.194  31.180  53.086  1.00  0.00     0.002 A 
HETATM   16  C   UNL     1       3.129  31.053  54.485  1.00  0.00     0.001 A 
HETATM   17  C   UNL     1       3.985  30.184  55.171  1.00  0.00     0.012 A 
HETATM   18  N   UNL     1       6.930  29.088  55.876  1.00  0.00    -0.043 N 
HETATM   19  H   UNL     1       6.736  30.100  55.915  1.00  0.00     0.282 HD
HETATM   20  C   UNL     1       6.684  28.457  57.226  1.00  0.00     0.204 C 
HETATM   21  C   UNL     1       8.419  28.944  55.641  1.00  0.00     0.237 C 
HETATM   22  C   UNL     1       8.987  29.232  57.016  1.00  0.00     0.030 C 
HETATM   23  C   UNL     1       7.986  28.630  57.998  1.00  0.00     0.036 C 
HETATM   24  H   UNL     1       6.178  28.729  51.519  1.00  0.00     0.169 HD
ENDROOT
BRANCH   1  25
HETATM   25  C   UNL     1       7.181  24.172  54.800  1.00  0.00     0.048 A 
HETATM   26  C   UNL     1       7.336  22.958  55.488  1.00  0.00     0.066 A 
HETATM   27  C   UNL     1       7.862  21.812  54.874  1.00  0.00     0.070 A 
HETATM   28  C   UNL     1       8.282  21.873  53.551  1.00  0.00     0.037 A 
HETATM   29  C   UNL     1       8.166  23.071  52.851  1.00  0.00     0.005 A 
HETATM   30  C   UNL     1       7.622  24.205  53.468  1.00  0.00     0.030 A 
BRANCH  27  31
HETATM   31  O   UNL     1       7.913  20.709  55.681  1.00  0.00    -0.356 OA
HETATM   32  C   UNL     1       9.185  20.366  56.217  1.00  0.00     0.210 C 
ENDBRANCH  27  31
ENDBRANCH   1  25
TORSDOF 2
ENDMDL
MODEL 2
REMARK VINA RESULT:      -9.6      2.758      5.885
REMARK  2 active torsions:
REMARK  status: ('A' for Active; 'I' for Inactive)
REMARK    1  A    between atoms: O_2  and  C_3 
REMARK    2  A    between atoms: C_5  and  N_6 
ROOT
HETATM    1  N   UNL     1       8.561  28.171  56.256  1.00  0.00    -0.252 N 
HETATM    2  C   UNL     1       8.415  28.131  54.887  1.00  0.00     0.239 C 
HETATM    3  O   UNL     1       8.775  28.906  54.016  1.00  0.00    -0.272 OA
HETATM    4  C   UNL     1       7.610  26.929  54.523  1.00  0.00     0.145 C 
HETATM    5  C   UNL     1       7.732  26.032  55.739  1.00  0.00     0.126 C 
HETATM    6  C   UNL     1       8.042  27.028  56.831  1.00  0.00     0.238 C 
HETATM    7  O   UNL     1       7.794  26.792  58.002  1.00  0.00    -0.272 OA
HETATM    8  C   UNL     1       6.119  27.253  54.337  1.00  0.00     0.250 A 
HETATM    9  C   UNL     1       5.709  28.761  54.543  1.00  0.00     0.264 A 
HETATM   10  O   UNL     1       5.802  29.389  55.585  1.00  0.00    -0.270 OA
HETATM   11  N   UNL     1       5.163  29.221  53.361  1.00  0.00    -0.324 N 
HETATM   12  C   UNL     1       5.131  28.227  52.400  1.00  0.00     0.044 A 
HETATM   13  C   UNL     1       5.665  27.037  52.904  1.00  0.00     0.015 A 
HETATM   14  C   UNL     1       4.642  28.341  51.116  1.00  0.00     0.030 A 
HETATM   15  C   UNL     1       4.690  27.203  50.311  1.00  0.00     0.002 A 
HETATM   16  C   UNL     1       5.217  25.995  50.802  1.00  0.00     0.001 A 
HETATM   17  C   UNL     1       5.712  25.902  52.108  1.00  0.00     0.012 A 
HETATM   18  N   UNL     1       5.388  26.281  55.289  1.00  0.00    -0.043 N 
HETATM   19  H   UNL     1       4.654  25.795  54.753  1.00  0.00     0.282 HD
HETATM   20  C   UNL     1       6.406  25.290  55.800  1.00  0.00     0.204 C 
HETATM   21  C   UNL     1       4.719  26.833  56.531  1.00  0.00     0.237 C 
HETATM   22  C   UNL     1       4.588  25.596  57.396  1.00  0.00     0.030 C 
HETATM   23  C   UNL     1       5.846  24.778  57.121  1.00  0.00     0.036 C 
HETATM   24  H   UNL     1       4.837  30.172  53.231  1.00  0.00     0.169 HD
ENDROOT
BRANCH   1  25
HETATM   25  C   UNL     1       9.040  29.307  56.988  1.00  0.00     0.048 A 
HETATM   26  C   UNL     1       8.169  30.136  57.714  1.00  0.00     0.066 A 
HETATM   27  C   UNL     1       8.630  31.207  58.492  1.00  0.00     0.070 A 
HETATM   28  C   UNL     1       9.989  31.492  58.531  1.00  0.00     0.037 A 
HETATM   29  C   UNL     1      10.875  30.705  57.801  1.00  0.00     0.005 A 
HETATM   30  C   UNL     1      10.405  29.627  57.040  1.00  0.00     0.030 A 
BRANCH  27  31
HETATM   31  O   UNL     1       7.648  31.890  59.157  1.00  0.00    -0.356 OA
HETATM   32  C   UNL     1       7.544  31.658  60.557  1.00  0.00     0.210 C 
ENDBRANCH  27  31
ENDBRANCH   1  25
TORSDOF 2
ENDMDL
MODEL 3
REMARK VINA RESULT:      -8.8      2.602      6.545
REMARK  2 active torsions:
REMARK  status: ('A' for Active; 'I' for Inactive)
REMARK    1  A    between atoms: O_2  and  C_3 
REMARK    2  A    between atoms: C_5  and  N_6 
ROOT
HETATM    1  N   UNL     1       7.299  29.025  57.892  1.00  0.00    -0.252 N 
HETATM    2  C   UNL     1       7.585  27.779  57.379  1.00  0.00     0.239 C 
HETATM    3  O   UNL     1       8.616  27.125  57.382  1.00  0.00    -0.272 OA
HETATM    4  C   UNL     1       6.380  27.262  56.667  1.00  0.00     0.145 C 
HETATM    5  C   UNL     1       5.244  28.088  57.236  1.00  0.00     0.126 C 
HETATM    6  C   UNL     1       5.965  29.330  57.705  1.00  0.00     0.238 C 
HETATM    7  O   UNL     1       5.389  30.399  57.823  1.00  0.00    -0.272 OA
HETATM    8  C   UNL     1       6.432  27.527  55.154  1.00  0.00     0.250 A 
HETATM    9  C   UNL     1       7.720  28.268  54.626  1.00  0.00     0.264 A 
HETATM   10  O   UNL     1       8.062  29.400  54.922  1.00  0.00    -0.270 OA
HETATM   11  N   UNL     1       8.348  27.437  53.720  1.00  0.00    -0.324 N 
HETATM   12  C   UNL     1       7.652  26.253  53.552  1.00  0.00     0.044 A 
HETATM   13  C   UNL     1       6.506  26.239  54.353  1.00  0.00     0.015 A 
HETATM   14  C   UNL     1       7.992  25.212  52.717  1.00  0.00     0.030 A 
HETATM   15  C   UNL     1       7.136  24.111  52.687  1.00  0.00     0.002 A 
HETATM   16  C   UNL     1       5.975  24.080  53.480  1.00  0.00     0.001 A 
HETATM   17  C   UNL     1       5.650  25.148  54.324  1.00  0.00     0.012 A 
HETATM   18  N   UNL     1       5.119  28.281  54.847  1.00  0.00    -0.043 N 
HETATM   19  H   UNL     1       4.650  27.805  54.062  1.00  0.00     0.282 HD
HETATM   20  C   UNL     1       4.258  28.223  56.086  1.00  0.00     0.204 C 
HETATM   21  C   UNL     1       5.183  29.750  54.481  1.00  0.00     0.237 C 
HETATM   22  C   UNL     1       3.764  30.206  54.756  1.00  0.00     0.030 C 
HETATM   23  C   UNL     1       3.319  29.417  55.983  1.00  0.00     0.036 C 
HETATM   24  H   UNL     1       9.214  27.679  53.251  1.00  0.00     0.169 HD
ENDROOT
BRANCH   1  25
HETATM   25  C   UNL     1       8.280  29.937  58.404  1.00  0.00     0.048 A 
HETATM   26  C   UNL     1       8.201  30.445  59.711  1.00  0.00     0.066 A 
HETATM   27  C   UNL     1       9.189  31.280  60.251  1.00  0.00     0.070 A 
HETATM   28  C   UNL     1      10.273  31.656  59.466  1.00  0.00     0.037 A 
HETATM   29  C   UNL     1      10.365  31.191  58.158  1.00  0.00     0.005 A 
HETATM   30  C   UNL     1       9.380  30.342  57.635  1.00  0.00     0.030 A 
BRANCH  27  31
HETATM   31  O   UNL     1       8.970  31.656  61.547  1.00  0.00    -0.356 OA
HETATM   32  C   UNL     1       7.754  31.219  62.143  1.00  0.00     0.210 C 
ENDBRANCH  27  31
ENDBRANCH   1  25
TORSDOF 2
ENDMDL
MODEL 4
REMARK VINA RESULT:      -8.5      3.578      6.360
REMARK  2 active torsions:
REMARK  status: ('A' for Active; 'I' for Inactive)
REMARK    1  A    between atoms: O_2  and  C_3 
REMARK    2  A    between atoms: C_5  and  N_6 
ROOT
HETATM    1  N   UNL     1       5.330  27.298  50.731  1.00  0.00    -0.252 N 
HETATM    2  C   UNL     1       5.538  28.655  50.843  1.00  0.00     0.239 C 
HETATM    3  O   UNL     1       6.091  29.315  51.708  1.00  0.00    -0.272 OA
HETATM    4  C   UNL     1       4.881  29.340  49.693  1.00  0.00     0.145 C 
HETATM    5  C   UNL     1       4.711  28.238  48.666  1.00  0.00     0.126 C 
HETATM    6  C   UNL     1       4.709  27.002  49.533  1.00  0.00     0.238 C 
HETATM    7  O   UNL     1       4.176  25.966  49.170  1.00  0.00    -0.272 OA
HETATM    8  C   UNL     1       3.480  29.866  50.043  1.00  0.00     0.250 A 
HETATM    9  C   UNL     1       2.996  29.609  51.521  1.00  0.00     0.264 A 
HETATM   10  O   UNL     1       2.805  28.517  52.029  1.00  0.00    -0.270 OA
HETATM   11  N   UNL     1       2.758  30.834  52.111  1.00  0.00    -0.324 N 
HETATM   12  C   UNL     1       2.996  31.874  51.230  1.00  0.00     0.044 A 
HETATM   13  C   UNL     1       3.411  31.382  49.989  1.00  0.00     0.015 A 
HETATM   14  C   UNL     1       2.848  33.219  51.489  1.00  0.00     0.030 A 
HETATM   15  C   UNL     1       3.126  34.104  50.447  1.00  0.00     0.002 A 
HETATM   16  C   UNL     1       3.539  33.628  49.189  1.00  0.00     0.001 A 
HETATM   17  C   UNL     1       3.686  32.258  48.950  1.00  0.00     0.012 A 
HETATM   18  N   UNL     1       2.553  29.243  48.975  1.00  0.00    -0.043 N 
HETATM   19  H   UNL     1       1.992  29.999  48.555  1.00  0.00     0.282 HD
HETATM   20  C   UNL     1       3.431  28.599  47.928  1.00  0.00     0.204 C 
HETATM   21  C   UNL     1       1.577  28.162  49.389  1.00  0.00     0.237 C 
HETATM   22  C   UNL     1       1.259  27.499  48.064  1.00  0.00     0.030 C 
HETATM   23  C   UNL     1       2.565  27.530  47.275  1.00  0.00     0.036 C 
HETATM   24  H   UNL     1       2.453  30.939  53.073  1.00  0.00     0.169 HD
ENDROOT
BRANCH   1  25
HETATM   25  C   UNL     1       5.580  26.348  51.776  1.00  0.00     0.048 A 
HETATM   26  C   UNL     1       6.656  25.448  51.711  1.00  0.00     0.066 A 
HETATM   27  C   UNL     1       6.956  24.564  52.757  1.00  0.00     0.070 A 
HETATM   28  C   UNL     1       6.149  24.540  53.888  1.00  0.00     0.037 A 
HETATM   29  C   UNL     1       5.059  25.401  53.970  1.00  0.00     0.005 A 
HETATM   30  C   UNL     1       4.779  26.293  52.927  1.00  0.00     0.030 A 
BRANCH  27  31
HETATM   31  O   UNL     1       8.056  23.781  52.540  1.00  0.00    -0.356 OA
HETATM   32  C   UNL     1       8.049  22.488  53.135  1.00  0.00     0.210 C 
ENDBRANCH  27  31
ENDBRANCH   1  25
TORSDOF 2
ENDMDL
MODEL 5
REMARK VINA RESULT:      -8.2      4.149      7.242
REMARK  2 active torsions:
REMARK  status: ('A' for Active; 'I' for Inactive)
REMARK    1  A    between atoms: O_2  and  C_3 
REMARK    2  A    between atoms: C_5  and  N_6 
ROOT
HETATM    1  N   UNL     1       5.148  27.311  50.418  1.00  0.00    -0.252 N 
HETATM    2  C   UNL     1       5.462  28.623  50.140  1.00  0.00     0.239 C 
HETATM    3  O   UNL     1       6.066  29.461  50.791  1.00  0.00    -0.272 OA
HETATM    4  C   UNL     1       4.858  28.997  48.828  1.00  0.00     0.145 C 
HETATM    5  C   UNL     1       4.599  27.662  48.158  1.00  0.00     0.126 C 
HETATM    6  C   UNL     1       4.503  26.731  49.343  1.00  0.00     0.238 C 
HETATM    7  O   UNL     1       3.891  25.677  49.281  1.00  0.00    -0.272 OA
HETATM    8  C   UNL     1       3.502  29.705  48.985  1.00  0.00     0.250 A 
HETATM    9  C   UNL     1       3.002  29.920  50.464  1.00  0.00     0.264 A 
HETATM   10  O   UNL     1       2.729  29.038  51.260  1.00  0.00    -0.270 OA
HETATM   11  N   UNL     1       2.862  31.278  50.674  1.00  0.00    -0.324 N 
HETATM   12  C   UNL     1       3.178  32.000  49.537  1.00  0.00     0.044 A 
HETATM   13  C   UNL     1       3.551  31.142  48.497  1.00  0.00     0.015 A 
HETATM   14  C   UNL     1       3.136  33.369  49.395  1.00  0.00     0.030 A 
HETATM   15  C   UNL     1       3.480  33.894  48.149  1.00  0.00     0.002 A 
HETATM   16  C   UNL     1       3.852  33.047  47.089  1.00  0.00     0.001 A 
HETATM   17  C   UNL     1       3.892  31.659  47.256  1.00  0.00     0.012 A 
HETATM   18  N   UNL     1       2.527  28.873  48.122  1.00  0.00    -0.043 N 
HETATM   19  H   UNL     1       2.026  29.516  47.491  1.00  0.00     0.282 HD
HETATM   20  C   UNL     1       3.350  27.891  47.322  1.00  0.00     0.204 C 
HETATM   21  C   UNL     1       1.471  28.033  48.809  1.00  0.00     0.237 C 
HETATM   22  C   UNL     1       1.099  27.042  47.724  1.00  0.00     0.030 C 
HETATM   23  C   UNL     1       2.401  26.747  46.986  1.00  0.00     0.036 C 
HETATM   24  H   UNL     1       2.569  31.678  51.559  1.00  0.00     0.169 HD
ENDROOT
BRANCH   1  25
HETATM   25  C   UNL     1       5.326  26.686  51.696  1.00  0.00     0.048 A 
HETATM   26  C   UNL     1       5.003  27.350  52.891  1.00  0.00     0.066 A 
HETATM   27  C   UNL     1       5.103  26.728  54.143  1.00  0.00     0.070 A 
HETATM   28  C   UNL     1       5.568  25.421  54.225  1.00  0.00     0.037 A 
HETATM   29  C   UNL     1       5.921  24.746  53.060  1.00  0.00     0.005 A 
HETATM   30  C   UNL     1       5.800  25.371  51.813  1.00  0.00     0.030 A 
BRANCH  27  31
HETATM   31  O   UNL     1       4.719  27.510  55.198  1.00  0.00    -0.356 OA
HETATM   32  C   UNL     1       4.269  28.824  54.890  1.00  0.00     0.210 C 
ENDBRANCH  27  31
ENDBRANCH   1  25
TORSDOF 2
ENDMDL
MODEL 6
REMARK VINA RESULT:      -8.0      2.358      5.859
REMARK  2 active torsions:
REMARK  status: ('A' for Active; 'I' for Inactive)
REMARK    1  A    between atoms: O_2  and  C_3 
REMARK    2  A    between atoms: C_5  and  N_6 
ROOT
HETATM    1  N   UNL     1       4.854  27.046  53.249  1.00  0.00    -0.252 N 
HETATM    2  C   UNL     1       5.190  28.055  54.125  1.00  0.00     0.239 C 
HETATM    3  O   UNL     1       5.177  29.268  53.997  1.00  0.00    -0.272 OA
HETATM    4  C   UNL     1       5.705  27.447  55.386  1.00  0.00     0.145 C 
HETATM    5  C   UNL     1       5.174  26.027  55.345  1.00  0.00     0.126 C 
HETATM    6  C   UNL     1       4.969  25.814  53.863  1.00  0.00     0.238 C 
HETATM    7  O   UNL     1       4.968  24.698  53.371  1.00  0.00    -0.272 OA
HETATM    8  C   UNL     1       7.240  27.365  55.417  1.00  0.00     0.250 A 
HETATM    9  C   UNL     1       7.987  27.934  54.150  1.00  0.00     0.264 A 
HETATM   10  O   UNL     1       7.902  27.496  53.016  1.00  0.00    -0.270 OA
HETATM   11  N   UNL     1       8.805  28.966  54.565  1.00  0.00    -0.324 N 
HETATM   12  C   UNL     1       8.725  29.155  55.934  1.00  0.00     0.044 A 
HETATM   13  C   UNL     1       7.834  28.241  56.505  1.00  0.00     0.015 A 
HETATM   14  C   UNL     1       9.415  30.089  56.675  1.00  0.00     0.030 A 
HETATM   15  C   UNL     1       9.199  30.096  58.053  1.00  0.00     0.002 A 
HETATM   16  C   UNL     1       8.311  29.181  58.648  1.00  0.00     0.001 A 
HETATM   17  C   UNL     1       7.618  28.243  57.875  1.00  0.00     0.012 A 
HETATM   18  N   UNL     1       7.544  25.876  55.693  1.00  0.00    -0.043 N 
HETATM   19  H   UNL     1       8.201  25.823  56.486  1.00  0.00     0.282 HD
HETATM   20  C   UNL     1       6.241  25.201  56.047  1.00  0.00     0.204 C 
HETATM   21  C   UNL     1       8.137  25.029  54.586  1.00  0.00     0.237 C 
HETATM   22  C   UNL     1       7.814  23.625  55.054  1.00  0.00     0.030 C 
HETATM   23  C   UNL     1       6.445  23.728  55.719  1.00  0.00     0.036 C 
HETATM   24  H   UNL     1       9.380  29.510  53.932  1.00  0.00     0.169 HD
ENDROOT
BRANCH   1  25
HETATM   25  C   UNL     1       4.578  27.239  51.855  1.00  0.00     0.048 A 
HETATM   26  C   UNL     1       3.749  28.280  51.406  1.00  0.00     0.066 A 
HETATM   27  C   UNL     1       3.527  28.526  50.044  1.00  0.00     0.070 A 
HETATM   28  C   UNL     1       4.112  27.698  49.093  1.00  0.00     0.037 A 
HETATM   29  C   UNL     1       4.917  26.641  49.508  1.00  0.00     0.005 A 
HETATM   30  C   UNL     1       5.146  26.416  50.872  1.00  0.00     0.030 A 
BRANCH  27  31
HETATM   31  O   UNL     1       2.718  29.598  49.784  1.00  0.00    -0.356 OA
HETATM   32  C   UNL     1       1.335  29.443  50.078  1.00  0.00     0.210 C 
ENDBRANCH  27  31
ENDBRANCH   1  25
TORSDOF 2
ENDMDL
MODEL 7
REMARK VINA RESULT:      -8.0      3.999      6.572
REMARK  2 active torsions:
REMARK  status: ('A' for Active; 'I' for Inactive)
REMARK    1  A    between atoms: O_2  and  C_3 
REMARK    2  A    between atoms: C_5  and  N_6 
ROOT
HETATM    1  N   UNL     1       3.990  29.610  53.787  1.00  0.00    -0.252 N 
HETATM    2  C   UNL     1       3.470  28.571  53.047  1.00  0.00     0.239 C 
HETATM    3  O   UNL     1       3.420  27.372  53.269  1.00  0.00    -0.272 OA
HETATM    4  C   UNL     1       2.970  29.107  51.748  1.00  0.00     0.145 C 
HETATM    5  C   UNL     1       2.797  30.590  52.012  1.00  0.00     0.126 C 
HETATM    6  C   UNL     1       3.758  30.816  53.156  1.00  0.00     0.238 C 
HETATM    7  O   UNL     1       4.238  31.915  53.380  1.00  0.00    -0.272 OA
HETATM    8  C   UNL     1       3.997  28.957  50.614  1.00  0.00     0.250 A 
HETATM    9  C   UNL     1       5.361  28.270  51.005  1.00  0.00     0.264 A 
HETATM   10  O   UNL     1       6.176  28.705  51.800  1.00  0.00    -0.270 OA
HETATM   11  N   UNL     1       5.500  27.131  50.237  1.00  0.00    -0.324 N 
HETATM   12  C   UNL     1       4.431  26.970  49.374  1.00  0.00     0.044 A 
HETATM   13  C   UNL     1       3.512  28.013  49.529  1.00  0.00     0.015 A 
HETATM   14  C   UNL     1       4.256  25.950  48.464  1.00  0.00     0.030 A 
HETATM   15  C   UNL     1       3.108  25.989  47.673  1.00  0.00     0.002 A 
HETATM   16  C   UNL     1       2.175  27.033  47.810  1.00  0.00     0.001 A 
HETATM   17  C   UNL     1       2.370  28.057  48.743  1.00  0.00     0.012 A 
HETATM   18  N   UNL     1       4.167  30.386  50.053  1.00  0.00    -0.043 N 
HETATM   19  H   UNL     1       4.042  30.348  49.030  1.00  0.00     0.282 HD
HETATM   20  C   UNL     1       3.101  31.253  50.678  1.00  0.00     0.204 C 
HETATM   21  C   UNL     1       5.467  31.123  50.299  1.00  0.00     0.237 C 
HETATM   22  C   UNL     1       5.063  32.565  50.066  1.00  0.00     0.030 C 
HETATM   23  C   UNL     1       3.640  32.675  50.605  1.00  0.00     0.036 C 
HETATM   24  H   UNL     1       6.290  26.500  50.314  1.00  0.00     0.169 HD
ENDROOT
BRANCH   1  25
HETATM   25  C   UNL     1       4.794  29.447  54.963  1.00  0.00     0.048 A 
HETATM   26  C   UNL     1       6.112  28.966  54.893  1.00  0.00     0.066 A 
HETATM   27  C   UNL     1       6.935  28.870  56.024  1.00  0.00     0.070 A 
HETATM   28  C   UNL     1       6.433  29.225  57.270  1.00  0.00     0.037 A 
HETATM   29  C   UNL     1       5.121  29.679  57.375  1.00  0.00     0.005 A 
HETATM   30  C   UNL     1       4.314  29.789  56.236  1.00  0.00     0.030 A 
BRANCH  27  31
HETATM   31  O   UNL     1       8.198  28.412  55.770  1.00  0.00    -0.356 OA
HETATM   32  C   UNL     1       9.267  29.325  55.991  1.00  0.00     0.210 C 
ENDBRANCH  27  31
ENDBRANCH   1  25
TORSDOF 2
ENDMDL
MODEL 8
REMARK VINA RESULT:      -7.8     15.873     18.018
REMARK  2 active torsions:
REMARK  status: ('A' for Active; 'I' for Inactive)
REMARK    1  A    between atoms: O_2  and  C_3 
REMARK    2  A    between atoms: C_5  and  N_6 
ROOT
HETATM    1  N   UNL     1      13.973  10.931  55.535  1.00  0.00    -0.252 N 
HETATM    2  C   UNL     1      12.671  11.139  55.934  1.00  0.00     0.239 C 
HETATM    3  O   UNL     1      12.105  10.900  56.988  1.00  0.00    -0.272 OA
HETATM    4  C   UNL     1      11.898  11.695  54.785  1.00  0.00     0.145 C 
HETATM    5  C   UNL     1      12.967  12.244  53.862  1.00  0.00     0.126 C 
HETATM    6  C   UNL     1      14.173  11.426  54.261  1.00  0.00     0.238 C 
HETATM    7  O   UNL     1      15.106  11.246  53.496  1.00  0.00    -0.272 OA
HETATM    8  C   UNL     1      11.133  10.609  54.010  1.00  0.00     0.250 A 
HETATM    9  C   UNL     1      11.283   9.137  54.555  1.00  0.00     0.264 A 
HETATM   10  O   UNL     1      12.319   8.495  54.599  1.00  0.00    -0.270 OA
HETATM   11  N   UNL     1      10.027   8.682  54.904  1.00  0.00    -0.324 N 
HETATM   12  C   UNL     1       9.056   9.634  54.651  1.00  0.00     0.044 A 
HETATM   13  C   UNL     1       9.629  10.790  54.112  1.00  0.00     0.015 A 
HETATM   14  C   UNL     1       7.702   9.505  54.871  1.00  0.00     0.030 A 
HETATM   15  C   UNL     1       6.893  10.587  54.527  1.00  0.00     0.002 A 
HETATM   16  C   UNL     1       7.449  11.757  53.978  1.00  0.00     0.001 A 
HETATM   17  C   UNL     1       8.828  11.868  53.766  1.00  0.00     0.012 A 
HETATM   18  N   UNL     1      11.601  10.774  52.547  1.00  0.00    -0.043 N 
HETATM   19  H   UNL     1      10.765  10.836  51.947  1.00  0.00     0.282 HD
HETATM   20  C   UNL     1      12.401  12.052  52.464  1.00  0.00     0.204 C 
HETATM   21  C   UNL     1      12.491   9.712  51.936  1.00  0.00     0.237 C 
HETATM   22  C   UNL     1      13.108  10.452  50.765  1.00  0.00     0.030 C 
HETATM   23  C   UNL     1      13.313  11.882  51.257  1.00  0.00     0.036 C 
HETATM   24  H   UNL     1       9.858   7.764  55.300  1.00  0.00     0.169 HD
ENDROOT
BRANCH   1  25
HETATM   25  C   UNL     1      14.937  10.169  56.274  1.00  0.00     0.048 A 
HETATM   26  C   UNL     1      16.157  10.728  56.687  1.00  0.00     0.066 A 
HETATM   27  C   UNL     1      17.078  10.019  57.471  1.00  0.00     0.070 A 
HETATM   28  C   UNL     1      16.805   8.705  57.832  1.00  0.00     0.037 A 
HETATM   29  C   UNL     1      15.615   8.115  57.415  1.00  0.00     0.005 A 
HETATM   30  C   UNL     1      14.694   8.838  56.646  1.00  0.00     0.030 A 
BRANCH  27  31
HETATM   31  O   UNL     1      18.200  10.726  57.808  1.00  0.00    -0.356 OA
HETATM   32  C   UNL     1      18.833  10.375  59.033  1.00  0.00     0.210 C 
ENDBRANCH  27  31
ENDBRANCH   1  25
TORSDOF 2
ENDMDL
MODEL 9
REMARK VINA RESULT:      -7.5      2.677      6.320
REMARK  2 active torsions:
REMARK  status: ('A' for Active; 'I' for Inactive)
REMARK    1  A    between atoms: O_2  and  C_3 
REMARK    2  A    between atoms: C_5  and  N_6 
ROOT
HETATM    1  N   UNL     1       4.333  27.050  52.377  1.00  0.00    -0.252 N 
HETATM    2  C   UNL     1       4.518  27.596  53.628  1.00  0.00     0.239 C 
HETATM    3  O   UNL     1       4.244  28.699  54.073  1.00  0.00    -0.272 OA
HETATM    4  C   UNL     1       5.241  26.610  54.482  1.00  0.00     0.145 C 
HETATM    5  C   UNL     1       5.015  25.287  53.776  1.00  0.00     0.126 C 
HETATM    6  C   UNL     1       4.747  25.733  52.358  1.00  0.00     0.238 C 
HETATM    7  O   UNL     1       4.940  24.993  51.407  1.00  0.00    -0.272 OA
HETATM    8  C   UNL     1       6.758  26.861  54.516  1.00  0.00     0.250 A 
HETATM    9  C   UNL     1       7.273  28.092  53.676  1.00  0.00     0.264 A 
HETATM   10  O   UNL     1       7.195  28.211  52.465  1.00  0.00    -0.270 OA
HETATM   11  N   UNL     1       7.888  28.973  54.543  1.00  0.00    -0.324 N 
HETATM   12  C   UNL     1       7.875  28.496  55.842  1.00  0.00     0.044 A 
HETATM   13  C   UNL     1       7.238  27.252  55.902  1.00  0.00     0.015 A 
HETATM   14  C   UNL     1       8.410  29.115  56.950  1.00  0.00     0.030 A 
HETATM   15  C   UNL     1       8.302  28.447  58.170  1.00  0.00     0.002 A 
HETATM   16  C   UNL     1       7.671  27.192  58.250  1.00  0.00     0.001 A 
HETATM   17  C   UNL     1       7.131  26.583  57.113  1.00  0.00     0.012 A 
HETATM   18  N   UNL     1       7.384  25.517  54.084  1.00  0.00    -0.043 N 
HETATM   19  H   UNL     1       8.096  25.254  54.783  1.00  0.00     0.282 HD
HETATM   20  C   UNL     1       6.279  24.488  54.050  1.00  0.00     0.204 C 
HETATM   21  C   UNL     1       8.054  25.419  52.730  1.00  0.00     0.237 C 
HETATM   22  C   UNL     1       8.065  23.923  52.489  1.00  0.00     0.030 C 
HETATM   23  C   UNL     1       6.759  23.410  53.087  1.00  0.00     0.036 C 
HETATM   24  H   UNL     1       8.288  29.857  54.248  1.00  0.00     0.169 HD
ENDROOT
BRANCH   1  25
HETATM   25  C   UNL     1       3.918  27.791  51.220  1.00  0.00     0.048 A 
HETATM   26  C   UNL     1       4.175  27.329  49.919  1.00  0.00     0.066 A 
HETATM   27  C   UNL     1       3.714  28.004  48.781  1.00  0.00     0.070 A 
HETATM   28  C   UNL     1       3.005  29.191  48.926  1.00  0.00     0.037 A 
HETATM   29  C   UNL     1       2.758  29.688  50.203  1.00  0.00     0.005 A 
HETATM   30  C   UNL     1       3.209  28.996  51.334  1.00  0.00     0.030 A 
BRANCH  27  31
HETATM   31  O   UNL     1       4.027  27.398  47.595  1.00  0.00    -0.356 OA
HETATM   32  C   UNL     1       3.167  26.349  47.165  1.00  0.00     0.210 C 
ENDBRANCH  27  31
ENDBRANCH   1  25
TORSDOF 2
ENDMDL
