MODEL 1
REMARK VINA RESULT:      -9.2      0.000      0.000
REMARK  8 active torsions:
REMARK  status: ('A' for Active; 'I' for Inactive)
REMARK    1  A    between atoms: C_2  and  O_3 
REMARK    2  A    between atoms: C_2  and  C_4 
REMARK    3  A    between atoms: C_4  and  N_5 
REMARK       I    between atoms: N_5  and  C_6 
REMARK    4  A    between atoms: C_6  and  C_7 
REMARK    5  A    between atoms: C_10  and  O_11 
REMARK    6  A    between atoms: O_11  and  C_12 
REMARK    7  A    between atoms: C_15  and  O_16 
REMARK    8  A    between atoms: O_16  and  C_17 
ROOT
HETATM    1  C   UNL     1       7.285  30.085  58.233  1.00  0.00     0.049 A 
HETATM    2  C   UNL     1       6.306  30.628  57.408  1.00  0.00     0.136 A 
HETATM    3  N   UNL     1       5.628  29.922  56.471  1.00  0.00    -0.236 NA
HETATM    4  C   UNL     1       5.949  28.616  56.343  1.00  0.00     0.169 A 
HETATM    5  C   UNL     1       6.947  27.996  57.080  1.00  0.00     0.059 A 
HETATM    6  C   UNL     1       7.623  28.742  58.047  1.00  0.00     0.023 A 
ENDROOT
BRANCH   4   7
HETATM    7  O   UNL     1       5.298  27.837  55.396  1.00  0.00    -0.292 OA
BRANCH   7   8
HETATM    8  C   UNL     1       6.040  26.866  54.763  1.00  0.00     0.078 A 
HETATM    9  C   UNL     1       5.650  25.540  54.957  1.00  0.00     0.040 A 
HETATM   10  C   UNL     1       6.335  24.506  54.310  1.00  0.00     0.040 A 
HETATM   11  C   UNL     1       7.387  24.810  53.443  1.00  0.00     0.076 A 
HETATM   12  C   UNL     1       7.774  26.136  53.243  1.00  0.00     0.040 A 
HETATM   13  C   UNL     1       7.091  27.167  53.890  1.00  0.00     0.040 A 
BRANCH  11  14
HETATM   14  O   UNL     1       8.145  23.847  52.819  1.00  0.00    -0.311 OA
BRANCH  14  15
HETATM   15  C   UNL     1       8.398  22.673  53.492  1.00  0.00     0.076 A 
HETATM   16  C   UNL     1       9.060  22.611  54.721  1.00  0.00     0.037 A 
HETATM   17  C   UNL     1       9.226  21.380  55.359  1.00  0.00     0.003 A 
HETATM   18  C   UNL     1       8.716  20.218  54.780  1.00  0.00     0.000 A 
HETATM   19  C   UNL     1       8.035  20.284  53.564  1.00  0.00     0.003 A 
HETATM   20  C   UNL     1       7.872  21.512  52.925  1.00  0.00     0.037 A 
ENDBRANCH  14  15
ENDBRANCH  11  14
ENDBRANCH   7   8
ENDBRANCH   4   7
BRANCH   1  21
HETATM   21  C   UNL     1       7.915  30.958  59.250  1.00  0.00     0.253 C 
HETATM   22  N   UNL     1       7.984  30.468  60.536  1.00  0.00    -0.354 N 
HETATM   23  H   UNL     1       7.516  29.609  60.789  1.00  0.00     0.162 HD
HETATM   24  O   UNL     1       8.305  32.079  58.941  1.00  0.00    -0.268 OA
BRANCH  22  25
HETATM   25  C   UNL     1       8.523  31.274  61.624  1.00  0.00     0.154 C 
BRANCH  25  26
HETATM   26  C   UNL     1       7.439  32.114  62.316  1.00  0.00     0.132 C 
HETATM   27  C   UNL     1       7.924  32.648  63.654  1.00  0.00     0.041 C 
BRANCH  26  28
HETATM   28  O   UNL     1       6.286  31.299  62.555  1.00  0.00    -0.394 OA
HETATM   29  H   UNL     1       5.620  31.587  61.908  1.00  0.00     0.210 HD
ENDBRANCH  26  28
ENDBRANCH  25  26
ENDBRANCH  22  25
ENDBRANCH   1  21
TORSDOF 8
ENDMDL
MODEL 2
REMARK VINA RESULT:      -9.0      1.891      3.590
REMARK  8 active torsions:
REMARK  status: ('A' for Active; 'I' for Inactive)
REMARK    1  A    between atoms: C_2  and  O_3 
REMARK    2  A    between atoms: C_2  and  C_4 
REMARK    3  A    between atoms: C_4  and  N_5 
REMARK       I    between atoms: N_5  and  C_6 
REMARK    4  A    between atoms: C_6  and  C_7 
REMARK    5  A    between atoms: C_10  and  O_11 
REMARK    6  A    between atoms: O_11  and  C_12 
REMARK    7  A    between atoms: C_15  and  O_16 
REMARK    8  A    between atoms: O_16  and  C_17 
ROOT
HETATM    1  C   UNL     1       6.775  32.027  60.701  1.00  0.00     0.049 A 
HETATM    2  C   UNL     1       6.464  32.035  59.346  1.00  0.00     0.136 A 
HETATM    3  N   UNL     1       7.136  31.323  58.410  1.00  0.00    -0.236 NA
HETATM    4  C   UNL     1       8.176  30.577  58.843  1.00  0.00     0.169 A 
HETATM    5  C   UNL     1       8.598  30.545  60.164  1.00  0.00     0.059 A 
HETATM    6  C   UNL     1       7.881  31.278  61.111  1.00  0.00     0.023 A 
ENDROOT
BRANCH   4   7
HETATM    7  O   UNL     1       8.913  29.830  57.934  1.00  0.00    -0.292 OA
BRANCH   7   8
HETATM    8  C   UNL     1       8.226  28.909  57.176  1.00  0.00     0.078 A 
HETATM    9  C   UNL     1       8.372  28.992  55.790  1.00  0.00     0.040 A 
HETATM   10  C   UNL     1       7.736  28.061  54.962  1.00  0.00     0.040 A 
HETATM   11  C   UNL     1       6.985  27.029  55.530  1.00  0.00     0.076 A 
HETATM   12  C   UNL     1       6.844  26.942  56.915  1.00  0.00     0.040 A 
HETATM   13  C   UNL     1       7.478  27.871  57.741  1.00  0.00     0.040 A 
BRANCH  11  14
HETATM   14  O   UNL     1       6.283  26.115  54.780  1.00  0.00    -0.311 OA
BRANCH  14  15
HETATM   15  C   UNL     1       6.921  24.962  54.383  1.00  0.00     0.076 A 
HETATM   16  C   UNL     1       7.037  23.824  55.186  1.00  0.00     0.037 A 
HETATM   17  C   UNL     1       7.657  22.678  54.680  1.00  0.00     0.003 A 
HETATM   18  C   UNL     1       8.140  22.663  53.372  1.00  0.00     0.000 A 
HETATM   19  C   UNL     1       8.003  23.792  52.564  1.00  0.00     0.003 A 
HETATM   20  C   UNL     1       7.389  24.938  53.068  1.00  0.00     0.037 A 
ENDBRANCH  14  15
ENDBRANCH  11  14
ENDBRANCH   7   8
ENDBRANCH   4   7
BRANCH   1  21
HETATM   21  C   UNL     1       5.927  32.814  61.625  1.00  0.00     0.253 C 
HETATM   22  N   UNL     1       6.541  33.833  62.320  1.00  0.00    -0.354 N 
HETATM   23  H   UNL     1       7.544  33.952  62.289  1.00  0.00     0.162 HD
HETATM   24  O   UNL     1       4.747  32.519  61.778  1.00  0.00    -0.268 OA
BRANCH  22  25
HETATM   25  C   UNL     1       5.812  34.624  63.304  1.00  0.00     0.154 C 
BRANCH  25  26
HETATM   26  C   UNL     1       5.883  34.008  64.710  1.00  0.00     0.132 C 
HETATM   27  C   UNL     1       7.233  33.355  64.960  1.00  0.00     0.041 C 
BRANCH  26  28
HETATM   28  O   UNL     1       4.873  33.003  64.840  1.00  0.00    -0.394 OA
HETATM   29  H   UNL     1       4.789  32.833  65.794  1.00  0.00     0.210 HD
ENDBRANCH  26  28
ENDBRANCH  25  26
ENDBRANCH  22  25
ENDBRANCH   1  21
TORSDOF 8
ENDMDL
MODEL 3
REMARK VINA RESULT:      -8.6      4.128      7.853
REMARK  8 active torsions:
REMARK  status: ('A' for Active; 'I' for Inactive)
REMARK    1  A    between atoms: C_2  and  O_3 
REMARK    2  A    between atoms: C_2  and  C_4 
REMARK    3  A    between atoms: C_4  and  N_5 
REMARK       I    between atoms: N_5  and  C_6 
REMARK    4  A    between atoms: C_6  and  C_7 
REMARK    5  A    between atoms: C_10  and  O_11 
REMARK    6  A    between atoms: O_11  and  C_12 
REMARK    7  A    between atoms: C_15  and  O_16 
REMARK    8  A    between atoms: O_16  and  C_17 
ROOT
HETATM    1  C   UNL     1       4.382  28.542  52.006  1.00  0.00     0.049 A 
HETATM    2  C   UNL     1       5.743  28.345  52.212  1.00  0.00     0.136 A 
HETATM    3  N   UNL     1       6.311  28.202  53.434  1.00  0.00    -0.236 NA
HETATM    4  C   UNL     1       5.485  28.271  54.501  1.00  0.00     0.169 A 
HETATM    5  C   UNL     1       4.124  28.518  54.402  1.00  0.00     0.059 A 
HETATM    6  C   UNL     1       3.561  28.649  53.131  1.00  0.00     0.023 A 
ENDROOT
BRANCH   4   7
HETATM    7  O   UNL     1       6.004  28.141  55.782  1.00  0.00    -0.292 OA
BRANCH   7   8
HETATM    8  C   UNL     1       6.569  26.929  56.111  1.00  0.00     0.078 A 
HETATM    9  C   UNL     1       7.845  26.955  56.676  1.00  0.00     0.040 A 
HETATM   10  C   UNL     1       8.460  25.763  57.073  1.00  0.00     0.040 A 
HETATM   11  C   UNL     1       7.776  24.553  56.933  1.00  0.00     0.076 A 
HETATM   12  C   UNL     1       6.499  24.526  56.374  1.00  0.00     0.040 A 
HETATM   13  C   UNL     1       5.886  25.716  55.978  1.00  0.00     0.040 A 
BRANCH  11  14
HETATM   14  O   UNL     1       8.338  23.336  57.244  1.00  0.00    -0.311 OA
BRANCH  14  15
HETATM   15  C   UNL     1       8.450  22.392  56.249  1.00  0.00     0.076 A 
HETATM   16  C   UNL     1       8.860  22.684  54.945  1.00  0.00     0.037 A 
HETATM   17  C   UNL     1       8.996  21.652  54.013  1.00  0.00     0.003 A 
HETATM   18  C   UNL     1       8.743  20.333  54.387  1.00  0.00     0.000 A 
HETATM   19  C   UNL     1       8.356  20.040  55.695  1.00  0.00     0.003 A 
HETATM   20  C   UNL     1       8.215  21.069  56.626  1.00  0.00     0.037 A 
ENDBRANCH  14  15
ENDBRANCH  11  14
ENDBRANCH   7   8
ENDBRANCH   4   7
BRANCH   1  21
HETATM   21  C   UNL     1       3.885  28.633  50.614  1.00  0.00     0.253 C 
HETATM   22  N   UNL     1       3.411  27.472  50.043  1.00  0.00    -0.354 N 
HETATM   23  H   UNL     1       3.515  26.583  50.513  1.00  0.00     0.162 HD
HETATM   24  O   UNL     1       3.947  29.697  50.008  1.00  0.00    -0.268 OA
BRANCH  22  25
HETATM   25  C   UNL     1       2.962  27.439  48.657  1.00  0.00     0.154 C 
BRANCH  25  26
HETATM   26  C   UNL     1       3.852  26.545  47.780  1.00  0.00     0.132 C 
HETATM   27  C   UNL     1       5.148  27.249  47.410  1.00  0.00     0.041 C 
BRANCH  26  28
HETATM   28  O   UNL     1       3.158  26.227  46.569  1.00  0.00    -0.394 OA
HETATM   29  H   UNL     1       3.672  26.640  45.853  1.00  0.00     0.210 HD
ENDBRANCH  26  28
ENDBRANCH  25  26
ENDBRANCH  22  25
ENDBRANCH   1  21
TORSDOF 8
ENDMDL
MODEL 4
REMARK VINA RESULT:      -8.6      1.866      2.383
REMARK  8 active torsions:
REMARK  status: ('A' for Active; 'I' for Inactive)
REMARK    1  A    between atoms: C_2  and  O_3 
REMARK    2  A    between atoms: C_2  and  C_4 
REMARK    3  A    between atoms: C_4  and  N_5 
REMARK       I    between atoms: N_5  and  C_6 
REMARK    4  A    between atoms: C_6  and  C_7 
REMARK    5  A    between atoms: C_10  and  O_11 
REMARK    6  A    between atoms: O_11  and  C_12 
REMARK    7  A    between atoms: C_15  and  O_16 
REMARK    8  A    between atoms: O_16  and  C_17 
ROOT
HETATM    1  C   UNL     1       7.888  30.952  59.220  1.00  0.00     0.049 A 
HETATM    2  C   UNL     1       9.132  30.436  58.873  1.00  0.00     0.136 A 
HETATM    3  N   UNL     1       9.366  29.715  57.750  1.00  0.00    -0.236 NA
HETATM    4  C   UNL     1       8.308  29.486  56.942  1.00  0.00     0.169 A 
HETATM    5  C   UNL     1       7.018  29.911  57.228  1.00  0.00     0.059 A 
HETATM    6  C   UNL     1       6.806  30.663  58.385  1.00  0.00     0.023 A 
ENDROOT
BRANCH   4   7
HETATM    7  O   UNL     1       8.476  28.746  55.779  1.00  0.00    -0.292 OA
BRANCH   7   8
HETATM    8  C   UNL     1       7.997  27.456  55.781  1.00  0.00     0.078 A 
HETATM    9  C   UNL     1       7.276  27.044  54.658  1.00  0.00     0.040 A 
HETATM   10  C   UNL     1       6.797  25.733  54.576  1.00  0.00     0.040 A 
HETATM   11  C   UNL     1       7.072  24.830  55.605  1.00  0.00     0.076 A 
HETATM   12  C   UNL     1       7.797  25.238  56.725  1.00  0.00     0.040 A 
HETATM   13  C   UNL     1       8.275  26.547  56.807  1.00  0.00     0.040 A 
BRANCH  11  14
HETATM   14  O   UNL     1       6.583  23.544  55.624  1.00  0.00    -0.311 OA
BRANCH  14  15
HETATM   15  C   UNL     1       7.357  22.540  55.089  1.00  0.00     0.076 A 
HETATM   16  C   UNL     1       7.914  21.504  55.845  1.00  0.00     0.037 A 
HETATM   17  C   UNL     1       8.643  20.496  55.209  1.00  0.00     0.003 A 
HETATM   18  C   UNL     1       8.798  20.511  53.823  1.00  0.00     0.000 A 
HETATM   19  C   UNL     1       8.222  21.533  53.068  1.00  0.00     0.003 A 
HETATM   20  C   UNL     1       7.498  22.543  53.701  1.00  0.00     0.037 A 
ENDBRANCH  14  15
ENDBRANCH  11  14
ENDBRANCH   7   8
ENDBRANCH   4   7
BRANCH   1  21
HETATM   21  C   UNL     1       7.781  31.766  60.453  1.00  0.00     0.253 C 
HETATM   22  N   UNL     1       6.536  31.852  61.037  1.00  0.00    -0.354 N 
HETATM   23  H   UNL     1       5.719  31.478  60.574  1.00  0.00     0.162 HD
HETATM   24  O   UNL     1       8.762  32.362  60.882  1.00  0.00    -0.268 OA
BRANCH  22  25
HETATM   25  C   UNL     1       6.309  32.683  62.213  1.00  0.00     0.154 C 
BRANCH  25  26
HETATM   26  C   UNL     1       5.021  32.296  62.956  1.00  0.00     0.132 C 
HETATM   27  C   UNL     1       4.907  33.031  64.282  1.00  0.00     0.041 C 
BRANCH  26  28
HETATM   28  O   UNL     1       5.033  30.891  63.227  1.00  0.00    -0.394 OA
HETATM   29  H   UNL     1       5.020  30.454  62.358  1.00  0.00     0.210 HD
ENDBRANCH  26  28
ENDBRANCH  25  26
ENDBRANCH  22  25
ENDBRANCH   1  21
TORSDOF 8
ENDMDL
MODEL 5
REMARK VINA RESULT:      -8.5      6.002      9.721
REMARK  8 active torsions:
REMARK  status: ('A' for Active; 'I' for Inactive)
REMARK    1  A    between atoms: C_2  and  O_3 
REMARK    2  A    between atoms: C_2  and  C_4 
REMARK    3  A    between atoms: C_4  and  N_5 
REMARK       I    between atoms: N_5  and  C_6 
REMARK    4  A    between atoms: C_6  and  C_7 
REMARK    5  A    between atoms: C_10  and  O_11 
REMARK    6  A    between atoms: O_11  and  C_12 
REMARK    7  A    between atoms: C_15  and  O_16 
REMARK    8  A    between atoms: O_16  and  C_17 
ROOT
HETATM    1  C   UNL     1       3.271  27.281  48.547  1.00  0.00     0.049 A 
HETATM    2  C   UNL     1       4.477  26.619  48.751  1.00  0.00     0.136 A 
HETATM    3  N   UNL     1       5.287  26.832  49.816  1.00  0.00    -0.236 NA
HETATM    4  C   UNL     1       4.882  27.757  50.714  1.00  0.00     0.169 A 
HETATM    5  C   UNL     1       3.724  28.508  50.571  1.00  0.00     0.059 A 
HETATM    6  C   UNL     1       2.900  28.260  49.471  1.00  0.00     0.023 A 
ENDROOT
BRANCH   4   7
HETATM    7  O   UNL     1       5.669  28.030  51.824  1.00  0.00    -0.292 OA
BRANCH   7   8
HETATM    8  C   UNL     1       5.951  26.980  52.668  1.00  0.00     0.078 A 
HETATM    9  C   UNL     1       7.193  26.991  53.305  1.00  0.00     0.040 A 
HETATM   10  C   UNL     1       7.527  25.976  54.208  1.00  0.00     0.040 A 
HETATM   11  C   UNL     1       6.598  24.973  54.495  1.00  0.00     0.076 A 
HETATM   12  C   UNL     1       5.354  24.964  53.863  1.00  0.00     0.040 A 
HETATM   13  C   UNL     1       5.022  25.977  52.962  1.00  0.00     0.040 A 
BRANCH  11  14
HETATM   14  O   UNL     1       6.876  23.911  55.323  1.00  0.00    -0.311 OA
BRANCH  14  15
HETATM   15  C   UNL     1       7.350  22.748  54.762  1.00  0.00     0.076 A 
HETATM   16  C   UNL     1       7.637  22.603  53.402  1.00  0.00     0.037 A 
HETATM   17  C   UNL     1       8.167  21.401  52.928  1.00  0.00     0.003 A 
HETATM   18  C   UNL     1       8.428  20.354  53.813  1.00  0.00     0.000 A 
HETATM   19  C   UNL     1       8.163  20.507  55.173  1.00  0.00     0.003 A 
HETATM   20  C   UNL     1       7.630  21.706  55.648  1.00  0.00     0.037 A 
ENDBRANCH  14  15
ENDBRANCH  11  14
ENDBRANCH   7   8
ENDBRANCH   4   7
BRANCH   1  21
HETATM   21  C   UNL     1       2.458  26.917  47.364  1.00  0.00     0.253 C 
HETATM   22  N   UNL     1       1.280  27.607  47.181  1.00  0.00    -0.354 N 
HETATM   23  H   UNL     1       0.935  28.241  47.888  1.00  0.00     0.162 HD
HETATM   24  O   UNL     1       2.819  26.007  46.626  1.00  0.00    -0.268 OA
BRANCH  22  25
HETATM   25  C   UNL     1       0.373  27.280  46.087  1.00  0.00     0.154 C 
BRANCH  25  26
HETATM   26  C   UNL     1      -0.611  28.421  45.788  1.00  0.00     0.132 C 
HETATM   27  C   UNL     1      -0.215  29.696  46.514  1.00  0.00     0.041 C 
BRANCH  26  28
HETATM   28  O   UNL     1      -1.920  28.047  46.228  1.00  0.00    -0.394 OA
HETATM   29  H   UNL     1      -2.081  27.162  45.858  1.00  0.00     0.210 HD
ENDBRANCH  26  28
ENDBRANCH  25  26
ENDBRANCH  22  25
ENDBRANCH   1  21
TORSDOF 8
ENDMDL
MODEL 6
REMARK VINA RESULT:      -8.2      4.057      5.379
REMARK  8 active torsions:
REMARK  status: ('A' for Active; 'I' for Inactive)
REMARK    1  A    between atoms: C_2  and  O_3 
REMARK    2  A    between atoms: C_2  and  C_4 
REMARK    3  A    between atoms: C_4  and  N_5 
REMARK       I    between atoms: N_5  and  C_6 
REMARK    4  A    between atoms: C_6  and  C_7 
REMARK    5  A    between atoms: C_10  and  O_11 
REMARK    6  A    between atoms: O_11  and  C_12 
REMARK    7  A    between atoms: C_15  and  O_16 
REMARK    8  A    between atoms: O_16  and  C_17 
ROOT
HETATM    1  C   UNL     1       7.185  28.704  57.481  1.00  0.00     0.049 A 
HETATM    2  C   UNL     1       7.881  27.785  56.704  1.00  0.00     0.136 A 
HETATM    3  N   UNL     1       7.290  26.914  55.850  1.00  0.00    -0.236 NA
HETATM    4  C   UNL     1       5.941  26.952  55.778  1.00  0.00     0.169 A 
HETATM    5  C   UNL     1       5.156  27.795  56.551  1.00  0.00     0.059 A 
HETATM    6  C   UNL     1       5.789  28.692  57.414  1.00  0.00     0.023 A 
ENDROOT
BRANCH   4   7
HETATM    7  O   UNL     1       5.273  26.080  54.929  1.00  0.00    -0.292 OA
BRANCH   7   8
HETATM    8  C   UNL     1       5.235  26.409  53.593  1.00  0.00     0.078 A 
HETATM    9  C   UNL     1       5.316  25.359  52.677  1.00  0.00     0.040 A 
HETATM   10  C   UNL     1       5.241  25.619  51.305  1.00  0.00     0.040 A 
HETATM   11  C   UNL     1       5.048  26.929  50.859  1.00  0.00     0.076 A 
HETATM   12  C   UNL     1       4.961  27.979  51.774  1.00  0.00     0.040 A 
HETATM   13  C   UNL     1       5.036  27.719  53.143  1.00  0.00     0.040 A 
BRANCH  11  14
HETATM   14  O   UNL     1       5.026  27.270  49.526  1.00  0.00    -0.311 OA
BRANCH  14  15
HETATM   15  C   UNL     1       3.860  27.082  48.821  1.00  0.00     0.076 A 
HETATM   16  C   UNL     1       2.733  27.900  48.952  1.00  0.00     0.037 A 
HETATM   17  C   UNL     1       1.610  27.667  48.156  1.00  0.00     0.003 A 
HETATM   18  C   UNL     1       1.619  26.635  47.217  1.00  0.00     0.000 A 
HETATM   19  C   UNL     1       2.752  25.834  47.071  1.00  0.00     0.003 A 
HETATM   20  C   UNL     1       3.872  26.063  47.868  1.00  0.00     0.037 A 
ENDBRANCH  14  15
ENDBRANCH  11  14
ENDBRANCH   7   8
ENDBRANCH   4   7
BRANCH   1  21
HETATM   21  C   UNL     1       7.958  29.634  58.336  1.00  0.00     0.253 C 
HETATM   22  N   UNL     1       7.235  30.495  59.133  1.00  0.00    -0.354 N 
HETATM   23  H   UNL     1       6.231  30.568  59.041  1.00  0.00     0.162 HD
HETATM   24  O   UNL     1       9.182  29.645  58.282  1.00  0.00    -0.268 OA
BRANCH  22  25
HETATM   25  C   UNL     1       7.898  31.495  59.961  1.00  0.00     0.154 C 
BRANCH  25  26
HETATM   26  C   UNL     1       8.063  31.029  61.415  1.00  0.00     0.132 C 
HETATM   27  C   UNL     1       8.581  32.151  62.300  1.00  0.00     0.041 C 
BRANCH  26  28
HETATM   28  O   UNL     1       9.006  29.953  61.465  1.00  0.00    -0.394 OA
HETATM   29  H   UNL     1       8.547  29.218  61.905  1.00  0.00     0.210 HD
ENDBRANCH  26  28
ENDBRANCH  25  26
ENDBRANCH  22  25
ENDBRANCH   1  21
TORSDOF 8
ENDMDL
MODEL 7
REMARK VINA RESULT:      -8.2      2.537      3.630
REMARK  8 active torsions:
REMARK  status: ('A' for Active; 'I' for Inactive)
REMARK    1  A    between atoms: C_2  and  O_3 
REMARK    2  A    between atoms: C_2  and  C_4 
REMARK    3  A    between atoms: C_4  and  N_5 
REMARK       I    between atoms: N_5  and  C_6 
REMARK    4  A    between atoms: C_6  and  C_7 
REMARK    5  A    between atoms: C_10  and  O_11 
REMARK    6  A    between atoms: O_11  and  C_12 
REMARK    7  A    between atoms: C_15  and  O_16 
REMARK    8  A    between atoms: O_16  and  C_17 
ROOT
HETATM    1  C   UNL     1       6.783  31.998  60.422  1.00  0.00     0.049 A 
HETATM    2  C   UNL     1       6.109  32.140  59.214  1.00  0.00     0.136 A 
HETATM    3  N   UNL     1       6.451  31.492  58.075  1.00  0.00    -0.236 NA
HETATM    4  C   UNL     1       7.523  30.672  58.139  1.00  0.00     0.169 A 
HETATM    5  C   UNL     1       8.293  30.504  59.281  1.00  0.00     0.059 A 
HETATM    6  C   UNL     1       7.912  31.174  60.446  1.00  0.00     0.023 A 
ENDROOT
BRANCH   4   7
HETATM    7  O   UNL     1       7.932  29.984  57.005  1.00  0.00    -0.292 OA
BRANCH   7   8
HETATM    8  C   UNL     1       7.563  28.662  56.905  1.00  0.00     0.078 A 
HETATM    9  C   UNL     1       6.286  28.394  56.409  1.00  0.00     0.040 A 
HETATM   10  C   UNL     1       5.863  27.071  56.242  1.00  0.00     0.040 A 
HETATM   11  C   UNL     1       6.736  26.022  56.540  1.00  0.00     0.076 A 
HETATM   12  C   UNL     1       8.015  26.289  57.030  1.00  0.00     0.040 A 
HETATM   13  C   UNL     1       8.437  27.609  57.197  1.00  0.00     0.040 A 
BRANCH  11  14
HETATM   14  O   UNL     1       6.372  24.699  56.459  1.00  0.00    -0.311 OA
BRANCH  14  15
HETATM   15  C   UNL     1       6.836  23.953  55.400  1.00  0.00     0.076 A 
HETATM   16  C   UNL     1       6.672  24.321  54.062  1.00  0.00     0.037 A 
HETATM   17  C   UNL     1       7.223  23.530  53.051  1.00  0.00     0.003 A 
HETATM   18  C   UNL     1       7.953  22.386  53.378  1.00  0.00     0.000 A 
HETATM   19  C   UNL     1       8.136  22.033  54.715  1.00  0.00     0.003 A 
HETATM   20  C   UNL     1       7.582  22.819  55.724  1.00  0.00     0.037 A 
ENDBRANCH  14  15
ENDBRANCH  11  14
ENDBRANCH   7   8
ENDBRANCH   4   7
BRANCH   1  21
HETATM   21  C   UNL     1       6.274  32.728  61.605  1.00  0.00     0.253 C 
HETATM   22  N   UNL     1       4.919  32.656  61.847  1.00  0.00    -0.354 N 
HETATM   23  H   UNL     1       4.294  32.228  61.178  1.00  0.00     0.162 HD
HETATM   24  O   UNL     1       7.040  33.394  62.292  1.00  0.00    -0.268 OA
BRANCH  22  25
HETATM   25  C   UNL     1       4.307  33.393  62.946  1.00  0.00     0.154 C 
BRANCH  25  26
HETATM   26  C   UNL     1       2.971  34.034  62.541  1.00  0.00     0.132 C 
HETATM   27  C   UNL     1       3.014  35.545  62.698  1.00  0.00     0.041 C 
BRANCH  26  28
HETATM   28  O   UNL     1       1.928  33.530  63.383  1.00  0.00    -0.394 OA
HETATM   29  H   UNL     1       1.169  33.370  62.797  1.00  0.00     0.210 HD
ENDBRANCH  26  28
ENDBRANCH  25  26
ENDBRANCH  22  25
ENDBRANCH   1  21
TORSDOF 8
ENDMDL
MODEL 8
REMARK VINA RESULT:      -7.9      3.154      4.764
REMARK  8 active torsions:
REMARK  status: ('A' for Active; 'I' for Inactive)
REMARK    1  A    between atoms: C_2  and  O_3 
REMARK    2  A    between atoms: C_2  and  C_4 
REMARK    3  A    between atoms: C_4  and  N_5 
REMARK       I    between atoms: N_5  and  C_6 
REMARK    4  A    between atoms: C_6  and  C_7 
REMARK    5  A    between atoms: C_10  and  O_11 
REMARK    6  A    between atoms: O_11  and  C_12 
REMARK    7  A    between atoms: C_15  and  O_16 
REMARK    8  A    between atoms: O_16  and  C_17 
ROOT
HETATM    1  C   UNL     1       7.511  29.064  57.492  1.00  0.00     0.049 A 
HETATM    2  C   UNL     1       7.572  29.086  56.103  1.00  0.00     0.136 A 
HETATM    3  N   UNL     1       7.625  27.975  55.329  1.00  0.00    -0.236 NA
HETATM    4  C   UNL     1       7.630  26.786  55.971  1.00  0.00     0.169 A 
HETATM    5  C   UNL     1       7.627  26.661  57.353  1.00  0.00     0.059 A 
HETATM    6  C   UNL     1       7.559  27.820  58.127  1.00  0.00     0.023 A 
ENDROOT
BRANCH   4   7
HETATM    7  O   UNL     1       7.693  25.609  55.238  1.00  0.00    -0.292 OA
BRANCH   7   8
HETATM    8  C   UNL     1       6.982  25.564  54.059  1.00  0.00     0.078 A 
HETATM    9  C   UNL     1       5.596  25.702  54.147  1.00  0.00     0.040 A 
HETATM   10  C   UNL     1       4.818  25.708  52.985  1.00  0.00     0.040 A 
HETATM   11  C   UNL     1       5.438  25.612  51.737  1.00  0.00     0.076 A 
HETATM   12  C   UNL     1       6.824  25.481  51.648  1.00  0.00     0.040 A 
HETATM   13  C   UNL     1       7.600  25.474  52.808  1.00  0.00     0.040 A 
BRANCH  11  14
HETATM   14  O   UNL     1       4.737  25.550  50.555  1.00  0.00    -0.311 OA
BRANCH  14  15
HETATM   15  C   UNL     1       4.793  26.627  49.701  1.00  0.00     0.076 A 
HETATM   16  C   UNL     1       5.159  27.916  50.101  1.00  0.00     0.037 A 
HETATM   17  C   UNL     1       5.241  28.939  49.153  1.00  0.00     0.003 A 
HETATM   18  C   UNL     1       4.978  28.672  47.810  1.00  0.00     0.000 A 
HETATM   19  C   UNL     1       4.636  27.381  47.409  1.00  0.00     0.003 A 
HETATM   20  C   UNL     1       4.549  26.359  48.353  1.00  0.00     0.037 A 
ENDBRANCH  14  15
ENDBRANCH  11  14
ENDBRANCH   7   8
ENDBRANCH   4   7
BRANCH   1  21
HETATM   21  C   UNL     1       7.406  30.352  58.215  1.00  0.00     0.253 C 
HETATM   22  N   UNL     1       8.117  30.468  59.390  1.00  0.00    -0.354 N 
HETATM   23  H   UNL     1       8.583  29.668  59.795  1.00  0.00     0.162 HD
HETATM   24  O   UNL     1       6.677  31.239  57.787  1.00  0.00    -0.268 OA
BRANCH  22  25
HETATM   25  C   UNL     1       8.028  31.668  60.212  1.00  0.00     0.154 C 
BRANCH  25  26
HETATM   26  C   UNL     1       8.272  31.372  61.700  1.00  0.00     0.132 C 
HETATM   27  C   UNL     1       9.386  30.353  61.885  1.00  0.00     0.041 C 
BRANCH  26  28
HETATM   28  O   UNL     1       7.078  30.834  62.279  1.00  0.00    -0.394 OA
HETATM   29  H   UNL     1       6.941  29.972  61.850  1.00  0.00     0.210 HD
ENDBRANCH  26  28
ENDBRANCH  25  26
ENDBRANCH  22  25
ENDBRANCH   1  21
TORSDOF 8
ENDMDL
MODEL 9
REMARK VINA RESULT:      -7.7      7.017     10.791
REMARK  8 active torsions:
REMARK  status: ('A' for Active; 'I' for Inactive)
REMARK    1  A    between atoms: C_2  and  O_3 
REMARK    2  A    between atoms: C_2  and  C_4 
REMARK    3  A    between atoms: C_4  and  N_5 
REMARK       I    between atoms: N_5  and  C_6 
REMARK    4  A    between atoms: C_6  and  C_7 
REMARK    5  A    between atoms: C_10  and  O_11 
REMARK    6  A    between atoms: O_11  and  C_12 
REMARK    7  A    between atoms: C_15  and  O_16 
REMARK    8  A    between atoms: O_16  and  C_17 
ROOT
HETATM    1  C   UNL     1       2.106  27.962  47.986  1.00  0.00     0.049 A 
HETATM    2  C   UNL     1       2.468  28.514  49.209  1.00  0.00     0.136 A 
HETATM    3  N   UNL     1       3.611  28.209  49.870  1.00  0.00    -0.236 NA
HETATM    4  C   UNL     1       4.425  27.301  49.290  1.00  0.00     0.169 A 
HETATM    5  C   UNL     1       4.127  26.654  48.099  1.00  0.00     0.059 A 
HETATM    6  C   UNL     1       2.950  26.996  47.431  1.00  0.00     0.023 A 
ENDROOT
BRANCH   4   7
HETATM    7  O   UNL     1       5.608  26.936  49.919  1.00  0.00    -0.292 OA
BRANCH   7   8
HETATM    8  C   UNL     1       5.527  26.560  51.240  1.00  0.00     0.078 A 
HETATM    9  C   UNL     1       5.020  25.287  51.509  1.00  0.00     0.040 A 
HETATM   10  C   UNL     1       4.949  24.826  52.828  1.00  0.00     0.040 A 
HETATM   11  C   UNL     1       5.421  25.630  53.868  1.00  0.00     0.076 A 
HETATM   12  C   UNL     1       5.934  26.899  53.600  1.00  0.00     0.040 A 
HETATM   13  C   UNL     1       6.003  27.360  52.284  1.00  0.00     0.040 A 
BRANCH  11  14
HETATM   14  O   UNL     1       5.329  25.270  55.193  1.00  0.00    -0.311 OA
BRANCH  14  15
HETATM   15  C   UNL     1       6.480  24.914  55.858  1.00  0.00     0.076 A 
HETATM   16  C   UNL     1       7.300  23.849  55.474  1.00  0.00     0.037 A 
HETATM   17  C   UNL     1       8.479  23.593  56.177  1.00  0.00     0.003 A 
HETATM   18  C   UNL     1       8.849  24.409  57.246  1.00  0.00     0.000 A 
HETATM   19  C   UNL     1       8.041  25.485  57.614  1.00  0.00     0.003 A 
HETATM   20  C   UNL     1       6.861  25.740  56.916  1.00  0.00     0.037 A 
ENDBRANCH  14  15
ENDBRANCH  11  14
ENDBRANCH   7   8
ENDBRANCH   4   7
BRANCH   1  21
HETATM   21  C   UNL     1       0.852  28.421  47.347  1.00  0.00     0.253 C 
HETATM   22  N   UNL     1       0.247  27.553  46.464  1.00  0.00    -0.354 N 
HETATM   23  H   UNL     1       0.707  26.700  46.178  1.00  0.00     0.162 HD
HETATM   24  O   UNL     1       0.420  29.545  47.578  1.00  0.00    -0.268 OA
BRANCH  22  25
HETATM   25  C   UNL     1      -0.954  27.934  45.731  1.00  0.00     0.154 C 
BRANCH  25  26
HETATM   26  C   UNL     1      -0.771  27.806  44.211  1.00  0.00     0.132 C 
HETATM   27  C   UNL     1      -1.582  28.855  43.467  1.00  0.00     0.041 C 
BRANCH  26  28
HETATM   28  O   UNL     1      -1.220  26.515  43.787  1.00  0.00    -0.394 OA
HETATM   29  H   UNL     1      -1.703  26.662  42.955  1.00  0.00     0.210 HD
ENDBRANCH  26  28
ENDBRANCH  25  26
ENDBRANCH  22  25
ENDBRANCH   1  21
TORSDOF 8
ENDMDL
MODEL 10
REMARK VINA RESULT:      -7.6      4.092      6.465
REMARK  8 active torsions:
REMARK  status: ('A' for Active; 'I' for Inactive)
REMARK    1  A    between atoms: C_2  and  O_3 
REMARK    2  A    between atoms: C_2  and  C_4 
REMARK    3  A    between atoms: C_4  and  N_5 
REMARK       I    between atoms: N_5  and  C_6 
REMARK    4  A    between atoms: C_6  and  C_7 
REMARK    5  A    between atoms: C_10  and  O_11 
REMARK    6  A    between atoms: O_11  and  C_12 
REMARK    7  A    between atoms: C_15  and  O_16 
REMARK    8  A    between atoms: O_16  and  C_17 
ROOT
HETATM    1  C   UNL     1       4.060  30.438  53.197  1.00  0.00     0.049 A 
HETATM    2  C   UNL     1       4.329  30.882  54.486  1.00  0.00     0.136 A 
HETATM    3  N   UNL     1       4.468  30.063  55.556  1.00  0.00    -0.236 NA
HETATM    4  C   UNL     1       4.319  28.739  55.333  1.00  0.00     0.169 A 
HETATM    5  C   UNL     1       3.996  28.202  54.095  1.00  0.00     0.059 A 
HETATM    6  C   UNL     1       3.871  29.066  53.006  1.00  0.00     0.023 A 
ENDROOT
BRANCH   4   7
HETATM    7  O   UNL     1       4.440  27.845  56.388  1.00  0.00    -0.292 OA
BRANCH   7   8
HETATM    8  C   UNL     1       5.463  26.927  56.319  1.00  0.00     0.078 A 
HETATM    9  C   UNL     1       5.178  25.624  56.733  1.00  0.00     0.040 A 
HETATM   10  C   UNL     1       6.160  24.632  56.650  1.00  0.00     0.040 A 
HETATM   11  C   UNL     1       7.413  24.942  56.117  1.00  0.00     0.076 A 
HETATM   12  C   UNL     1       7.698  26.242  55.697  1.00  0.00     0.040 A 
HETATM   13  C   UNL     1       6.718  27.232  55.782  1.00  0.00     0.040 A 
BRANCH  11  14
HETATM   14  O   UNL     1       8.447  24.036  56.060  1.00  0.00    -0.311 OA
BRANCH  14  15
HETATM   15  C   UNL     1       8.293  22.914  55.279  1.00  0.00     0.076 A 
HETATM   16  C   UNL     1       8.120  21.627  55.797  1.00  0.00     0.037 A 
HETATM   17  C   UNL     1       7.917  20.551  54.929  1.00  0.00     0.003 A 
HETATM   18  C   UNL     1       7.868  20.763  53.551  1.00  0.00     0.000 A 
HETATM   19  C   UNL     1       8.018  22.050  53.037  1.00  0.00     0.003 A 
HETATM   20  C   UNL     1       8.224  23.125  53.901  1.00  0.00     0.037 A 
ENDBRANCH  14  15
ENDBRANCH  11  14
ENDBRANCH   7   8
ENDBRANCH   4   7
BRANCH   1  21
HETATM   21  C   UNL     1       3.981  31.437  52.107  1.00  0.00     0.253 C 
HETATM   22  N   UNL     1       5.172  31.971  51.663  1.00  0.00    -0.354 N 
HETATM   23  H   UNL     1       6.039  31.778  52.146  1.00  0.00     0.162 HD
HETATM   24  O   UNL     1       2.890  31.787  51.671  1.00  0.00    -0.268 OA
BRANCH  22  25
HETATM   25  C   UNL     1       5.200  33.011  50.643  1.00  0.00     0.154 C 
BRANCH  25  26
HETATM   26  C   UNL     1       5.836  32.522  49.333  1.00  0.00     0.132 C 
HETATM   27  C   UNL     1       4.775  32.157  48.307  1.00  0.00     0.041 C 
BRANCH  26  28
HETATM   28  O   UNL     1       6.621  31.354  49.593  1.00  0.00    -0.394 OA
HETATM   29  H   UNL     1       7.549  31.643  49.545  1.00  0.00     0.210 HD
ENDBRANCH  26  28
ENDBRANCH  25  26
ENDBRANCH  22  25
ENDBRANCH   1  21
TORSDOF 8
ENDMDL
