MODEL 1
REMARK VINA RESULT:     -12.5      0.000      0.000
REMARK  7 active torsions:
REMARK  status: ('A' for Active; 'I' for Inactive)
REMARK    1  A    between atoms: C_2  and  C_3 
REMARK    2  A    between atoms: N_16  and  C_17 
REMARK    3  A    between atoms: C_17  and  C_18 
REMARK       I    between atoms: C_18  and  N_19 
REMARK    4  A    between atoms: N_19  and  C_20 
REMARK    5  A    between atoms: C_21  and  C_22 
REMARK       I    between atoms: C_22  and  N_23 
REMARK    6  A    between atoms: N_23  and  C_24 
REMARK    7  A    between atoms: C_24  and  C_25 
ROOT
HETATM    1  C   UNL     1       5.127  28.096  56.776  1.00  0.00     0.240 C 
ENDROOT
BRANCH   1   2
HETATM    2  N   UNL     1       5.798  26.816  56.647  1.00  0.00    -0.259 N 
HETATM    3  C   UNL     1       5.403  25.683  57.284  1.00  0.00     0.326 A 
HETATM    4  N   UNL     1       6.286  24.677  56.986  1.00  0.00    -0.321 N 
HETATM    5  O   UNL     1       4.407  25.537  57.969  1.00  0.00    -0.247 OA
HETATM    6  C   UNL     1       7.418  25.135  56.214  1.00  0.00     0.140 A 
HETATM    7  H   UNL     1       6.205  23.758  57.399  1.00  0.00     0.165 HD
HETATM    8  C   UNL     1       8.634  25.101  57.159  1.00  0.00     0.055 C 
HETATM    9  C   UNL     1       6.991  26.612  56.008  1.00  0.00     0.261 A 
HETATM   10  O   UNL     1       7.635  27.469  55.419  1.00  0.00    -0.270 OA
BRANCH   6  11
HETATM   11  C   UNL     1       7.644  24.430  54.864  1.00  0.00    -0.010 A 
HETATM   12  C   UNL     1       7.818  23.011  54.653  1.00  0.00    -0.017 A 
HETATM   13  C   UNL     1       8.032  22.548  53.319  1.00  0.00    -0.025 A 
HETATM   14  C   UNL     1       7.788  21.989  55.642  1.00  0.00     0.013 A 
HETATM   15  C   UNL     1       8.226  21.185  53.039  1.00  0.00     0.012 A 
HETATM   16  C   UNL     1       8.042  23.437  52.241  1.00  0.00     0.012 A 
HETATM   17  C   UNL     1       8.204  20.230  54.046  1.00  0.00     0.001 A 
HETATM   18  C   UNL     1       7.981  20.632  55.350  1.00  0.00     0.001 A 
HETATM   19  C   UNL     1       7.826  24.790  52.435  1.00  0.00     0.002 A 
HETATM   20  C   UNL     1       7.621  25.272  53.721  1.00  0.00     0.011 A 
ENDBRANCH   6  11
ENDBRANCH   1   2
BRANCH   1  21
HETATM   21  C   UNL     1       6.079  29.270  57.027  1.00  0.00     0.240 C 
HETATM   22  N   UNL     1       6.900  29.143  58.140  1.00  0.00    -0.325 N 
HETATM   23  H   UNL     1       7.077  28.176  58.381  1.00  0.00     0.169 HD
HETATM   24  O   UNL     1       6.041  30.272  56.310  1.00  0.00    -0.271 OA
BRANCH  22  25
HETATM   25  C   UNL     1       8.015  30.000  58.313  1.00  0.00     0.050 A 
HETATM   26  C   UNL     1       8.038  31.166  59.097  1.00  0.00     0.058 A 
HETATM   27  C   UNL     1       9.233  31.907  59.190  1.00  0.00     0.019 A 
HETATM   28  C   UNL     1      10.385  31.504  58.516  1.00  0.00     0.001 A 
HETATM   29  C   UNL     1      10.370  30.336  57.766  1.00  0.00     0.002 A 
HETATM   30  C   UNL     1       9.198  29.582  57.676  1.00  0.00     0.030 A 
BRANCH  26  31
HETATM   31  C   UNL     1       6.962  31.622  60.017  1.00  0.00     0.254 C 
HETATM   32  N   UNL     1       7.171  31.482  61.365  1.00  0.00    -0.351 N 
HETATM   33  H   UNL     1       8.006  30.985  61.670  1.00  0.00     0.163 HD
HETATM   34  O   UNL     1       5.900  32.014  59.542  1.00  0.00    -0.268 OA
BRANCH  32  35
HETATM   35  C   UNL     1       6.074  31.653  62.290  1.00  0.00     0.187 C 
BRANCH  35  36
HETATM   36  C   UNL     1       6.457  32.535  63.421  1.00  0.00     0.070 A 
HETATM   37  O   UNL     1       5.432  32.962  64.217  1.00  0.00    -0.325 OA
HETATM   38  C   UNL     1       5.978  33.715  65.205  1.00  0.00     0.142 A 
HETATM   39  C   UNL     1       7.342  33.783  65.062  1.00  0.00     0.027 A 
HETATM   40  C   UNL     1       7.655  33.014  63.914  1.00  0.00     0.036 A 
ENDBRANCH  35  36
ENDBRANCH  32  35
ENDBRANCH  26  31
ENDBRANCH  22  25
ENDBRANCH   1  21
TORSDOF 7
ENDMDL
MODEL 2
REMARK VINA RESULT:     -11.6      2.393      4.076
REMARK  7 active torsions:
REMARK  status: ('A' for Active; 'I' for Inactive)
REMARK    1  A    between atoms: C_2  and  C_3 
REMARK    2  A    between atoms: N_16  and  C_17 
REMARK    3  A    between atoms: C_17  and  C_18 
REMARK       I    between atoms: C_18  and  N_19 
REMARK    4  A    between atoms: N_19  and  C_20 
REMARK    5  A    between atoms: C_21  and  C_22 
REMARK       I    between atoms: C_22  and  N_23 
REMARK    6  A    between atoms: N_23  and  C_24 
REMARK    7  A    between atoms: C_24  and  C_25 
ROOT
HETATM    1  C   UNL     1       4.520  27.727  53.562  1.00  0.00     0.240 C 
ENDROOT
BRANCH   1   2
HETATM    2  N   UNL     1       5.733  26.930  53.529  1.00  0.00    -0.259 N 
HETATM    3  C   UNL     1       6.980  27.451  53.393  1.00  0.00     0.326 A 
HETATM    4  N   UNL     1       7.885  26.421  53.344  1.00  0.00    -0.321 N 
HETATM    5  O   UNL     1       7.284  28.629  53.369  1.00  0.00    -0.247 OA
HETATM    6  C   UNL     1       7.256  25.121  53.318  1.00  0.00     0.140 A 
HETATM    7  H   UNL     1       8.872  26.587  53.195  1.00  0.00     0.165 HD
HETATM    8  C   UNL     1       7.461  24.566  51.895  1.00  0.00     0.055 C 
HETATM    9  C   UNL     1       5.776  25.564  53.469  1.00  0.00     0.261 A 
HETATM   10  O   UNL     1       4.804  24.822  53.479  1.00  0.00    -0.270 OA
BRANCH   6  11
HETATM   11  C   UNL     1       7.662  24.151  54.442  1.00  0.00    -0.010 A 
HETATM   12  C   UNL     1       7.984  22.750  54.295  1.00  0.00    -0.017 A 
HETATM   13  C   UNL     1       8.326  22.010  55.468  1.00  0.00    -0.025 A 
HETATM   14  C   UNL     1       8.016  22.001  53.086  1.00  0.00     0.013 A 
HETATM   15  C   UNL     1       8.633  20.640  55.405  1.00  0.00     0.012 A 
HETATM   16  C   UNL     1       8.377  22.627  56.720  1.00  0.00     0.012 A 
HETATM   17  C   UNL     1       8.633  19.953  54.199  1.00  0.00     0.001 A 
HETATM   18  C   UNL     1       8.327  20.636  53.036  1.00  0.00     0.001 A 
HETATM   19  C   UNL     1       8.118  23.979  56.855  1.00  0.00     0.002 A 
HETATM   20  C   UNL     1       7.777  24.725  55.735  1.00  0.00     0.011 A 
ENDBRANCH   6  11
ENDBRANCH   1   2
BRANCH   1  21
HETATM   21  C   UNL     1       4.405  28.628  54.796  1.00  0.00     0.240 C 
HETATM   22  N   UNL     1       4.943  29.900  54.656  1.00  0.00    -0.325 N 
HETATM   23  H   UNL     1       4.949  30.214  53.693  1.00  0.00     0.169 HD
HETATM   24  O   UNL     1       3.924  28.195  55.845  1.00  0.00    -0.271 OA
BRANCH  22  25
HETATM   25  C   UNL     1       4.642  30.916  55.597  1.00  0.00     0.050 A 
HETATM   26  C   UNL     1       5.294  31.112  56.827  1.00  0.00     0.058 A 
HETATM   27  C   UNL     1       4.896  32.183  57.650  1.00  0.00     0.019 A 
HETATM   28  C   UNL     1       3.869  33.045  57.268  1.00  0.00     0.001 A 
HETATM   29  C   UNL     1       3.246  32.868  56.039  1.00  0.00     0.002 A 
HETATM   30  C   UNL     1       3.639  31.821  55.204  1.00  0.00     0.030 A 
BRANCH  26  31
HETATM   31  C   UNL     1       6.518  30.405  57.289  1.00  0.00     0.254 C 
HETATM   32  N   UNL     1       6.813  30.445  58.628  1.00  0.00    -0.351 N 
HETATM   33  H   UNL     1       6.238  31.035  59.226  1.00  0.00     0.163 HD
HETATM   34  O   UNL     1       7.263  29.898  56.455  1.00  0.00    -0.268 OA
BRANCH  32  35
HETATM   35  C   UNL     1       8.109  30.014  59.098  1.00  0.00     0.187 C 
BRANCH  35  36
HETATM   36  C   UNL     1       8.603  30.887  60.191  1.00  0.00     0.070 A 
HETATM   37  O   UNL     1       7.947  30.777  61.385  1.00  0.00    -0.325 OA
HETATM   38  C   UNL     1       8.559  31.615  62.259  1.00  0.00     0.142 A 
HETATM   39  C   UNL     1       9.604  32.267  61.650  1.00  0.00     0.027 A 
HETATM   40  C   UNL     1       9.639  31.793  60.316  1.00  0.00     0.036 A 
ENDBRANCH  35  36
ENDBRANCH  32  35
ENDBRANCH  26  31
ENDBRANCH  22  25
ENDBRANCH   1  21
TORSDOF 7
ENDMDL
MODEL 3
REMARK VINA RESULT:     -11.4      1.474      2.447
REMARK  7 active torsions:
REMARK  status: ('A' for Active; 'I' for Inactive)
REMARK    1  A    between atoms: C_2  and  C_3 
REMARK    2  A    between atoms: N_16  and  C_17 
REMARK    3  A    between atoms: C_17  and  C_18 
REMARK       I    between atoms: C_18  and  N_19 
REMARK    4  A    between atoms: N_19  and  C_20 
REMARK    5  A    between atoms: C_21  and  C_22 
REMARK       I    between atoms: C_22  and  N_23 
REMARK    6  A    between atoms: N_23  and  C_24 
REMARK    7  A    between atoms: C_24  and  C_25 
ROOT
HETATM    1  C   UNL     1       4.585  29.149  56.210  1.00  0.00     0.240 C 
ENDROOT
BRANCH   1   2
HETATM    2  N   UNL     1       5.217  28.062  55.485  1.00  0.00    -0.259 N 
HETATM    3  C   UNL     1       5.769  28.191  54.251  1.00  0.00     0.326 A 
HETATM    4  N   UNL     1       6.223  26.963  53.839  1.00  0.00    -0.321 N 
HETATM    5  O   UNL     1       5.902  29.218  53.611  1.00  0.00    -0.247 OA
HETATM    6  C   UNL     1       5.874  25.901  54.753  1.00  0.00     0.140 A 
HETATM    7  H   UNL     1       6.627  26.826  52.922  1.00  0.00     0.165 HD
HETATM    8  C   UNL     1       4.789  25.060  54.051  1.00  0.00     0.055 C 
HETATM    9  C   UNL     1       5.202  26.747  55.866  1.00  0.00     0.261 A 
HETATM   10  O   UNL     1       4.694  26.312  56.890  1.00  0.00    -0.270 OA
BRANCH   6  11
HETATM   11  C   UNL     1       7.049  25.079  55.315  1.00  0.00    -0.010 A 
HETATM   12  C   UNL     1       7.653  23.915  54.707  1.00  0.00    -0.017 A 
HETATM   13  C   UNL     1       8.731  23.278  55.394  1.00  0.00    -0.025 A 
HETATM   14  C   UNL     1       7.301  23.318  53.465  1.00  0.00     0.013 A 
HETATM   15  C   UNL     1       9.356  22.132  54.874  1.00  0.00     0.012 A 
HETATM   16  C   UNL     1       9.211  23.782  56.606  1.00  0.00     0.012 A 
HETATM   17  C   UNL     1       8.960  21.581  53.663  1.00  0.00     0.001 A 
HETATM   18  C   UNL     1       7.933  22.177  52.955  1.00  0.00     0.001 A 
HETATM   19  C   UNL     1       8.666  24.925  57.164  1.00  0.00     0.002 A 
HETATM   20  C   UNL     1       7.613  25.564  56.523  1.00  0.00     0.011 A 
ENDBRANCH   6  11
ENDBRANCH   1   2
BRANCH   1  21
HETATM   21  C   UNL     1       5.575  30.170  56.779  1.00  0.00     0.240 C 
HETATM   22  N   UNL     1       6.235  29.778  57.936  1.00  0.00    -0.325 N 
HETATM   23  H   UNL     1       6.313  28.771  58.014  1.00  0.00     0.169 HD
HETATM   24  O   UNL     1       5.699  31.280  56.258  1.00  0.00    -0.271 OA
BRANCH  22  25
HETATM   25  C   UNL     1       7.375  30.486  58.390  1.00  0.00     0.050 A 
HETATM   26  C   UNL     1       7.362  31.575  59.280  1.00  0.00     0.058 A 
HETATM   27  C   UNL     1       8.584  32.166  59.657  1.00  0.00     0.019 A 
HETATM   28  C   UNL     1       9.798  31.694  59.161  1.00  0.00     0.001 A 
HETATM   29  C   UNL     1       9.811  30.600  58.306  1.00  0.00     0.002 A 
HETATM   30  C   UNL     1       8.611  29.993  57.934  1.00  0.00     0.030 A 
BRANCH  26  31
HETATM   31  C   UNL     1       6.181  32.071  60.036  1.00  0.00     0.254 C 
HETATM   32  N   UNL     1       6.176  31.903  61.397  1.00  0.00    -0.351 N 
HETATM   33  H   UNL     1       6.931  31.361  61.814  1.00  0.00     0.163 HD
HETATM   34  O   UNL     1       5.224  32.523  59.414  1.00  0.00    -0.268 OA
BRANCH  32  35
HETATM   35  C   UNL     1       4.962  32.117  62.149  1.00  0.00     0.187 C 
BRANCH  35  36
HETATM   36  C   UNL     1       5.172  33.095  63.245  1.00  0.00     0.070 A 
HETATM   37  O   UNL     1       4.742  32.706  64.482  1.00  0.00    -0.325 OA
HETATM   38  C   UNL     1       5.052  33.704  65.348  1.00  0.00     0.142 A 
HETATM   39  C   UNL     1       5.678  34.734  64.690  1.00  0.00     0.027 A 
HETATM   40  C   UNL     1       5.764  34.340  63.332  1.00  0.00     0.036 A 
ENDBRANCH  35  36
ENDBRANCH  32  35
ENDBRANCH  26  31
ENDBRANCH  22  25
ENDBRANCH   1  21
TORSDOF 7
ENDMDL
MODEL 4
REMARK VINA RESULT:     -11.3      2.028      3.025
REMARK  7 active torsions:
REMARK  status: ('A' for Active; 'I' for Inactive)
REMARK    1  A    between atoms: C_2  and  C_3 
REMARK    2  A    between atoms: N_16  and  C_17 
REMARK    3  A    between atoms: C_17  and  C_18 
REMARK       I    between atoms: C_18  and  N_19 
REMARK    4  A    between atoms: N_19  and  C_20 
REMARK    5  A    between atoms: C_21  and  C_22 
REMARK       I    between atoms: C_22  and  N_23 
REMARK    6  A    between atoms: N_23  and  C_24 
REMARK    7  A    between atoms: C_24  and  C_25 
ROOT
HETATM    1  C   UNL     1       5.985  28.459  56.322  1.00  0.00     0.240 C 
ENDROOT
BRANCH   1   2
HETATM    2  N   UNL     1       6.471  27.321  55.565  1.00  0.00    -0.259 N 
HETATM    3  C   UNL     1       7.372  27.410  54.553  1.00  0.00     0.326 A 
HETATM    4  N   UNL     1       7.566  26.161  54.021  1.00  0.00    -0.321 N 
HETATM    5  O   UNL     1       7.968  28.407  54.188  1.00  0.00    -0.247 OA
HETATM    6  C   UNL     1       6.682  25.167  54.586  1.00  0.00     0.140 A 
HETATM    7  H   UNL     1       8.164  26.010  53.219  1.00  0.00     0.165 HD
HETATM    8  C   UNL     1       5.661  24.815  53.487  1.00  0.00     0.055 C 
HETATM    9  C   UNL     1       5.979  26.047  55.654  1.00  0.00     0.261 A 
HETATM   10  O   UNL     1       5.093  25.680  56.414  1.00  0.00    -0.270 OA
BRANCH   6  11
HETATM   11  C   UNL     1       7.363  23.948  55.234  1.00  0.00    -0.010 A 
HETATM   12  C   UNL     1       7.732  22.716  54.573  1.00  0.00    -0.017 A 
HETATM   13  C   UNL     1       8.346  21.690  55.353  1.00  0.00    -0.025 A 
HETATM   14  C   UNL     1       7.564  22.400  53.197  1.00  0.00     0.013 A 
HETATM   15  C   UNL     1       8.715  20.459  54.784  1.00  0.00     0.012 A 
HETATM   16  C   UNL     1       8.612  21.879  56.712  1.00  0.00     0.012 A 
HETATM   17  C   UNL     1       8.512  20.197  53.436  1.00  0.00     0.001 A 
HETATM   18  C   UNL     1       7.939  21.171  52.639  1.00  0.00     0.001 A 
HETATM   19  C   UNL     1       8.305  23.076  57.334  1.00  0.00     0.002 A 
HETATM   20  C   UNL     1       7.702  24.092  56.605  1.00  0.00     0.011 A 
ENDBRANCH   6  11
ENDBRANCH   1   2
BRANCH   1  21
HETATM   21  C   UNL     1       6.960  28.947  57.398  1.00  0.00     0.240 C 
HETATM   22  N   UNL     1       7.205  30.314  57.402  1.00  0.00    -0.325 N 
HETATM   23  H   UNL     1       6.435  30.846  57.016  1.00  0.00     0.169 HD
HETATM   24  O   UNL     1       7.521  28.144  58.146  1.00  0.00    -0.271 OA
BRANCH  22  25
HETATM   25  C   UNL     1       7.838  30.928  58.511  1.00  0.00     0.050 A 
HETATM   26  C   UNL     1       7.235  31.838  59.398  1.00  0.00     0.058 A 
HETATM   27  C   UNL     1       7.989  32.350  60.472  1.00  0.00     0.019 A 
HETATM   28  C   UNL     1       9.317  31.974  60.665  1.00  0.00     0.001 A 
HETATM   29  C   UNL     1       9.902  31.052  59.807  1.00  0.00     0.002 A 
HETATM   30  C   UNL     1       9.164  30.523  58.747  1.00  0.00     0.030 A 
BRANCH  26  31
HETATM   31  C   UNL     1       5.791  32.191  59.439  1.00  0.00     0.254 C 
HETATM   32  N   UNL     1       5.114  31.981  60.612  1.00  0.00    -0.351 N 
HETATM   33  H   UNL     1       5.603  31.503  61.367  1.00  0.00     0.163 HD
HETATM   34  O   UNL     1       5.241  32.565  58.407  1.00  0.00    -0.268 OA
BRANCH  32  35
HETATM   35  C   UNL     1       3.671  32.049  60.640  1.00  0.00     0.187 C 
BRANCH  35  36
HETATM   36  C   UNL     1       3.203  33.228  61.410  1.00  0.00     0.070 A 
HETATM   37  O   UNL     1       3.098  33.054  62.761  1.00  0.00    -0.325 OA
HETATM   38  C   UNL     1       2.698  34.238  63.289  1.00  0.00     0.142 A 
HETATM   39  C   UNL     1       2.542  35.178  62.300  1.00  0.00     0.027 A 
HETATM   40  C   UNL     1       2.875  34.530  61.085  1.00  0.00     0.036 A 
ENDBRANCH  35  36
ENDBRANCH  32  35
ENDBRANCH  26  31
ENDBRANCH  22  25
ENDBRANCH   1  21
TORSDOF 7
ENDMDL
MODEL 5
REMARK VINA RESULT:     -11.3      2.445      3.388
REMARK  7 active torsions:
REMARK  status: ('A' for Active; 'I' for Inactive)
REMARK    1  A    between atoms: C_2  and  C_3 
REMARK    2  A    between atoms: N_16  and  C_17 
REMARK    3  A    between atoms: C_17  and  C_18 
REMARK       I    between atoms: C_18  and  N_19 
REMARK    4  A    between atoms: N_19  and  C_20 
REMARK    5  A    between atoms: C_21  and  C_22 
REMARK       I    between atoms: C_22  and  N_23 
REMARK    6  A    between atoms: N_23  and  C_24 
REMARK    7  A    between atoms: C_24  and  C_25 
ROOT
HETATM    1  C   UNL     1       8.248  29.302  56.452  1.00  0.00     0.240 C 
ENDROOT
BRANCH   1   2
HETATM    2  N   UNL     1       7.452  28.157  56.051  1.00  0.00    -0.259 N 
HETATM    3  C   UNL     1       6.209  28.248  55.509  1.00  0.00     0.326 A 
HETATM    4  N   UNL     1       5.724  26.981  55.303  1.00  0.00    -0.321 N 
HETATM    5  O   UNL     1       5.618  29.265  55.198  1.00  0.00    -0.247 OA
HETATM    6  C   UNL     1       6.593  25.954  55.829  1.00  0.00     0.140 A 
HETATM    7  H   UNL     1       4.789  26.821  54.951  1.00  0.00     0.165 HD
HETATM    8  C   UNL     1       5.882  25.372  57.066  1.00  0.00     0.055 C 
HETATM    9  C   UNL     1       7.767  26.850  56.306  1.00  0.00     0.261 A 
HETATM   10  O   UNL     1       8.782  26.462  56.867  1.00  0.00    -0.270 OA
BRANCH   6  11
HETATM   11  C   UNL     1       7.077  24.898  54.819  1.00  0.00    -0.010 A 
HETATM   12  C   UNL     1       7.653  23.609  55.130  1.00  0.00    -0.017 A 
HETATM   13  C   UNL     1       8.057  22.771  54.047  1.00  0.00    -0.025 A 
HETATM   14  C   UNL     1       7.859  23.055  56.424  1.00  0.00     0.013 A 
HETATM   15  C   UNL     1       8.640  21.512  54.274  1.00  0.00     0.012 A 
HETATM   16  C   UNL     1       7.874  23.170  52.721  1.00  0.00     0.012 A 
HETATM   17  C   UNL     1       8.834  21.026  55.559  1.00  0.00     0.001 A 
HETATM   18  C   UNL     1       8.438  21.797  56.637  1.00  0.00     0.001 A 
HETATM   19  C   UNL     1       7.278  24.381  52.420  1.00  0.00     0.002 A 
HETATM   20  C   UNL     1       6.880  25.222  53.451  1.00  0.00     0.011 A 
ENDBRANCH   6  11
ENDBRANCH   1   2
BRANCH   1  21
HETATM   21  C   UNL     1       8.242  29.561  57.962  1.00  0.00     0.240 C 
HETATM   22  N   UNL     1       8.759  30.787  58.357  1.00  0.00    -0.325 N 
HETATM   23  H   UNL     1       8.675  31.493  57.636  1.00  0.00     0.169 HD
HETATM   24  O   UNL     1       7.861  28.689  58.745  1.00  0.00    -0.271 OA
BRANCH  22  25
HETATM   25  C   UNL     1       8.541  31.271  59.671  1.00  0.00     0.050 A 
HETATM   26  C   UNL     1       7.419  32.002  60.099  1.00  0.00     0.058 A 
HETATM   27  C   UNL     1       7.332  32.397  61.448  1.00  0.00     0.019 A 
HETATM   28  C   UNL     1       8.338  32.079  62.359  1.00  0.00     0.001 A 
HETATM   29  C   UNL     1       9.431  31.331  61.943  1.00  0.00     0.002 A 
HETATM   30  C   UNL     1       9.525  30.918  60.613  1.00  0.00     0.030 A 
BRANCH  26  31
HETATM   31  C   UNL     1       6.187  32.255  59.305  1.00  0.00     0.254 C 
HETATM   32  N   UNL     1       4.978  32.076  59.926  1.00  0.00    -0.351 N 
HETATM   33  H   UNL     1       4.976  31.684  60.866  1.00  0.00     0.163 HD
HETATM   34  O   UNL     1       6.293  32.521  58.111  1.00  0.00    -0.268 OA
BRANCH  32  35
HETATM   35  C   UNL     1       3.760  32.045  59.148  1.00  0.00     0.187 C 
BRANCH  35  36
HETATM   36  C   UNL     1       3.116  33.381  59.105  1.00  0.00     0.070 A 
HETATM   37  O   UNL     1       2.269  33.668  60.139  1.00  0.00    -0.325 OA
HETATM   38  C   UNL     1       1.813  34.931  59.946  1.00  0.00     0.142 A 
HETATM   39  C   UNL     1       2.352  35.468  58.802  1.00  0.00     0.027 A 
HETATM   40  C   UNL     1       3.200  34.471  58.261  1.00  0.00     0.036 A 
ENDBRANCH  35  36
ENDBRANCH  32  35
ENDBRANCH  26  31
ENDBRANCH  22  25
ENDBRANCH   1  21
TORSDOF 7
ENDMDL
MODEL 6
REMARK VINA RESULT:     -11.3      1.931      2.872
REMARK  7 active torsions:
REMARK  status: ('A' for Active; 'I' for Inactive)
REMARK    1  A    between atoms: C_2  and  C_3 
REMARK    2  A    between atoms: N_16  and  C_17 
REMARK    3  A    between atoms: C_17  and  C_18 
REMARK       I    between atoms: C_18  and  N_19 
REMARK    4  A    between atoms: N_19  and  C_20 
REMARK    5  A    between atoms: C_21  and  C_22 
REMARK       I    between atoms: C_22  and  N_23 
REMARK    6  A    between atoms: N_23  and  C_24 
REMARK    7  A    between atoms: C_24  and  C_25 
ROOT
HETATM    1  C   UNL     1       6.829  29.431  55.920  1.00  0.00     0.240 C 
ENDROOT
BRANCH   1   2
HETATM    2  N   UNL     1       6.317  28.119  55.572  1.00  0.00    -0.259 N 
HETATM    3  C   UNL     1       5.134  27.908  54.939  1.00  0.00     0.326 A 
HETATM    4  N   UNL     1       4.932  26.556  54.818  1.00  0.00    -0.321 N 
HETATM    5  O   UNL     1       4.380  28.754  54.494  1.00  0.00    -0.247 OA
HETATM    6  C   UNL     1       5.941  25.776  55.496  1.00  0.00     0.140 A 
HETATM    7  H   UNL     1       4.083  26.179  54.418  1.00  0.00     0.165 HD
HETATM    8  C   UNL     1       5.256  25.155  56.729  1.00  0.00     0.055 C 
HETATM    9  C   UNL     1       6.864  26.929  55.969  1.00  0.00     0.261 A 
HETATM   10  O   UNL     1       7.884  26.804  56.633  1.00  0.00    -0.270 OA
BRANCH   6  11
HETATM   11  C   UNL     1       6.714  24.768  54.625  1.00  0.00    -0.010 A 
HETATM   12  C   UNL     1       7.474  23.631  55.093  1.00  0.00    -0.017 A 
HETATM   13  C   UNL     1       8.137  22.818  54.124  1.00  0.00    -0.025 A 
HETATM   14  C   UNL     1       7.634  23.205  56.441  1.00  0.00     0.013 A 
HETATM   15  C   UNL     1       8.908  21.707  54.505  1.00  0.00     0.012 A 
HETATM   16  C   UNL     1       8.031  23.094  52.758  1.00  0.00     0.012 A 
HETATM   17  C   UNL     1       9.045  21.345  55.838  1.00  0.00     0.001 A 
HETATM   18  C   UNL     1       8.403  22.093  56.808  1.00  0.00     0.001 A 
HETATM   19  C   UNL     1       7.264  24.152  52.306  1.00  0.00     0.002 A 
HETATM   20  C   UNL     1       6.611  24.965  53.224  1.00  0.00     0.011 A 
ENDBRANCH   6  11
ENDBRANCH   1   2
BRANCH   1  21
HETATM   21  C   UNL     1       6.009  30.150  56.996  1.00  0.00     0.240 C 
HETATM   22  N   UNL     1       6.231  31.517  57.098  1.00  0.00    -0.325 N 
HETATM   23  H   UNL     1       6.550  31.924  56.228  1.00  0.00     0.169 HD
HETATM   24  O   UNL     1       5.265  29.515  57.745  1.00  0.00    -0.271 OA
BRANCH  22  25
HETATM   25  C   UNL     1       5.338  32.338  57.831  1.00  0.00     0.050 A 
HETATM   26  C   UNL     1       5.418  32.610  59.208  1.00  0.00     0.058 A 
HETATM   27  C   UNL     1       4.465  33.466  59.794  1.00  0.00     0.019 A 
HETATM   28  C   UNL     1       3.448  34.042  59.033  1.00  0.00     0.001 A 
HETATM   29  C   UNL     1       3.388  33.797  57.668  1.00  0.00     0.002 A 
HETATM   30  C   UNL     1       4.334  32.963  57.069  1.00  0.00     0.030 A 
BRANCH  26  31
HETATM   31  C   UNL     1       6.538  32.230  60.110  1.00  0.00     0.254 C 
HETATM   32  N   UNL     1       6.227  31.595  61.284  1.00  0.00    -0.351 N 
HETATM   33  H   UNL     1       5.243  31.501  61.531  1.00  0.00     0.163 HD
HETATM   34  O   UNL     1       7.679  32.579  59.819  1.00  0.00    -0.268 OA
BRANCH  32  35
HETATM   35  C   UNL     1       7.229  31.442  62.314  1.00  0.00     0.187 C 
BRANCH  35  36
HETATM   36  C   UNL     1       7.015  32.406  63.421  1.00  0.00     0.070 A 
HETATM   37  O   UNL     1       5.719  32.578  63.820  1.00  0.00    -0.325 OA
HETATM   38  C   UNL     1       5.730  33.456  64.854  1.00  0.00     0.142 A 
HETATM   39  C   UNL     1       7.014  33.856  65.133  1.00  0.00     0.027 A 
HETATM   40  C   UNL     1       7.847  33.173  64.213  1.00  0.00     0.036 A 
ENDBRANCH  35  36
ENDBRANCH  32  35
ENDBRANCH  26  31
ENDBRANCH  22  25
ENDBRANCH   1  21
TORSDOF 7
ENDMDL
MODEL 7
REMARK VINA RESULT:     -11.2      5.889      9.275
REMARK  7 active torsions:
REMARK  status: ('A' for Active; 'I' for Inactive)
REMARK    1  A    between atoms: C_2  and  C_3 
REMARK    2  A    between atoms: N_16  and  C_17 
REMARK    3  A    between atoms: C_17  and  C_18 
REMARK       I    between atoms: C_18  and  N_19 
REMARK    4  A    between atoms: N_19  and  C_20 
REMARK    5  A    between atoms: C_21  and  C_22 
REMARK       I    between atoms: C_22  and  N_23 
REMARK    6  A    between atoms: N_23  and  C_24 
REMARK    7  A    between atoms: C_24  and  C_25 
ROOT
HETATM    1  C   UNL     1       4.450  27.551  53.759  1.00  0.00     0.240 C 
ENDROOT
BRANCH   1   2
HETATM    2  N   UNL     1       5.742  26.896  53.845  1.00  0.00    -0.259 N 
HETATM    3  C   UNL     1       6.915  27.550  54.047  1.00  0.00     0.326 A 
HETATM    4  N   UNL     1       7.940  26.640  54.019  1.00  0.00    -0.321 N 
HETATM    5  O   UNL     1       7.062  28.738  54.271  1.00  0.00    -0.247 OA
HETATM    6  C   UNL     1       7.500  25.311  53.662  1.00  0.00     0.140 A 
HETATM    7  H   UNL     1       8.907  26.925  54.100  1.00  0.00     0.165 HD
HETATM    8  C   UNL     1       8.031  25.044  52.239  1.00  0.00     0.055 C 
HETATM    9  C   UNL     1       5.973  25.573  53.580  1.00  0.00     0.261 A 
HETATM   10  O   UNL     1       5.120  24.751  53.277  1.00  0.00    -0.270 OA
BRANCH   6  11
HETATM   11  C   UNL     1       7.818  24.198  54.677  1.00  0.00    -0.010 A 
HETATM   12  C   UNL     1       8.034  22.800  54.383  1.00  0.00    -0.017 A 
HETATM   13  C   UNL     1       8.304  21.915  55.470  1.00  0.00    -0.025 A 
HETATM   14  C   UNL     1       8.022  22.184  53.100  1.00  0.00     0.013 A 
HETATM   15  C   UNL     1       8.507  20.539  55.262  1.00  0.00     0.012 A 
HETATM   16  C   UNL     1       8.388  22.390  56.782  1.00  0.00     0.012 A 
HETATM   17  C   UNL     1       8.468  19.988  53.989  1.00  0.00     0.001 A 
HETATM   18  C   UNL     1       8.229  20.812  52.905  1.00  0.00     0.001 A 
HETATM   19  C   UNL     1       8.231  23.736  57.059  1.00  0.00     0.002 A 
HETATM   20  C   UNL     1       7.961  24.621  56.024  1.00  0.00     0.011 A 
ENDBRANCH   6  11
ENDBRANCH   1   2
BRANCH   1  21
HETATM   21  C   UNL     1       4.082  28.007  52.343  1.00  0.00     0.240 C 
HETATM   22  N   UNL     1       5.047  27.770  51.372  1.00  0.00    -0.325 N 
HETATM   23  H   UNL     1       5.645  26.988  51.605  1.00  0.00     0.169 HD
HETATM   24  O   UNL     1       3.023  28.601  52.132  1.00  0.00    -0.271 OA
BRANCH  22  25
HETATM   25  C   UNL     1       4.721  27.865  49.996  1.00  0.00     0.050 A 
HETATM   26  C   UNL     1       4.775  29.036  49.221  1.00  0.00     0.058 A 
HETATM   27  C   UNL     1       4.440  28.969  47.854  1.00  0.00     0.019 A 
HETATM   28  C   UNL     1       4.055  27.766  47.264  1.00  0.00     0.001 A 
HETATM   29  C   UNL     1       4.031  26.604  48.023  1.00  0.00     0.002 A 
HETATM   30  C   UNL     1       4.375  26.651  49.376  1.00  0.00     0.030 A 
BRANCH  26  31
HETATM   31  C   UNL     1       5.340  30.343  49.650  1.00  0.00     0.254 C 
HETATM   32  N   UNL     1       4.951  31.464  48.964  1.00  0.00    -0.351 N 
HETATM   33  H   UNL     1       4.375  31.341  48.133  1.00  0.00     0.163 HD
HETATM   34  O   UNL     1       6.195  30.361  50.531  1.00  0.00    -0.268 OA
BRANCH  32  35
HETATM   35  C   UNL     1       5.657  32.711  49.153  1.00  0.00     0.187 C 
BRANCH  35  36
HETATM   36  C   UNL     1       6.348  33.133  47.909  1.00  0.00     0.070 A 
HETATM   37  O   UNL     1       5.719  32.809  46.739  1.00  0.00    -0.325 OA
HETATM   38  C   UNL     1       6.474  33.305  45.727  1.00  0.00     0.142 A 
HETATM   39  C   UNL     1       7.583  33.946  46.223  1.00  0.00     0.027 A 
HETATM   40  C   UNL     1       7.499  33.843  47.633  1.00  0.00     0.036 A 
ENDBRANCH  35  36
ENDBRANCH  32  35
ENDBRANCH  26  31
ENDBRANCH  22  25
ENDBRANCH   1  21
TORSDOF 7
ENDMDL
MODEL 8
REMARK VINA RESULT:     -11.2      2.780      4.934
REMARK  7 active torsions:
REMARK  status: ('A' for Active; 'I' for Inactive)
REMARK    1  A    between atoms: C_2  and  C_3 
REMARK    2  A    between atoms: N_16  and  C_17 
REMARK    3  A    between atoms: C_17  and  C_18 
REMARK       I    between atoms: C_18  and  N_19 
REMARK    4  A    between atoms: N_19  and  C_20 
REMARK    5  A    between atoms: C_21  and  C_22 
REMARK       I    between atoms: C_22  and  N_23 
REMARK    6  A    between atoms: N_23  and  C_24 
REMARK    7  A    between atoms: C_24  and  C_25 
ROOT
HETATM    1  C   UNL     1      10.175  29.808  58.119  1.00  0.00     0.240 C 
ENDROOT
BRANCH   1   2
HETATM    2  N   UNL     1       9.359  29.170  57.104  1.00  0.00    -0.259 N 
HETATM    3  C   UNL     1       9.478  29.410  55.772  1.00  0.00     0.326 A 
HETATM    4  N   UNL     1       8.521  28.687  55.106  1.00  0.00    -0.321 N 
HETATM    5  O   UNL     1      10.315  30.103  55.223  1.00  0.00    -0.247 OA
HETATM    6  C   UNL     1       7.610  28.007  55.997  1.00  0.00     0.140 A 
HETATM    7  H   UNL     1       8.401  28.759  54.104  1.00  0.00     0.165 HD
HETATM    8  C   UNL     1       6.261  28.746  55.890  1.00  0.00     0.055 C 
HETATM    9  C   UNL     1       8.272  28.377  57.350  1.00  0.00     0.261 A 
HETATM   10  O   UNL     1       7.863  28.059  58.459  1.00  0.00    -0.270 OA
BRANCH   6  11
HETATM   11  C   UNL     1       7.512  26.480  55.826  1.00  0.00    -0.010 A 
HETATM   12  C   UNL     1       7.495  25.753  54.577  1.00  0.00    -0.017 A 
HETATM   13  C   UNL     1       7.384  24.330  54.626  1.00  0.00    -0.025 A 
HETATM   14  C   UNL     1       7.594  26.300  53.268  1.00  0.00     0.013 A 
HETATM   15  C   UNL     1       7.344  23.558  53.452  1.00  0.00     0.012 A 
HETATM   16  C   UNL     1       7.322  23.654  55.847  1.00  0.00     0.012 A 
HETATM   17  C   UNL     1       7.427  24.146  52.198  1.00  0.00     0.001 A 
HETATM   18  C   UNL     1       7.556  25.520  52.105  1.00  0.00     0.001 A 
HETATM   19  C   UNL     1       7.387  24.344  57.044  1.00  0.00     0.002 A 
HETATM   20  C   UNL     1       7.490  25.729  57.030  1.00  0.00     0.011 A 
ENDBRANCH   6  11
ENDBRANCH   1   2
BRANCH   1  21
HETATM   21  C   UNL     1       9.461  30.941  58.864  1.00  0.00     0.240 C 
HETATM   22  N   UNL     1       8.515  30.535  59.796  1.00  0.00    -0.325 N 
HETATM   23  H   UNL     1       8.707  29.612  60.166  1.00  0.00     0.169 HD
HETATM   24  O   UNL     1       9.687  32.118  58.580  1.00  0.00    -0.271 OA
BRANCH  22  25
HETATM   25  C   UNL     1       8.008  31.451  60.752  1.00  0.00     0.050 A 
HETATM   26  C   UNL     1       6.895  32.291  60.570  1.00  0.00     0.058 A 
HETATM   27  C   UNL     1       6.495  33.136  61.624  1.00  0.00     0.019 A 
HETATM   28  C   UNL     1       7.185  33.154  62.835  1.00  0.00     0.001 A 
HETATM   29  C   UNL     1       8.265  32.303  63.024  1.00  0.00     0.002 A 
HETATM   30  C   UNL     1       8.664  31.448  61.996  1.00  0.00     0.030 A 
BRANCH  26  31
HETATM   31  C   UNL     1       5.950  32.254  59.421  1.00  0.00     0.254 C 
HETATM   32  N   UNL     1       4.745  32.891  59.564  1.00  0.00    -0.351 N 
HETATM   33  H   UNL     1       4.511  33.273  60.479  1.00  0.00     0.163 HD
HETATM   34  O   UNL     1       6.241  31.584  58.434  1.00  0.00    -0.268 OA
BRANCH  32  35
HETATM   35  C   UNL     1       3.690  32.670  58.602  1.00  0.00     0.187 C 
BRANCH  35  36
HETATM   36  C   UNL     1       3.489  33.861  57.740  1.00  0.00     0.070 A 
HETATM   37  O   UNL     1       2.235  34.405  57.759  1.00  0.00    -0.325 OA
HETATM   38  C   UNL     1       2.258  35.494  56.949  1.00  0.00     0.142 A 
HETATM   39  C   UNL     1       3.508  35.665  56.407  1.00  0.00     0.027 A 
HETATM   40  C   UNL     1       4.307  34.615  56.922  1.00  0.00     0.036 A 
ENDBRANCH  35  36
ENDBRANCH  32  35
ENDBRANCH  26  31
ENDBRANCH  22  25
ENDBRANCH   1  21
TORSDOF 7
ENDMDL
MODEL 9
REMARK VINA RESULT:     -11.2      4.785      8.720
REMARK  7 active torsions:
REMARK  status: ('A' for Active; 'I' for Inactive)
REMARK    1  A    between atoms: C_2  and  C_3 
REMARK    2  A    between atoms: N_16  and  C_17 
REMARK    3  A    between atoms: C_17  and  C_18 
REMARK       I    between atoms: C_18  and  N_19 
REMARK    4  A    between atoms: N_19  and  C_20 
REMARK    5  A    between atoms: C_21  and  C_22 
REMARK       I    between atoms: C_22  and  N_23 
REMARK    6  A    between atoms: N_23  and  C_24 
REMARK    7  A    between atoms: C_24  and  C_25 
ROOT
HETATM    1  C   UNL     1       6.080  28.365  55.971  1.00  0.00     0.240 C 
ENDROOT
BRANCH   1   2
HETATM    2  N   UNL     1       6.539  27.181  55.269  1.00  0.00    -0.259 N 
HETATM    3  C   UNL     1       7.432  27.202  54.246  1.00  0.00     0.326 A 
HETATM    4  N   UNL     1       7.598  25.924  53.777  1.00  0.00    -0.321 N 
HETATM    5  O   UNL     1       8.042  28.168  53.825  1.00  0.00    -0.247 OA
HETATM    6  C   UNL     1       6.702  24.977  54.399  1.00  0.00     0.140 A 
HETATM    7  H   UNL     1       8.187  25.722  52.979  1.00  0.00     0.165 HD
HETATM    8  C   UNL     1       5.665  24.588  53.328  1.00  0.00     0.055 C 
HETATM    9  C   UNL     1       6.024  25.922  55.426  1.00  0.00     0.261 A 
HETATM   10  O   UNL     1       5.139  25.611  56.211  1.00  0.00    -0.270 OA
BRANCH   6  11
HETATM   11  C   UNL     1       7.367  23.780  55.103  1.00  0.00    -0.010 A 
HETATM   12  C   UNL     1       7.786  22.542  54.484  1.00  0.00    -0.017 A 
HETATM   13  C   UNL     1       8.375  21.539  55.313  1.00  0.00    -0.025 A 
HETATM   14  C   UNL     1       7.692  22.200  53.107  1.00  0.00     0.013 A 
HETATM   15  C   UNL     1       8.790  20.305  54.785  1.00  0.00     0.012 A 
HETATM   16  C   UNL     1       8.569  21.757  56.680  1.00  0.00     0.012 A 
HETATM   17  C   UNL     1       8.659  20.015  53.434  1.00  0.00     0.001 A 
HETATM   18  C   UNL     1       8.112  20.966  52.592  1.00  0.00     0.001 A 
HETATM   19  C   UNL     1       8.214  22.960  57.264  1.00  0.00     0.002 A 
HETATM   20  C   UNL     1       7.634  23.953  56.486  1.00  0.00     0.011 A 
ENDBRANCH   6  11
ENDBRANCH   1   2
BRANCH   1  21
HETATM   21  C   UNL     1       4.929  29.093  55.269  1.00  0.00     0.240 C 
HETATM   22  N   UNL     1       5.301  29.913  54.212  1.00  0.00    -0.325 N 
HETATM   23  H   UNL     1       6.165  29.614  53.776  1.00  0.00     0.169 HD
HETATM   24  O   UNL     1       3.774  28.988  55.687  1.00  0.00    -0.271 OA
BRANCH  22  25
HETATM   25  C   UNL     1       4.329  30.399  53.302  1.00  0.00     0.050 A 
HETATM   26  C   UNL     1       3.922  29.758  52.119  1.00  0.00     0.058 A 
HETATM   27  C   UNL     1       2.925  30.356  51.324  1.00  0.00     0.019 A 
HETATM   28  C   UNL     1       2.342  31.569  51.688  1.00  0.00     0.001 A 
HETATM   29  C   UNL     1       2.723  32.186  52.873  1.00  0.00     0.002 A 
HETATM   30  C   UNL     1       3.699  31.599  53.680  1.00  0.00     0.030 A 
BRANCH  26  31
HETATM   31  C   UNL     1       4.305  28.386  51.692  1.00  0.00     0.254 C 
HETATM   32  N   UNL     1       4.537  28.172  50.358  1.00  0.00    -0.351 N 
HETATM   33  H   UNL     1       4.341  28.933  49.711  1.00  0.00     0.163 HD
HETATM   34  O   UNL     1       4.309  27.483  52.525  1.00  0.00    -0.268 OA
BRANCH  32  35
HETATM   35  C   UNL     1       4.649  26.825  49.848  1.00  0.00     0.187 C 
BRANCH  35  36
HETATM   36  C   UNL     1       3.685  26.585  48.746  1.00  0.00     0.070 A 
HETATM   37  O   UNL     1       2.591  27.403  48.721  1.00  0.00    -0.325 OA
HETATM   38  C   UNL     1       1.857  27.060  47.634  1.00  0.00     0.142 A 
HETATM   39  C   UNL     1       2.459  26.031  46.951  1.00  0.00     0.027 A 
HETATM   40  C   UNL     1       3.645  25.727  47.664  1.00  0.00     0.036 A 
ENDBRANCH  35  36
ENDBRANCH  32  35
ENDBRANCH  26  31
ENDBRANCH  22  25
ENDBRANCH   1  21
TORSDOF 7
ENDMDL
MODEL 10
REMARK VINA RESULT:     -11.0      2.093      3.318
REMARK  7 active torsions:
REMARK  status: ('A' for Active; 'I' for Inactive)
REMARK    1  A    between atoms: C_2  and  C_3 
REMARK    2  A    between atoms: N_16  and  C_17 
REMARK    3  A    between atoms: C_17  and  C_18 
REMARK       I    between atoms: C_18  and  N_19 
REMARK    4  A    between atoms: N_19  and  C_20 
REMARK    5  A    between atoms: C_21  and  C_22 
REMARK       I    between atoms: C_22  and  N_23 
REMARK    6  A    between atoms: N_23  and  C_24 
REMARK    7  A    between atoms: C_24  and  C_25 
ROOT
HETATM    1  C   UNL     1       5.114  26.752  56.597  1.00  0.00     0.240 C 
ENDROOT
BRANCH   1   2
HETATM    2  N   UNL     1       6.227  26.153  55.885  1.00  0.00    -0.259 N 
HETATM    3  C   UNL     1       7.533  26.404  56.167  1.00  0.00     0.326 A 
HETATM    4  N   UNL     1       8.317  25.723  55.272  1.00  0.00    -0.321 N 
HETATM    5  O   UNL     1       7.969  27.075  57.085  1.00  0.00    -0.247 OA
HETATM    6  C   UNL     1       7.549  25.064  54.240  1.00  0.00     0.140 A 
HETATM    7  H   UNL     1       9.325  25.811  55.272  1.00  0.00     0.165 HD
HETATM    8  C   UNL     1       7.801  25.851  52.939  1.00  0.00     0.055 C 
HETATM    9  C   UNL     1       6.121  25.395  54.751  1.00  0.00     0.261 A 
HETATM   10  O   UNL     1       5.074  25.080  54.205  1.00  0.00    -0.270 OA
BRANCH   6  11
HETATM   11  C   UNL     1       7.753  23.544  54.113  1.00  0.00    -0.010 A 
HETATM   12  C   UNL     1       8.003  22.616  55.193  1.00  0.00    -0.017 A 
HETATM   13  C   UNL     1       8.182  21.236  54.869  1.00  0.00    -0.025 A 
HETATM   14  C   UNL     1       8.082  22.919  56.580  1.00  0.00     0.013 A 
HETATM   15  C   UNL     1       8.445  20.279  55.864  1.00  0.00     0.012 A 
HETATM   16  C   UNL     1       8.088  20.788  53.549  1.00  0.00     0.012 A 
HETATM   17  C   UNL     1       8.529  20.633  57.203  1.00  0.00     0.001 A 
HETATM   18  C   UNL     1       8.342  21.955  57.563  1.00  0.00     0.001 A 
HETATM   19  C   UNL     1       7.799  21.667  52.521  1.00  0.00     0.002 A 
HETATM   20  C   UNL     1       7.626  23.016  52.802  1.00  0.00     0.011 A 
ENDBRANCH   6  11
ENDBRANCH   1   2
BRANCH   1  21
HETATM   21  C   UNL     1       4.814  28.194  56.176  1.00  0.00     0.240 C 
HETATM   22  N   UNL     1       4.144  28.962  57.119  1.00  0.00    -0.325 N 
HETATM   23  H   UNL     1       4.313  28.646  58.066  1.00  0.00     0.169 HD
HETATM   24  O   UNL     1       5.101  28.588  55.044  1.00  0.00    -0.271 OA
BRANCH  22  25
HETATM   25  C   UNL     1       4.073  30.371  56.981  1.00  0.00     0.050 A 
HETATM   26  C   UNL     1       4.964  31.296  57.554  1.00  0.00     0.058 A 
HETATM   27  C   UNL     1       4.777  32.670  57.308  1.00  0.00     0.019 A 
HETATM   28  C   UNL     1       3.726  33.124  56.513  1.00  0.00     0.001 A 
HETATM   29  C   UNL     1       2.865  32.209  55.923  1.00  0.00     0.002 A 
HETATM   30  C   UNL     1       3.046  30.842  56.144  1.00  0.00     0.030 A 
BRANCH  26  31
HETATM   31  C   UNL     1       6.230  30.966  58.262  1.00  0.00     0.254 C 
HETATM   32  N   UNL     1       6.422  31.500  59.510  1.00  0.00    -0.351 N 
HETATM   33  H   UNL     1       5.740  32.174  59.852  1.00  0.00     0.163 HD
HETATM   34  O   UNL     1       7.088  30.313  57.674  1.00  0.00    -0.268 OA
BRANCH  32  35
HETATM   35  C   UNL     1       7.725  31.439  60.132  1.00  0.00     0.187 C 
BRANCH  35  36
HETATM   36  C   UNL     1       7.703  32.040  61.488  1.00  0.00     0.070 A 
HETATM   37  O   UNL     1       6.608  32.802  61.785  1.00  0.00    -0.325 OA
HETATM   38  C   UNL     1       6.749  33.227  63.066  1.00  0.00     0.142 A 
HETATM   39  C   UNL     1       7.919  32.751  63.605  1.00  0.00     0.027 A 
HETATM   40  C   UNL     1       8.533  31.978  62.590  1.00  0.00     0.036 A 
ENDBRANCH  35  36
ENDBRANCH  32  35
ENDBRANCH  26  31
ENDBRANCH  22  25
ENDBRANCH   1  21
TORSDOF 7
ENDMDL
