MODEL 1
REMARK VINA RESULT:      -9.7      0.000      0.000
REMARK  5 active torsions:
REMARK  status: ('A' for Active; 'I' for Inactive)
REMARK    1  A    between atoms: C_7  and  C_8 
REMARK    2  A    between atoms: N_9  and  N_10 
REMARK       I    between atoms: N_10  and  C_11 
REMARK    3  A    between atoms: C_11  and  C_12 
REMARK    4  A    between atoms: C_12  and  N_13 
REMARK       I    between atoms: N_13  and  C_14 
REMARK    5  A    between atoms: C_14  and  C_15 
ROOT
HETATM    1  N   UNL     1       5.448  26.098  56.530  1.00  0.00    -0.246 N 
HETATM    2  C   UNL     1       5.191  27.390  56.101  1.00  0.00     0.255 C 
HETATM    3  O   UNL     1       5.217  27.773  54.932  1.00  0.00    -0.270 OA
HETATM    4  H   UNL     1       5.538  25.920  57.533  1.00  0.00     0.192 HD
ENDROOT
BRANCH   1   5
HETATM    5  N   UNL     1       5.738  25.114  55.632  1.00  0.00    -0.184 NA
HETATM    6  C   UNL     1       6.997  24.951  55.380  1.00  0.00     0.153 C 
BRANCH   6   7
HETATM    7  C   UNL     1       7.432  23.954  54.419  1.00  0.00     0.018 A 
HETATM    8  C   UNL     1       7.546  24.112  53.044  1.00  0.00     0.018 A 
HETATM    9  C   UNL     1       7.269  25.282  52.166  1.00  0.00     0.069 C 
HETATM   10  N   UNL     1       8.006  22.928  52.523  1.00  0.00    -0.358 N 
HETATM   11  H   UNL     1       8.185  22.757  51.544  1.00  0.00     0.166 HD
HETATM   12  C   UNL     1       8.193  22.000  53.518  1.00  0.00     0.043 A 
HETATM   13  C   UNL     1       7.839  22.611  54.721  1.00  0.00     0.004 A 
HETATM   14  C   UNL     1       8.644  20.677  53.441  1.00  0.00     0.030 A 
HETATM   15  C   UNL     1       7.936  21.853  55.908  1.00  0.00     0.014 A 
HETATM   16  C   UNL     1       8.382  20.528  55.849  1.00  0.00     0.001 A 
HETATM   17  C   UNL     1       8.733  19.952  54.631  1.00  0.00     0.002 A 
ENDBRANCH   6   7
ENDBRANCH   1   5
BRANCH   2  18
HETATM   18  C   UNL     1       4.988  28.376  57.254  1.00  0.00     0.227 C 
BRANCH  18  19
HETATM   19  N   UNL     1       6.131  29.244  57.520  1.00  0.00    -0.348 N 
HETATM   20  C   UNL     1       7.359  28.738  57.880  1.00  0.00     0.252 C 
HETATM   21  O   UNL     1       7.501  27.548  58.149  1.00  0.00    -0.268 OA
HETATM   22  H   UNL     1       5.955  30.238  57.520  1.00  0.00     0.163 HD
BRANCH  20  23
HETATM   23  C   UNL     1       8.508  29.682  58.003  1.00  0.00     0.035 A 
HETATM   24  C   UNL     1       8.427  30.675  58.989  1.00  0.00     0.059 A 
HETATM   25  C   UNL     1       9.476  31.572  59.156  1.00  0.00     0.117 A 
HETATM   26  F   UNL     1       9.390  32.516  60.103  1.00  0.00    -0.206 F 
HETATM   27  C   UNL     1      10.611  31.504  58.360  1.00  0.00     0.042 A 
HETATM   28  C   UNL     1      10.705  30.516  57.382  1.00  0.00     0.004 A 
HETATM   29  C   UNL     1       9.660  29.602  57.206  1.00  0.00     0.017 A 
ENDBRANCH  20  23
ENDBRANCH  18  19
ENDBRANCH   2  18
TORSDOF 5
ENDMDL
MODEL 2
REMARK VINA RESULT:      -9.6      3.093      8.899
REMARK  5 active torsions:
REMARK  status: ('A' for Active; 'I' for Inactive)
REMARK    1  A    between atoms: C_7  and  C_8 
REMARK    2  A    between atoms: N_9  and  N_10 
REMARK       I    between atoms: N_10  and  C_11 
REMARK    3  A    between atoms: C_11  and  C_12 
REMARK    4  A    between atoms: C_12  and  N_13 
REMARK       I    between atoms: N_13  and  C_14 
REMARK    5  A    between atoms: C_14  and  C_15 
ROOT
HETATM    1  N   UNL     1       7.301  27.475  55.567  1.00  0.00    -0.246 N 
HETATM    2  C   UNL     1       6.024  26.957  55.715  1.00  0.00     0.255 C 
HETATM    3  O   UNL     1       5.357  26.986  56.749  1.00  0.00    -0.270 OA
HETATM    4  H   UNL     1       7.818  27.272  54.709  1.00  0.00     0.192 HD
ENDROOT
BRANCH   1   5
HETATM    5  N   UNL     1       7.920  28.101  56.608  1.00  0.00    -0.184 NA
HETATM    6  C   UNL     1       8.014  29.387  56.500  1.00  0.00     0.153 C 
BRANCH   6   7
HETATM    7  C   UNL     1       8.678  30.165  57.530  1.00  0.00     0.018 A 
HETATM    8  C   UNL     1      10.046  30.280  57.739  1.00  0.00     0.018 A 
HETATM    9  C   UNL     1      11.201  29.676  57.021  1.00  0.00     0.069 C 
HETATM   10  N   UNL     1      10.237  31.124  58.805  1.00  0.00    -0.358 N 
HETATM   11  H   UNL     1      11.137  31.391  59.178  1.00  0.00     0.166 HD
HETATM   12  C   UNL     1       9.033  31.560  59.301  1.00  0.00     0.043 A 
HETATM   13  C   UNL     1       8.033  30.974  58.525  1.00  0.00     0.004 A 
HETATM   14  C   UNL     1       8.759  32.421  60.371  1.00  0.00     0.030 A 
HETATM   15  C   UNL     1       6.688  31.262  58.842  1.00  0.00     0.014 A 
HETATM   16  C   UNL     1       6.395  32.117  59.910  1.00  0.00     0.001 A 
HETATM   17  C   UNL     1       7.420  32.690  60.660  1.00  0.00     0.002 A 
ENDBRANCH   6   7
ENDBRANCH   1   5
BRANCH   2  18
HETATM   18  C   UNL     1       5.535  26.201  54.477  1.00  0.00     0.227 C 
BRANCH  18  19
HETATM   19  N   UNL     1       5.932  24.798  54.425  1.00  0.00    -0.348 N 
HETATM   20  C   UNL     1       7.172  24.411  53.969  1.00  0.00     0.252 C 
HETATM   21  O   UNL     1       7.932  25.216  53.437  1.00  0.00    -0.268 OA
HETATM   22  H   UNL     1       5.222  24.116  54.650  1.00  0.00     0.163 HD
BRANCH  20  23
HETATM   23  C   UNL     1       7.549  22.971  54.073  1.00  0.00     0.035 A 
HETATM   24  C   UNL     1       7.531  22.388  55.347  1.00  0.00     0.059 A 
HETATM   25  C   UNL     1       7.859  21.046  55.499  1.00  0.00     0.117 A 
HETATM   26  F   UNL     1       7.836  20.496  56.721  1.00  0.00    -0.206 F 
HETATM   27  C   UNL     1       8.208  20.264  54.405  1.00  0.00     0.042 A 
HETATM   28  C   UNL     1       8.222  20.832  53.133  1.00  0.00     0.004 A 
HETATM   29  C   UNL     1       7.888  22.180  52.964  1.00  0.00     0.017 A 
ENDBRANCH  20  23
ENDBRANCH  18  19
ENDBRANCH   2  18
TORSDOF 5
ENDMDL
MODEL 3
REMARK VINA RESULT:      -9.5      2.240      2.905
REMARK  5 active torsions:
REMARK  status: ('A' for Active; 'I' for Inactive)
REMARK    1  A    between atoms: C_7  and  C_8 
REMARK    2  A    between atoms: N_9  and  N_10 
REMARK       I    between atoms: N_10  and  C_11 
REMARK    3  A    between atoms: C_11  and  C_12 
REMARK    4  A    between atoms: C_12  and  N_13 
REMARK       I    between atoms: N_13  and  C_14 
REMARK    5  A    between atoms: C_14  and  C_15 
ROOT
HETATM    1  N   UNL     1       6.497  27.442  56.060  1.00  0.00    -0.246 N 
HETATM    2  C   UNL     1       7.127  27.947  57.186  1.00  0.00     0.255 C 
HETATM    3  O   UNL     1       7.790  27.290  57.988  1.00  0.00    -0.270 OA
HETATM    4  H   UNL     1       5.857  28.047  55.540  1.00  0.00     0.192 HD
ENDROOT
BRANCH   1   5
HETATM    5  N   UNL     1       6.595  26.119  55.744  1.00  0.00    -0.184 NA
HETATM    6  C   UNL     1       7.531  25.821  54.901  1.00  0.00     0.153 C 
BRANCH   6   7
HETATM    7  C   UNL     1       7.718  24.449  54.465  1.00  0.00     0.018 A 
HETATM    8  C   UNL     1       7.716  23.981  53.158  1.00  0.00     0.018 A 
HETATM    9  C   UNL     1       7.527  24.690  51.863  1.00  0.00     0.069 C 
HETATM   10  N   UNL     1       7.944  22.627  53.199  1.00  0.00    -0.358 N 
HETATM   11  H   UNL     1       7.999  22.025  52.390  1.00  0.00     0.166 HD
HETATM   12  C   UNL     1       8.092  22.199  54.495  1.00  0.00     0.043 A 
HETATM   13  C   UNL     1       7.952  23.317  55.316  1.00  0.00     0.004 A 
HETATM   14  C   UNL     1       8.336  20.914  54.995  1.00  0.00     0.030 A 
HETATM   15  C   UNL     1       8.056  23.138  56.712  1.00  0.00     0.014 A 
HETATM   16  C   UNL     1       8.296  21.860  57.230  1.00  0.00     0.001 A 
HETATM   17  C   UNL     1       8.436  20.766  56.380  1.00  0.00     0.002 A 
ENDBRANCH   6   7
ENDBRANCH   1   5
BRANCH   2  18
HETATM   18  C   UNL     1       6.819  29.426  57.434  1.00  0.00     0.227 C 
BRANCH  18  19
HETATM   19  N   UNL     1       7.284  29.936  58.720  1.00  0.00    -0.348 N 
HETATM   20  C   UNL     1       7.112  31.252  59.085  1.00  0.00     0.252 C 
HETATM   21  O   UNL     1       6.708  32.086  58.278  1.00  0.00    -0.268 OA
HETATM   22  H   UNL     1       7.821  29.301  59.292  1.00  0.00     0.163 HD
BRANCH  20  23
HETATM   23  C   UNL     1       7.494  31.661  60.468  1.00  0.00     0.035 A 
HETATM   24  C   UNL     1       6.806  32.741  61.037  1.00  0.00     0.059 A 
HETATM   25  C   UNL     1       7.112  33.153  62.328  1.00  0.00     0.117 A 
HETATM   26  F   UNL     1       6.447  34.185  62.865  1.00  0.00    -0.206 F 
HETATM   27  C   UNL     1       8.094  32.513  63.073  1.00  0.00     0.042 A 
HETATM   28  C   UNL     1       8.779  31.434  62.519  1.00  0.00     0.004 A 
HETATM   29  C   UNL     1       8.478  31.002  61.222  1.00  0.00     0.017 A 
ENDBRANCH  20  23
ENDBRANCH  18  19
ENDBRANCH   2  18
TORSDOF 5
ENDMDL
MODEL 4
REMARK VINA RESULT:      -9.5      2.828      8.186
REMARK  5 active torsions:
REMARK  status: ('A' for Active; 'I' for Inactive)
REMARK    1  A    between atoms: C_7  and  C_8 
REMARK    2  A    between atoms: N_9  and  N_10 
REMARK       I    between atoms: N_10  and  C_11 
REMARK    3  A    between atoms: C_11  and  C_12 
REMARK    4  A    between atoms: C_12  and  N_13 
REMARK       I    between atoms: N_13  and  C_14 
REMARK    5  A    between atoms: C_14  and  C_15 
ROOT
HETATM    1  N   UNL     1       6.697  27.247  53.417  1.00  0.00    -0.246 N 
HETATM    2  C   UNL     1       5.458  26.778  53.009  1.00  0.00     0.255 C 
HETATM    3  O   UNL     1       4.371  27.186  53.417  1.00  0.00    -0.270 OA
HETATM    4  H   UNL     1       7.536  26.743  53.121  1.00  0.00     0.192 HD
ENDROOT
BRANCH   1   5
HETATM    5  N   UNL     1       6.791  28.258  54.327  1.00  0.00    -0.184 NA
HETATM    6  C   UNL     1       7.204  27.905  55.502  1.00  0.00     0.153 C 
BRANCH   6   7
HETATM    7  C   UNL     1       7.318  28.887  56.566  1.00  0.00     0.018 A 
HETATM    8  C   UNL     1       6.294  29.372  57.368  1.00  0.00     0.018 A 
HETATM    9  C   UNL     1       4.838  29.065  57.392  1.00  0.00     0.069 C 
HETATM   10  N   UNL     1       6.845  30.268  58.252  1.00  0.00    -0.358 N 
HETATM   11  H   UNL     1       6.330  30.774  58.959  1.00  0.00     0.166 HD
HETATM   12  C   UNL     1       8.197  30.384  58.046  1.00  0.00     0.043 A 
HETATM   13  C   UNL     1       8.527  29.532  56.992  1.00  0.00     0.004 A 
HETATM   14  C   UNL     1       9.143  31.174  58.710  1.00  0.00     0.030 A 
HETATM   15  C   UNL     1       9.875  29.475  56.578  1.00  0.00     0.014 A 
HETATM   16  C   UNL     1      10.834  30.261  57.228  1.00  0.00     0.001 A 
HETATM   17  C   UNL     1      10.470  31.096  58.281  1.00  0.00     0.002 A 
ENDBRANCH   6   7
ENDBRANCH   1   5
BRANCH   2  18
HETATM   18  C   UNL     1       5.551  25.576  52.066  1.00  0.00     0.227 C 
BRANCH  18  19
HETATM   19  N   UNL     1       5.978  24.335  52.704  1.00  0.00    -0.348 N 
HETATM   20  C   UNL     1       7.307  23.990  52.805  1.00  0.00     0.252 C 
HETATM   21  O   UNL     1       8.176  24.634  52.221  1.00  0.00    -0.268 OA
HETATM   22  H   UNL     1       5.250  23.694  52.983  1.00  0.00     0.163 HD
BRANCH  20  23
HETATM   23  C   UNL     1       7.667  22.772  53.588  1.00  0.00     0.035 A 
HETATM   24  C   UNL     1       7.749  22.899  54.981  1.00  0.00     0.059 A 
HETATM   25  C   UNL     1       8.066  21.792  55.759  1.00  0.00     0.117 A 
HETATM   26  F   UNL     1       8.139  21.923  57.091  1.00  0.00    -0.206 F 
HETATM   27  C   UNL     1       8.305  20.552  55.181  1.00  0.00     0.042 A 
HETATM   28  C   UNL     1       8.219  20.414  53.798  1.00  0.00     0.004 A 
HETATM   29  C   UNL     1       7.895  21.518  53.001  1.00  0.00     0.017 A 
ENDBRANCH  20  23
ENDBRANCH  18  19
ENDBRANCH   2  18
TORSDOF 5
ENDMDL
MODEL 5
REMARK VINA RESULT:      -9.5      3.634      9.333
REMARK  5 active torsions:
REMARK  status: ('A' for Active; 'I' for Inactive)
REMARK    1  A    between atoms: C_7  and  C_8 
REMARK    2  A    between atoms: N_9  and  N_10 
REMARK       I    between atoms: N_10  and  C_11 
REMARK    3  A    between atoms: C_11  and  C_12 
REMARK    4  A    between atoms: C_12  and  N_13 
REMARK       I    between atoms: N_13  and  C_14 
REMARK    5  A    between atoms: C_14  and  C_15 
ROOT
HETATM    1  N   UNL     1       7.554  28.255  56.143  1.00  0.00    -0.246 N 
HETATM    2  C   UNL     1       6.927  28.213  54.907  1.00  0.00     0.255 C 
HETATM    3  O   UNL     1       5.879  28.790  54.618  1.00  0.00    -0.270 OA
HETATM    4  H   UNL     1       8.341  27.627  56.318  1.00  0.00     0.192 HD
ENDROOT
BRANCH   1   5
HETATM    5  N   UNL     1       7.031  28.997  57.160  1.00  0.00    -0.184 NA
HETATM    6  C   UNL     1       7.655  30.102  57.415  1.00  0.00     0.153 C 
BRANCH   6   7
HETATM    7  C   UNL     1       7.212  30.965  58.495  1.00  0.00     0.018 A 
HETATM    8  C   UNL     1       6.088  31.781  58.505  1.00  0.00     0.018 A 
HETATM    9  C   UNL     1       5.044  32.023  57.472  1.00  0.00     0.069 C 
HETATM   10  N   UNL     1       6.038  32.407  59.726  1.00  0.00    -0.358 N 
HETATM   11  H   UNL     1       5.321  33.059  60.012  1.00  0.00     0.166 HD
HETATM   12  C   UNL     1       7.097  32.027  60.511  1.00  0.00     0.043 A 
HETATM   13  C   UNL     1       7.856  31.123  59.768  1.00  0.00     0.004 A 
HETATM   14  C   UNL     1       7.436  32.414  61.814  1.00  0.00     0.030 A 
HETATM   15  C   UNL     1       9.019  30.584  60.358  1.00  0.00     0.014 A 
HETATM   16  C   UNL     1       9.376  30.963  61.658  1.00  0.00     0.001 A 
HETATM   17  C   UNL     1       8.591  31.863  62.374  1.00  0.00     0.002 A 
ENDBRANCH   6   7
ENDBRANCH   1   5
BRANCH   2  18
HETATM   18  C   UNL     1       7.599  27.250  53.926  1.00  0.00     0.227 C 
BRANCH  18  19
HETATM   19  N   UNL     1       7.500  25.841  54.292  1.00  0.00    -0.348 N 
HETATM   20  C   UNL     1       7.806  24.835  53.403  1.00  0.00     0.252 C 
HETATM   21  O   UNL     1       8.020  25.080  52.218  1.00  0.00    -0.268 OA
HETATM   22  H   UNL     1       7.105  25.634  55.198  1.00  0.00     0.163 HD
BRANCH  20  23
HETATM   23  C   UNL     1       7.807  23.427  53.896  1.00  0.00     0.035 A 
HETATM   24  C   UNL     1       7.974  22.409  52.949  1.00  0.00     0.059 A 
HETATM   25  C   UNL     1       7.998  21.081  53.357  1.00  0.00     0.117 A 
HETATM   26  F   UNL     1       8.161  20.114  52.443  1.00  0.00    -0.206 F 
HETATM   27  C   UNL     1       7.858  20.738  54.695  1.00  0.00     0.042 A 
HETATM   28  C   UNL     1       7.699  21.743  55.647  1.00  0.00     0.004 A 
HETATM   29  C   UNL     1       7.679  23.086  55.252  1.00  0.00     0.017 A 
ENDBRANCH  20  23
ENDBRANCH  18  19
ENDBRANCH   2  18
TORSDOF 5
ENDMDL
MODEL 6
REMARK VINA RESULT:      -9.4      4.929      7.825
REMARK  5 active torsions:
REMARK  status: ('A' for Active; 'I' for Inactive)
REMARK    1  A    between atoms: C_7  and  C_8 
REMARK    2  A    between atoms: N_9  and  N_10 
REMARK       I    between atoms: N_10  and  C_11 
REMARK    3  A    between atoms: C_11  and  C_12 
REMARK    4  A    between atoms: C_12  and  N_13 
REMARK       I    between atoms: N_13  and  C_14 
REMARK    5  A    between atoms: C_14  and  C_15 
ROOT
HETATM    1  N   UNL     1       5.887  26.298  53.032  1.00  0.00    -0.246 N 
HETATM    2  C   UNL     1       5.150  27.362  53.526  1.00  0.00     0.255 C 
HETATM    3  O   UNL     1       4.709  27.455  54.671  1.00  0.00    -0.270 OA
HETATM    4  H   UNL     1       6.083  26.257  52.029  1.00  0.00     0.192 HD
ENDROOT
BRANCH   1   5
HETATM    5  N   UNL     1       6.203  25.241  53.835  1.00  0.00    -0.184 NA
HETATM    6  C   UNL     1       7.456  25.136  54.139  1.00  0.00     0.153 C 
BRANCH   6   7
HETATM    7  C   UNL     1       7.922  24.036  54.964  1.00  0.00     0.018 A 
HETATM    8  C   UNL     1       8.232  24.079  56.317  1.00  0.00     0.018 A 
HETATM    9  C   UNL     1       8.193  25.200  57.296  1.00  0.00     0.069 C 
HETATM   10  N   UNL     1       8.614  22.817  56.699  1.00  0.00    -0.358 N 
HETATM   11  H   UNL     1       8.893  22.555  57.634  1.00  0.00     0.166 HD
HETATM   12  C   UNL     1       8.567  21.952  55.633  1.00  0.00     0.043 A 
HETATM   13  C   UNL     1       8.139  22.686  54.527  1.00  0.00     0.004 A 
HETATM   14  C   UNL     1       8.870  20.587  55.569  1.00  0.00     0.030 A 
HETATM   15  C   UNL     1       8.015  22.018  53.291  1.00  0.00     0.014 A 
HETATM   16  C   UNL     1       8.317  20.654  53.207  1.00  0.00     0.001 A 
HETATM   17  C   UNL     1       8.736  19.950  54.333  1.00  0.00     0.002 A 
ENDBRANCH   6   7
ENDBRANCH   1   5
BRANCH   2  18
HETATM   18  C   UNL     1       4.804  28.401  52.457  1.00  0.00     0.227 C 
BRANCH  18  19
HETATM   19  N   UNL     1       4.070  27.874  51.312  1.00  0.00    -0.348 N 
HETATM   20  C   UNL     1       4.545  27.994  50.025  1.00  0.00     0.252 C 
HETATM   21  O   UNL     1       5.525  28.691  49.774  1.00  0.00    -0.268 OA
HETATM   22  H   UNL     1       3.151  27.499  51.495  1.00  0.00     0.163 HD
BRANCH  20  23
HETATM   23  C   UNL     1       3.802  27.311  48.927  1.00  0.00     0.035 A 
HETATM   24  C   UNL     1       3.800  25.910  48.919  1.00  0.00     0.059 A 
HETATM   25  C   UNL     1       3.111  25.224  47.926  1.00  0.00     0.117 A 
HETATM   26  F   UNL     1       3.113  23.884  47.929  1.00  0.00    -0.206 F 
HETATM   27  C   UNL     1       2.417  25.903  46.933  1.00  0.00     0.042 A 
HETATM   28  C   UNL     1       2.405  27.296  46.936  1.00  0.00     0.004 A 
HETATM   29  C   UNL     1       3.090  28.001  47.932  1.00  0.00     0.017 A 
ENDBRANCH  20  23
ENDBRANCH  18  19
ENDBRANCH   2  18
TORSDOF 5
ENDMDL
MODEL 7
REMARK VINA RESULT:      -9.2      3.641      5.197
REMARK  5 active torsions:
REMARK  status: ('A' for Active; 'I' for Inactive)
REMARK    1  A    between atoms: C_7  and  C_8 
REMARK    2  A    between atoms: N_9  and  N_10 
REMARK       I    between atoms: N_10  and  C_11 
REMARK    3  A    between atoms: C_11  and  C_12 
REMARK    4  A    between atoms: C_12  and  N_13 
REMARK       I    between atoms: N_13  and  C_14 
REMARK    5  A    between atoms: C_14  and  C_15 
ROOT
HETATM    1  N   UNL     1       8.022  28.776  58.038  1.00  0.00    -0.246 N 
HETATM    2  C   UNL     1       7.709  29.986  58.638  1.00  0.00     0.255 C 
HETATM    3  O   UNL     1       6.923  30.821  58.193  1.00  0.00    -0.270 OA
HETATM    4  H   UNL     1       8.792  28.221  58.418  1.00  0.00     0.192 HD
ENDROOT
BRANCH   1   5
HETATM    5  N   UNL     1       7.428  28.410  56.866  1.00  0.00    -0.184 NA
HETATM    6  C   UNL     1       6.896  27.230  56.863  1.00  0.00     0.153 C 
BRANCH   6   7
HETATM    7  C   UNL     1       6.259  26.715  55.664  1.00  0.00     0.018 A 
HETATM    8  C   UNL     1       5.120  27.210  55.044  1.00  0.00     0.018 A 
HETATM    9  C   UNL     1       4.235  28.357  55.391  1.00  0.00     0.069 C 
HETATM   10  N   UNL     1       4.877  26.437  53.936  1.00  0.00    -0.358 N 
HETATM   11  H   UNL     1       4.109  26.572  53.293  1.00  0.00     0.166 HD
HETATM   12  C   UNL     1       5.822  25.448  53.817  1.00  0.00     0.043 A 
HETATM   13  C   UNL     1       6.704  25.592  54.888  1.00  0.00     0.004 A 
HETATM   14  C   UNL     1       5.959  24.446  52.848  1.00  0.00     0.030 A 
HETATM   15  C   UNL     1       7.775  24.680  54.997  1.00  0.00     0.014 A 
HETATM   16  C   UNL     1       7.925  23.669  54.040  1.00  0.00     0.001 A 
HETATM   17  C   UNL     1       7.029  23.559  52.980  1.00  0.00     0.002 A 
ENDBRANCH   6   7
ENDBRANCH   1   5
BRANCH   2  18
HETATM   18  C   UNL     1       8.548  30.271  59.886  1.00  0.00     0.227 C 
BRANCH  18  19
HETATM   19  N   UNL     1       7.802  30.842  61.002  1.00  0.00    -0.348 N 
HETATM   20  C   UNL     1       8.336  31.822  61.808  1.00  0.00     0.252 C 
HETATM   21  O   UNL     1       9.519  32.140  61.720  1.00  0.00    -0.268 OA
HETATM   22  H   UNL     1       6.910  30.419  61.216  1.00  0.00     0.163 HD
BRANCH  20  23
HETATM   23  C   UNL     1       7.460  32.447  62.842  1.00  0.00     0.035 A 
HETATM   24  C   UNL     1       6.091  32.541  62.559  1.00  0.00     0.059 A 
HETATM   25  C   UNL     1       5.228  33.102  63.494  1.00  0.00     0.117 A 
HETATM   26  F   UNL     1       3.920  33.185  63.215  1.00  0.00    -0.206 F 
HETATM   27  C   UNL     1       5.698  33.574  64.712  1.00  0.00     0.042 A 
HETATM   28  C   UNL     1       7.057  33.478  65.006  1.00  0.00     0.004 A 
HETATM   29  C   UNL     1       7.937  32.911  64.078  1.00  0.00     0.017 A 
ENDBRANCH  20  23
ENDBRANCH  18  19
ENDBRANCH   2  18
TORSDOF 5
ENDMDL
MODEL 8
REMARK VINA RESULT:      -8.9      4.048      6.042
REMARK  5 active torsions:
REMARK  status: ('A' for Active; 'I' for Inactive)
REMARK    1  A    between atoms: C_7  and  C_8 
REMARK    2  A    between atoms: N_9  and  N_10 
REMARK       I    between atoms: N_10  and  C_11 
REMARK    3  A    between atoms: C_11  and  C_12 
REMARK    4  A    between atoms: C_12  and  N_13 
REMARK       I    between atoms: N_13  and  C_14 
REMARK    5  A    between atoms: C_14  and  C_15 
ROOT
HETATM    1  N   UNL     1       8.985  30.274  59.256  1.00  0.00    -0.246 N 
HETATM    2  C   UNL     1       9.666  31.481  59.231  1.00  0.00     0.255 C 
HETATM    3  O   UNL     1      10.057  32.059  58.219  1.00  0.00    -0.270 OA
HETATM    4  H   UNL     1       8.831  29.812  60.155  1.00  0.00     0.192 HD
ENDROOT
BRANCH   1   5
HETATM    5  N   UNL     1       8.672  29.631  58.094  1.00  0.00    -0.184 NA
HETATM    6  C   UNL     1       7.692  28.790  58.176  1.00  0.00     0.153 C 
BRANCH   6   7
HETATM    7  C   UNL     1       7.283  28.022  57.014  1.00  0.00     0.018 A 
HETATM    8  C   UNL     1       6.464  28.449  55.977  1.00  0.00     0.018 A 
HETATM    9  C   UNL     1       5.779  29.749  55.740  1.00  0.00     0.069 C 
HETATM   10  N   UNL     1       6.351  27.414  55.081  1.00  0.00    -0.358 N 
HETATM   11  H   UNL     1       5.816  27.445  54.225  1.00  0.00     0.166 HD
HETATM   12  C   UNL     1       7.070  26.323  55.506  1.00  0.00     0.043 A 
HETATM   13  C   UNL     1       7.665  26.670  56.718  1.00  0.00     0.004 A 
HETATM   14  C   UNL     1       7.234  25.067  54.910  1.00  0.00     0.030 A 
HETATM   15  C   UNL     1       8.461  25.705  57.371  1.00  0.00     0.014 A 
HETATM   16  C   UNL     1       8.633  24.442  56.792  1.00  0.00     0.001 A 
HETATM   17  C   UNL     1       8.029  24.132  55.577  1.00  0.00     0.002 A 
ENDBRANCH   6   7
ENDBRANCH   1   5
BRANCH   2  18
HETATM   18  C   UNL     1      10.019  31.999  60.628  1.00  0.00     0.227 C 
BRANCH  18  19
HETATM   19  N   UNL     1       8.882  32.487  61.401  1.00  0.00    -0.348 N 
HETATM   20  C   UNL     1       8.297  31.729  62.390  1.00  0.00     0.252 C 
HETATM   21  O   UNL     1       8.604  30.551  62.551  1.00  0.00    -0.268 OA
HETATM   22  H   UNL     1       8.483  33.369  61.113  1.00  0.00     0.163 HD
BRANCH  20  23
HETATM   23  C   UNL     1       7.227  32.352  63.222  1.00  0.00     0.035 A 
HETATM   24  C   UNL     1       7.613  32.964  64.421  1.00  0.00     0.059 A 
HETATM   25  C   UNL     1       6.658  33.573  65.227  1.00  0.00     0.117 A 
HETATM   26  F   UNL     1       7.038  34.158  66.371  1.00  0.00    -0.206 F 
HETATM   27  C   UNL     1       5.318  33.587  64.866  1.00  0.00     0.042 A 
HETATM   28  C   UNL     1       4.923  32.988  63.671  1.00  0.00     0.004 A 
HETATM   29  C   UNL     1       5.874  32.377  62.846  1.00  0.00     0.017 A 
ENDBRANCH  20  23
ENDBRANCH  18  19
ENDBRANCH   2  18
TORSDOF 5
ENDMDL
MODEL 9
REMARK VINA RESULT:      -8.8      5.576      9.001
REMARK  5 active torsions:
REMARK  status: ('A' for Active; 'I' for Inactive)
REMARK    1  A    between atoms: C_7  and  C_8 
REMARK    2  A    between atoms: N_9  and  N_10 
REMARK       I    between atoms: N_10  and  C_11 
REMARK    3  A    between atoms: C_11  and  C_12 
REMARK    4  A    between atoms: C_12  and  N_13 
REMARK       I    between atoms: N_13  and  C_14 
REMARK    5  A    between atoms: C_14  and  C_15 
ROOT
HETATM    1  N   UNL     1       5.790  26.854  51.572  1.00  0.00    -0.246 N 
HETATM    2  C   UNL     1       5.696  26.971  52.950  1.00  0.00     0.255 C 
HETATM    3  O   UNL     1       4.696  27.332  53.570  1.00  0.00    -0.270 OA
HETATM    4  H   UNL     1       6.707  26.683  51.154  1.00  0.00     0.192 HD
ENDROOT
BRANCH   1   5
HETATM    5  N   UNL     1       4.715  27.126  50.779  1.00  0.00    -0.184 NA
HETATM    6  C   UNL     1       4.745  26.583  49.604  1.00  0.00     0.153 C 
BRANCH   6   7
HETATM    7  C   UNL     1       3.672  26.822  48.657  1.00  0.00     0.018 A 
HETATM    8  C   UNL     1       2.922  25.865  47.986  1.00  0.00     0.018 A 
HETATM    9  C   UNL     1       2.977  24.378  48.016  1.00  0.00     0.069 C 
HETATM   10  N   UNL     1       2.006  26.525  47.204  1.00  0.00    -0.358 N 
HETATM   11  H   UNL     1       1.324  26.076  46.608  1.00  0.00     0.166 HD
HETATM   12  C   UNL     1       2.138  27.884  47.343  1.00  0.00     0.043 A 
HETATM   13  C   UNL     1       3.178  28.106  48.246  1.00  0.00     0.004 A 
HETATM   14  C   UNL     1       1.421  28.924  46.739  1.00  0.00     0.030 A 
HETATM   15  C   UNL     1       3.521  29.439  48.555  1.00  0.00     0.014 A 
HETATM   16  C   UNL     1       2.817  30.492  47.958  1.00  0.00     0.001 A 
HETATM   17  C   UNL     1       1.780  30.234  47.065  1.00  0.00     0.002 A 
ENDBRANCH   6   7
ENDBRANCH   1   5
BRANCH   2  18
HETATM   18  C   UNL     1       7.027  26.727  53.666  1.00  0.00     0.227 C 
BRANCH  18  19
HETATM   19  N   UNL     1       7.496  25.346  53.623  1.00  0.00    -0.348 N 
HETATM   20  C   UNL     1       7.120  24.421  54.571  1.00  0.00     0.252 C 
HETATM   21  O   UNL     1       6.506  24.761  55.579  1.00  0.00    -0.268 OA
HETATM   22  H   UNL     1       8.185  25.122  52.920  1.00  0.00     0.163 HD
BRANCH  20  23
HETATM   23  C   UNL     1       7.534  23.000  54.380  1.00  0.00     0.035 A 
HETATM   24  C   UNL     1       7.558  22.176  55.512  1.00  0.00     0.059 A 
HETATM   25  C   UNL     1       7.922  20.840  55.388  1.00  0.00     0.117 A 
HETATM   26  F   UNL     1       7.939  20.059  56.477  1.00  0.00    -0.206 F 
HETATM   27  C   UNL     1       8.266  20.301  54.156  1.00  0.00     0.042 A 
HETATM   28  C   UNL     1       8.238  21.111  53.022  1.00  0.00     0.004 A 
HETATM   29  C   UNL     1       7.867  22.456  53.130  1.00  0.00     0.017 A 
ENDBRANCH  20  23
ENDBRANCH  18  19
ENDBRANCH   2  18
TORSDOF 5
ENDMDL
MODEL 10
REMARK VINA RESULT:      -8.8      5.749      8.323
REMARK  5 active torsions:
REMARK  status: ('A' for Active; 'I' for Inactive)
REMARK    1  A    between atoms: C_7  and  C_8 
REMARK    2  A    between atoms: N_9  and  N_10 
REMARK       I    between atoms: N_10  and  C_11 
REMARK    3  A    between atoms: C_11  and  C_12 
REMARK    4  A    between atoms: C_12  and  N_13 
REMARK       I    between atoms: N_13  and  C_14 
REMARK    5  A    between atoms: C_14  and  C_15 
ROOT
HETATM    1  N   UNL     1       5.396  26.676  53.483  1.00  0.00    -0.246 N 
HETATM    2  C   UNL     1       4.947  26.468  52.188  1.00  0.00     0.255 C 
HETATM    3  O   UNL     1       4.878  25.377  51.623  1.00  0.00    -0.270 OA
HETATM    4  H   UNL     1       5.547  27.635  53.805  1.00  0.00     0.192 HD
ENDROOT
BRANCH   1   5
HETATM    5  N   UNL     1       5.789  25.625  54.258  1.00  0.00    -0.184 NA
HETATM    6  C   UNL     1       7.052  25.349  54.214  1.00  0.00     0.153 C 
BRANCH   6   7
HETATM    7  C   UNL     1       7.588  24.233  54.972  1.00  0.00     0.018 A 
HETATM    8  C   UNL     1       7.934  24.226  56.317  1.00  0.00     0.018 A 
HETATM    9  C   UNL     1       7.877  25.298  57.349  1.00  0.00     0.069 C 
HETATM   10  N   UNL     1       8.381  22.966  56.627  1.00  0.00    -0.358 N 
HETATM   11  H   UNL     1       8.697  22.672  57.541  1.00  0.00     0.166 HD
HETATM   12  C   UNL     1       8.339  22.150  55.524  1.00  0.00     0.043 A 
HETATM   13  C   UNL     1       7.849  22.915  54.466  1.00  0.00     0.004 A 
HETATM   14  C   UNL     1       8.697  20.803  55.386  1.00  0.00     0.030 A 
HETATM   15  C   UNL     1       7.717  22.300  53.202  1.00  0.00     0.014 A 
HETATM   16  C   UNL     1       8.074  20.956  53.045  1.00  0.00     0.001 A 
HETATM   17  C   UNL     1       8.555  20.220  54.125  1.00  0.00     0.002 A 
ENDBRANCH   6   7
ENDBRANCH   1   5
BRANCH   2  18
HETATM   18  C   UNL     1       4.650  27.770  51.440  1.00  0.00     0.227 C 
BRANCH  18  19
HETATM   19  N   UNL     1       3.715  27.632  50.328  1.00  0.00    -0.348 N 
HETATM   20  C   UNL     1       2.801  28.614  50.022  1.00  0.00     0.252 C 
HETATM   21  O   UNL     1       2.626  29.574  50.768  1.00  0.00    -0.268 OA
HETATM   22  H   UNL     1       3.704  26.742  49.852  1.00  0.00     0.163 HD
BRANCH  20  23
HETATM   23  C   UNL     1       1.973  28.454  48.791  1.00  0.00     0.035 A 
HETATM   24  C   UNL     1       1.408  29.610  48.236  1.00  0.00     0.059 A 
HETATM   25  C   UNL     1       0.640  29.519  47.081  1.00  0.00     0.117 A 
HETATM   26  F   UNL     1       0.106  30.630  46.556  1.00  0.00    -0.206 F 
HETATM   27  C   UNL     1       0.419  28.297  46.460  1.00  0.00     0.042 A 
HETATM   28  C   UNL     1       0.982  27.142  46.999  1.00  0.00     0.004 A 
HETATM   29  C   UNL     1       1.763  27.219  48.158  1.00  0.00     0.017 A 
ENDBRANCH  20  23
ENDBRANCH  18  19
ENDBRANCH   2  18
TORSDOF 5
ENDMDL
