MODEL 1
REMARK VINA RESULT:     -11.2      0.000      0.000
REMARK  6 active torsions:
REMARK  status: ('A' for Active; 'I' for Inactive)
REMARK    1  A    between atoms: C_2  and  O_3 
REMARK    2  A    between atoms: O_3  and  C_4 
REMARK    3  A    between atoms: C_5  and  C_6 
REMARK       I    between atoms: C_6  and  N_7 
REMARK    4  A    between atoms: N_7  and  C_8 
REMARK    5  A    between atoms: N_9  and  C_10 
REMARK    6  A    between atoms: C_22  and  C_23 
ROOT
HETATM    1  C   UNL     1       5.548  26.007  52.487  1.00  0.00     0.152 A 
HETATM    2  N   UNL     1       5.206  27.340  52.660  1.00  0.00    -0.044 N 
HETATM    3  N   UNL     1       4.616  27.877  51.550  1.00  0.00    -0.148 NA
HETATM    4  C   UNL     1       4.606  26.864  50.673  1.00  0.00     0.115 A 
HETATM    5  C   UNL     1       5.197  25.695  51.195  1.00  0.00     0.087 A 
ENDROOT
BRANCH   1   6
HETATM    6  N   UNL     1       6.094  25.252  53.512  1.00  0.00    -0.307 N 
HETATM    7  C   UNL     1       7.444  25.004  53.639  1.00  0.00     0.261 C 
HETATM    8  O   UNL     1       8.363  25.546  53.040  1.00  0.00    -0.267 OA
HETATM    9  H   UNL     1       5.446  24.805  54.162  1.00  0.00     0.170 HD
BRANCH   7  10
HETATM   10  C   UNL     1       7.742  23.961  54.648  1.00  0.00     0.076 A 
HETATM   11  C   UNL     1       7.785  24.360  55.998  1.00  0.00     0.085 A 
HETATM   12  C   UNL     1       8.088  23.407  56.967  1.00  0.00     0.039 A 
HETATM   13  C   UNL     1       8.355  22.087  56.594  1.00  0.00     0.015 A 
HETATM   14  C   UNL     1       8.325  21.686  55.248  1.00  0.00    -0.025 A 
HETATM   15  C   UNL     1       8.007  22.629  54.242  1.00  0.00    -0.007 A 
HETATM   16  C   UNL     1       8.614  20.358  54.896  1.00  0.00     0.012 A 
HETATM   17  C   UNL     1       7.986  22.187  52.899  1.00  0.00     0.013 A 
HETATM   18  C   UNL     1       8.279  20.863  52.564  1.00  0.00     0.001 A 
HETATM   19  C   UNL     1       8.594  19.950  53.562  1.00  0.00     0.001 A 
BRANCH  11  20
HETATM   20  O   UNL     1       7.546  25.683  56.254  1.00  0.00    -0.350 OA
BRANCH  20  21
HETATM   21  C   UNL     1       6.759  26.020  57.393  1.00  0.00     0.171 C 
HETATM   22  C   UNL     1       5.299  25.915  56.988  1.00  0.00     0.034 C 
ENDBRANCH  20  21
ENDBRANCH  11  20
ENDBRANCH   7  10
ENDBRANCH   1   6
BRANCH   2  23
HETATM   23  C   UNL     1       5.406  28.141  53.802  1.00  0.00     0.732 A 
HETATM   24  N   UNL     1       4.435  28.700  54.455  1.00  0.00    -0.067 NA
HETATM   25  C   UNL     1       4.790  29.425  55.570  1.00  0.00     0.065 A 
HETATM   26  C   UNL     1       6.058  29.589  55.994  1.00  0.00     0.036 A 
HETATM   27  C   UNL     1       3.630  30.019  56.337  1.00  0.00     0.060 C 
HETATM   28  C   UNL     1       6.452  30.376  57.210  1.00  0.00     0.046 C 
HETATM   29  C   UNL     1       7.143  28.947  55.211  1.00  0.00     0.268 A 
HETATM   30  C   UNL     1       5.309  31.223  57.772  1.00  0.00     0.005 C 
HETATM   31  C   UNL     1       3.994  30.452  57.758  1.00  0.00     0.006 C 
HETATM   32  O   UNL     1       8.323  29.044  55.524  1.00  0.00    -0.267 OA
HETATM   33  N   UNL     1       6.728  28.239  54.128  1.00  0.00    -0.152 N 
HETATM   34  H   UNL     1       7.417  27.764  53.553  1.00  0.00     0.188 HD
ENDBRANCH   2  23
BRANCH   4  35
HETATM   35  C   UNL     1       4.006  26.982  49.312  1.00  0.00     0.105 A 
HETATM   36  O   UNL     1       3.709  28.167  48.695  1.00  0.00    -0.320 OA
HETATM   37  C   UNL     1       3.198  27.871  47.473  1.00  0.00     0.142 A 
HETATM   38  C   UNL     1       3.157  26.510  47.284  1.00  0.00     0.027 A 
HETATM   39  C   UNL     1       3.676  25.935  48.471  1.00  0.00     0.041 A 
ENDBRANCH   4  35
TORSDOF 6
ENDMDL
MODEL 2
REMARK VINA RESULT:     -11.0      0.959      1.586
REMARK  6 active torsions:
REMARK  status: ('A' for Active; 'I' for Inactive)
REMARK    1  A    between atoms: C_2  and  O_3 
REMARK    2  A    between atoms: O_3  and  C_4 
REMARK    3  A    between atoms: C_5  and  C_6 
REMARK       I    between atoms: C_6  and  N_7 
REMARK    4  A    between atoms: N_7  and  C_8 
REMARK    5  A    between atoms: N_9  and  C_10 
REMARK    6  A    between atoms: C_22  and  C_23 
ROOT
HETATM    1  C   UNL     1       5.568  25.883  52.542  1.00  0.00     0.152 A 
HETATM    2  N   UNL     1       5.255  27.222  52.721  1.00  0.00    -0.044 N 
HETATM    3  N   UNL     1       4.656  27.771  51.622  1.00  0.00    -0.148 NA
HETATM    4  C   UNL     1       4.611  26.759  50.744  1.00  0.00     0.115 A 
HETATM    5  C   UNL     1       5.189  25.578  51.255  1.00  0.00     0.087 A 
ENDROOT
BRANCH   1   6
HETATM    6  N   UNL     1       6.117  25.116  53.556  1.00  0.00    -0.307 N 
HETATM    7  C   UNL     1       7.459  24.812  53.639  1.00  0.00     0.261 C 
HETATM    8  O   UNL     1       8.378  25.308  53.003  1.00  0.00    -0.267 OA
HETATM    9  H   UNL     1       5.474  24.704  54.234  1.00  0.00     0.170 HD
BRANCH   7  10
HETATM   10  C   UNL     1       7.747  23.768  54.651  1.00  0.00     0.076 A 
HETATM   11  C   UNL     1       7.736  24.157  56.005  1.00  0.00     0.085 A 
HETATM   12  C   UNL     1       8.029  23.205  56.977  1.00  0.00     0.039 A 
HETATM   13  C   UNL     1       8.339  21.894  56.603  1.00  0.00     0.015 A 
HETATM   14  C   UNL     1       8.363  21.503  55.254  1.00  0.00    -0.025 A 
HETATM   15  C   UNL     1       8.057  22.446  54.245  1.00  0.00    -0.007 A 
HETATM   16  C   UNL     1       8.695  20.185  54.902  1.00  0.00     0.012 A 
HETATM   17  C   UNL     1       8.092  22.014  52.899  1.00  0.00     0.013 A 
HETATM   18  C   UNL     1       8.427  20.700  52.565  1.00  0.00     0.001 A 
HETATM   19  C   UNL     1       8.730  19.787  53.566  1.00  0.00     0.001 A 
BRANCH  11  20
HETATM   20  O   UNL     1       7.457  25.472  56.262  1.00  0.00    -0.350 OA
BRANCH  20  21
HETATM   21  C   UNL     1       6.679  25.787  57.413  1.00  0.00     0.171 C 
HETATM   22  C   UNL     1       5.218  25.732  57.007  1.00  0.00     0.034 C 
ENDBRANCH  20  21
ENDBRANCH  11  20
ENDBRANCH   7  10
ENDBRANCH   1   6
BRANCH   2  23
HETATM   23  C   UNL     1       5.490  28.017  53.860  1.00  0.00     0.732 A 
HETATM   24  N   UNL     1       6.628  28.049  54.481  1.00  0.00    -0.067 NA
HETATM   25  C   UNL     1       6.709  28.902  55.559  1.00  0.00     0.065 A 
HETATM   26  C   UNL     1       5.692  29.668  55.995  1.00  0.00     0.036 A 
HETATM   27  C   UNL     1       8.065  28.953  56.226  1.00  0.00     0.060 C 
HETATM   28  C   UNL     1       5.774  30.602  57.167  1.00  0.00     0.046 C 
HETATM   29  C   UNL     1       4.400  29.592  55.268  1.00  0.00     0.268 A 
HETATM   30  C   UNL     1       7.034  30.396  58.010  1.00  0.00     0.005 C 
HETATM   31  C   UNL     1       8.257  30.174  57.128  1.00  0.00     0.006 C 
HETATM   32  O   UNL     1       3.423  30.255  55.597  1.00  0.00    -0.267 OA
HETATM   33  N   UNL     1       4.386  28.740  54.210  1.00  0.00    -0.152 N 
HETATM   34  H   UNL     1       3.538  28.647  53.661  1.00  0.00     0.188 HD
ENDBRANCH   2  23
BRANCH   4  35
HETATM   35  C   UNL     1       3.990  26.890  49.394  1.00  0.00     0.105 A 
HETATM   36  O   UNL     1       3.671  28.080  48.799  1.00  0.00    -0.320 OA
HETATM   37  C   UNL     1       3.145  27.796  47.581  1.00  0.00     0.142 A 
HETATM   38  C   UNL     1       3.117  26.438  47.373  1.00  0.00     0.027 A 
HETATM   39  C   UNL     1       3.660  25.852  48.542  1.00  0.00     0.041 A 
ENDBRANCH   4  35
TORSDOF 6
ENDMDL
MODEL 3
REMARK VINA RESULT:      -9.8      1.986      7.522
REMARK  6 active torsions:
REMARK  status: ('A' for Active; 'I' for Inactive)
REMARK    1  A    between atoms: C_2  and  O_3 
REMARK    2  A    between atoms: O_3  and  C_4 
REMARK    3  A    between atoms: C_5  and  C_6 
REMARK       I    between atoms: C_6  and  N_7 
REMARK    4  A    between atoms: N_7  and  C_8 
REMARK    5  A    between atoms: N_9  and  C_10 
REMARK    6  A    between atoms: C_22  and  C_23 
ROOT
HETATM    1  C   UNL     1       5.775  25.926  54.013  1.00  0.00     0.152 A 
HETATM    2  N   UNL     1       5.855  25.627  52.661  1.00  0.00    -0.044 N 
HETATM    3  N   UNL     1       6.443  24.416  52.426  1.00  0.00    -0.148 NA
HETATM    4  C   UNL     1       6.745  23.965  53.651  1.00  0.00     0.115 A 
HETATM    5  C   UNL     1       6.378  24.876  54.664  1.00  0.00     0.087 A 
ENDROOT
BRANCH   1   6
HETATM    6  N   UNL     1       5.151  27.073  54.475  1.00  0.00    -0.307 N 
HETATM    7  C   UNL     1       5.812  28.262  54.698  1.00  0.00     0.261 C 
HETATM    8  O   UNL     1       6.944  28.564  54.348  1.00  0.00    -0.267 OA
HETATM    9  H   UNL     1       4.163  27.002  54.723  1.00  0.00     0.170 HD
BRANCH   7  10
HETATM   10  C   UNL     1       4.986  29.244  55.438  1.00  0.00     0.076 A 
HETATM   11  C   UNL     1       5.011  29.184  56.845  1.00  0.00     0.085 A 
HETATM   12  C   UNL     1       4.224  30.078  57.567  1.00  0.00     0.039 A 
HETATM   13  C   UNL     1       3.420  31.004  56.897  1.00  0.00     0.015 A 
HETATM   14  C   UNL     1       3.382  31.061  55.494  1.00  0.00    -0.025 A 
HETATM   15  C   UNL     1       4.180  30.174  54.734  1.00  0.00    -0.007 A 
HETATM   16  C   UNL     1       2.552  31.988  54.843  1.00  0.00     0.012 A 
HETATM   17  C   UNL     1       4.115  30.263  53.324  1.00  0.00     0.013 A 
HETATM   18  C   UNL     1       3.282  31.189  52.691  1.00  0.00     0.001 A 
HETATM   19  C   UNL     1       2.500  32.049  53.450  1.00  0.00     0.001 A 
BRANCH  11  20
HETATM   20  O   UNL     1       5.802  28.217  57.402  1.00  0.00    -0.350 OA
BRANCH  20  21
HETATM   21  C   UNL     1       7.099  28.586  57.863  1.00  0.00     0.171 C 
HETATM   22  C   UNL     1       8.054  27.466  57.489  1.00  0.00     0.034 C 
ENDBRANCH  20  21
ENDBRANCH  11  20
ENDBRANCH   7  10
ENDBRANCH   1   6
BRANCH   2  23
HETATM   23  C   UNL     1       5.417  26.413  51.577  1.00  0.00     0.732 A 
HETATM   24  N   UNL     1       5.692  27.675  51.459  1.00  0.00    -0.067 NA
HETATM   25  C   UNL     1       5.218  28.297  50.325  1.00  0.00     0.065 A 
HETATM   26  C   UNL     1       4.493  27.682  49.371  1.00  0.00     0.036 A 
HETATM   27  C   UNL     1       5.601  29.754  50.194  1.00  0.00     0.060 C 
HETATM   28  C   UNL     1       3.977  28.353  48.132  1.00  0.00     0.046 C 
HETATM   29  C   UNL     1       4.186  26.241  49.550  1.00  0.00     0.268 A 
HETATM   30  C   UNL     1       4.097  29.877  48.181  1.00  0.00     0.005 C 
HETATM   31  C   UNL     1       5.433  30.305  48.777  1.00  0.00     0.006 C 
HETATM   32  O   UNL     1       3.534  25.603  48.732  1.00  0.00    -0.267 OA
HETATM   33  N   UNL     1       4.688  25.683  50.683  1.00  0.00    -0.152 N 
HETATM   34  H   UNL     1       4.525  24.698  50.863  1.00  0.00     0.188 HD
ENDBRANCH   2  23
BRANCH   4  35
HETATM   35  C   UNL     1       7.376  22.634  53.889  1.00  0.00     0.105 A 
HETATM   36  O   UNL     1       7.499  22.043  55.116  1.00  0.00    -0.320 OA
HETATM   37  C   UNL     1       8.104  20.842  54.929  1.00  0.00     0.142 A 
HETATM   38  C   UNL     1       8.377  20.643  53.597  1.00  0.00     0.027 A 
HETATM   39  C   UNL     1       7.910  21.799  52.925  1.00  0.00     0.041 A 
ENDBRANCH   4  35
TORSDOF 6
ENDMDL
MODEL 4
REMARK VINA RESULT:      -9.6      2.277      6.735
REMARK  6 active torsions:
REMARK  status: ('A' for Active; 'I' for Inactive)
REMARK    1  A    between atoms: C_2  and  O_3 
REMARK    2  A    between atoms: O_3  and  C_4 
REMARK    3  A    between atoms: C_5  and  C_6 
REMARK       I    between atoms: C_6  and  N_7 
REMARK    4  A    between atoms: N_7  and  C_8 
REMARK    5  A    between atoms: N_9  and  C_10 
REMARK    6  A    between atoms: C_22  and  C_23 
ROOT
HETATM    1  C   UNL     1       6.923  25.650  53.650  1.00  0.00     0.152 A 
HETATM    2  N   UNL     1       7.423  25.697  54.942  1.00  0.00    -0.044 N 
HETATM    3  N   UNL     1       7.900  24.488  55.364  1.00  0.00    -0.148 NA
HETATM    4  C   UNL     1       7.679  23.677  54.321  1.00  0.00     0.115 A 
HETATM    5  C   UNL     1       7.051  24.341  53.247  1.00  0.00     0.087 A 
ENDROOT
BRANCH   1   6
HETATM    6  N   UNL     1       6.455  26.781  53.002  1.00  0.00    -0.307 N 
HETATM    7  C   UNL     1       5.128  26.986  52.691  1.00  0.00     0.261 C 
HETATM    8  O   UNL     1       4.160  26.354  53.094  1.00  0.00    -0.267 OA
HETATM    9  H   UNL     1       7.148  27.461  52.684  1.00  0.00     0.170 HD
BRANCH   7  10
HETATM   10  C   UNL     1       4.926  28.130  51.773  1.00  0.00     0.076 A 
HETATM   11  C   UNL     1       4.852  29.416  52.345  1.00  0.00     0.085 A 
HETATM   12  C   UNL     1       4.636  30.508  51.510  1.00  0.00     0.039 A 
HETATM   13  C   UNL     1       4.484  30.320  50.133  1.00  0.00     0.015 A 
HETATM   14  C   UNL     1       4.546  29.040  49.558  1.00  0.00    -0.025 A 
HETATM   15  C   UNL     1       4.777  27.912  50.380  1.00  0.00    -0.007 A 
HETATM   16  C   UNL     1       4.372  28.873  48.175  1.00  0.00     0.012 A 
HETATM   17  C   UNL     1       4.832  26.640  49.764  1.00  0.00     0.013 A 
HETATM   18  C   UNL     1       4.655  26.491  48.386  1.00  0.00     0.001 A 
HETATM   19  C   UNL     1       4.423  27.607  47.593  1.00  0.00     0.001 A 
BRANCH  11  20
HETATM   20  O   UNL     1       4.975  29.488  53.706  1.00  0.00    -0.350 OA
BRANCH  20  21
HETATM   21  C   UNL     1       3.911  30.071  54.453  1.00  0.00     0.171 C 
HETATM   22  C   UNL     1       4.472  31.279  55.181  1.00  0.00     0.034 C 
ENDBRANCH  20  21
ENDBRANCH  11  20
ENDBRANCH   7  10
ENDBRANCH   1   6
BRANCH   2  23
HETATM   23  C   UNL     1       7.473  26.809  55.807  1.00  0.00     0.732 A 
HETATM   24  N   UNL     1       8.578  27.408  56.129  1.00  0.00    -0.067 NA
HETATM   25  C   UNL     1       8.457  28.500  56.959  1.00  0.00     0.065 A 
HETATM   26  C   UNL     1       7.287  28.953  57.448  1.00  0.00     0.036 A 
HETATM   27  C   UNL     1       9.758  29.205  57.272  1.00  0.00     0.060 C 
HETATM   28  C   UNL     1       7.149  30.145  58.350  1.00  0.00     0.046 C 
HETATM   29  C   UNL     1       6.047  28.232  57.069  1.00  0.00     0.268 A 
HETATM   30  C   UNL     1       8.488  30.635  58.906  1.00  0.00     0.005 C 
HETATM   31  C   UNL     1       9.569  30.616  57.832  1.00  0.00     0.006 C 
HETATM   32  O   UNL     1       4.941  28.576  57.468  1.00  0.00    -0.267 OA
HETATM   33  N   UNL     1       6.231  27.169  56.242  1.00  0.00    -0.152 N 
HETATM   34  H   UNL     1       5.423  26.637  55.934  1.00  0.00     0.188 HD
ENDBRANCH   2  23
BRANCH   4  35
HETATM   35  C   UNL     1       8.086  22.241  54.315  1.00  0.00     0.105 A 
HETATM   36  O   UNL     1       8.389  21.517  55.435  1.00  0.00    -0.320 OA
HETATM   37  C   UNL     1       8.694  20.257  55.033  1.00  0.00     0.142 A 
HETATM   38  C   UNL     1       8.595  20.150  53.666  1.00  0.00     0.027 A 
HETATM   39  C   UNL     1       8.205  21.430  53.201  1.00  0.00     0.041 A 
ENDBRANCH   4  35
TORSDOF 6
ENDMDL
MODEL 5
REMARK VINA RESULT:      -9.6      1.939      7.446
REMARK  6 active torsions:
REMARK  status: ('A' for Active; 'I' for Inactive)
REMARK    1  A    between atoms: C_2  and  O_3 
REMARK    2  A    between atoms: O_3  and  C_4 
REMARK    3  A    between atoms: C_5  and  C_6 
REMARK       I    between atoms: C_6  and  N_7 
REMARK    4  A    between atoms: N_7  and  C_8 
REMARK    5  A    between atoms: N_9  and  C_10 
REMARK    6  A    between atoms: C_22  and  C_23 
ROOT
HETATM    1  C   UNL     1       6.309  25.963  54.112  1.00  0.00     0.152 A 
HETATM    2  N   UNL     1       6.167  25.613  52.778  1.00  0.00    -0.044 N 
HETATM    3  N   UNL     1       6.577  24.333  52.527  1.00  0.00    -0.148 NA
HETATM    4  C   UNL     1       6.993  23.891  53.722  1.00  0.00     0.115 A 
HETATM    5  C   UNL     1       6.874  24.872  54.729  1.00  0.00     0.087 A 
ENDROOT
BRANCH   1   6
HETATM    6  N   UNL     1       5.888  27.191  54.597  1.00  0.00    -0.307 N 
HETATM    7  C   UNL     1       6.727  28.273  54.761  1.00  0.00     0.261 C 
HETATM    8  O   UNL     1       7.866  28.406  54.336  1.00  0.00    -0.267 OA
HETATM    9  H   UNL     1       4.918  27.265  54.908  1.00  0.00     0.170 HD
BRANCH   7  10
HETATM   10  C   UNL     1       6.101  29.369  55.538  1.00  0.00     0.076 A 
HETATM   11  C   UNL     1       4.957  29.981  54.988  1.00  0.00     0.085 A 
HETATM   12  C   UNL     1       4.362  31.031  55.682  1.00  0.00     0.039 A 
HETATM   13  C   UNL     1       4.906  31.469  56.893  1.00  0.00     0.015 A 
HETATM   14  C   UNL     1       6.053  30.870  57.440  1.00  0.00    -0.025 A 
HETATM   15  C   UNL     1       6.672  29.792  56.764  1.00  0.00    -0.007 A 
HETATM   16  C   UNL     1       6.592  31.339  58.649  1.00  0.00     0.012 A 
HETATM   17  C   UNL     1       7.824  29.215  57.347  1.00  0.00     0.013 A 
HETATM   18  C   UNL     1       8.349  29.695  58.548  1.00  0.00     0.001 A 
HETATM   19  C   UNL     1       7.735  30.757  59.198  1.00  0.00     0.001 A 
BRANCH  11  20
HETATM   20  O   UNL     1       4.527  29.502  53.780  1.00  0.00    -0.350 OA
BRANCH  20  21
HETATM   21  C   UNL     1       3.399  30.123  53.169  1.00  0.00     0.171 C 
HETATM   22  C   UNL     1       2.695  29.070  52.333  1.00  0.00     0.034 C 
ENDBRANCH  20  21
ENDBRANCH  11  20
ENDBRANCH   7  10
ENDBRANCH   1   6
BRANCH   2  23
HETATM   23  C   UNL     1       5.675  26.409  51.725  1.00  0.00     0.732 A 
HETATM   24  N   UNL     1       5.923  27.677  51.619  1.00  0.00    -0.067 NA
HETATM   25  C   UNL     1       5.397  28.309  50.514  1.00  0.00     0.065 A 
HETATM   26  C   UNL     1       4.647  27.697  49.578  1.00  0.00     0.036 A 
HETATM   27  C   UNL     1       5.750  29.775  50.394  1.00  0.00     0.060 C 
HETATM   28  C   UNL     1       4.073  28.380  48.371  1.00  0.00     0.046 C 
HETATM   29  C   UNL     1       4.372  26.249  49.743  1.00  0.00     0.268 A 
HETATM   30  C   UNL     1       4.169  29.905  48.442  1.00  0.00     0.005 C 
HETATM   31  C   UNL     1       5.519  30.347  48.994  1.00  0.00     0.006 C 
HETATM   32  O   UNL     1       3.700  25.613  48.939  1.00  0.00    -0.267 OA
HETATM   33  N   UNL     1       4.926  25.681  50.847  1.00  0.00    -0.152 N 
HETATM   34  H   UNL     1       4.786  24.690  51.016  1.00  0.00     0.188 HD
ENDBRANCH   2  23
BRANCH   4  35
HETATM   35  C   UNL     1       7.496  22.503  53.938  1.00  0.00     0.105 A 
HETATM   36  O   UNL     1       7.518  21.867  55.149  1.00  0.00    -0.320 OA
HETATM   37  C   UNL     1       8.024  20.624  54.944  1.00  0.00     0.142 A 
HETATM   38  C   UNL     1       8.332  20.442  53.617  1.00  0.00     0.027 A 
HETATM   39  C   UNL     1       7.993  21.654  52.967  1.00  0.00     0.041 A 
ENDBRANCH   4  35
TORSDOF 6
ENDMDL
MODEL 6
REMARK VINA RESULT:      -9.5      2.912      7.882
REMARK  6 active torsions:
REMARK  status: ('A' for Active; 'I' for Inactive)
REMARK    1  A    between atoms: C_2  and  O_3 
REMARK    2  A    between atoms: O_3  and  C_4 
REMARK    3  A    between atoms: C_5  and  C_6 
REMARK       I    between atoms: C_6  and  N_7 
REMARK    4  A    between atoms: N_7  and  C_8 
REMARK    5  A    between atoms: N_9  and  C_10 
REMARK    6  A    between atoms: C_22  and  C_23 
ROOT
HETATM    1  C   UNL     1       6.703  27.275  55.667  1.00  0.00     0.152 A 
HETATM    2  N   UNL     1       7.732  27.299  56.596  1.00  0.00    -0.044 N 
HETATM    3  N   UNL     1       8.241  26.055  56.846  1.00  0.00    -0.148 NA
HETATM    4  C   UNL     1       7.505  25.248  56.070  1.00  0.00     0.115 A 
HETATM    5  C   UNL     1       6.522  25.951  55.343  1.00  0.00     0.087 A 
ENDROOT
BRANCH   1   6
HETATM    6  N   UNL     1       6.094  28.435  55.217  1.00  0.00    -0.307 N 
HETATM    7  C   UNL     1       4.797  28.784  55.529  1.00  0.00     0.261 C 
HETATM    8  O   UNL     1       4.072  28.282  56.376  1.00  0.00    -0.267 OA
HETATM    9  H   UNL     1       6.620  29.019  54.566  1.00  0.00     0.170 HD
BRANCH   7  10
HETATM   10  C   UNL     1       4.299  29.918  54.717  1.00  0.00     0.076 A 
HETATM   11  C   UNL     1       3.766  29.622  53.447  1.00  0.00     0.085 A 
HETATM   12  C   UNL     1       3.314  30.669  52.649  1.00  0.00     0.039 A 
HETATM   13  C   UNL     1       3.405  31.988  53.106  1.00  0.00     0.015 A 
HETATM   14  C   UNL     1       3.946  32.291  54.366  1.00  0.00    -0.025 A 
HETATM   15  C   UNL     1       4.402  31.245  55.204  1.00  0.00    -0.007 A 
HETATM   16  C   UNL     1       4.044  33.624  54.795  1.00  0.00     0.012 A 
HETATM   17  C   UNL     1       4.940  31.591  56.465  1.00  0.00     0.013 A 
HETATM   18  C   UNL     1       5.033  32.922  56.876  1.00  0.00     0.001 A 
HETATM   19  C   UNL     1       4.587  33.938  56.041  1.00  0.00     0.001 A 
BRANCH  11  20
HETATM   20  O   UNL     1       3.756  28.303  53.080  1.00  0.00    -0.350 OA
BRANCH  20  21
HETATM   21  C   UNL     1       4.191  27.963  51.766  1.00  0.00     0.171 C 
HETATM   22  C   UNL     1       5.708  27.918  51.783  1.00  0.00     0.034 C 
ENDBRANCH  20  21
ENDBRANCH  11  20
ENDBRANCH   7  10
ENDBRANCH   1   6
BRANCH   2  23
HETATM   23  C   UNL     1       8.261  28.419  57.268  1.00  0.00     0.732 A 
HETATM   24  N   UNL     1       7.599  29.092  58.157  1.00  0.00    -0.067 NA
HETATM   25  C   UNL     1       8.267  30.142  58.747  1.00  0.00     0.065 A 
HETATM   26  C   UNL     1       9.529  30.501  58.444  1.00  0.00     0.036 A 
HETATM   27  C   UNL     1       7.484  30.871  59.815  1.00  0.00     0.060 C 
HETATM   28  C   UNL     1      10.263  31.642  59.086  1.00  0.00     0.046 C 
HETATM   29  C   UNL     1      10.248  29.716  57.410  1.00  0.00     0.268 A 
HETATM   30  C   UNL     1       9.353  32.551  59.914  1.00  0.00     0.005 C 
HETATM   31  C   UNL     1       8.354  31.736  60.727  1.00  0.00     0.006 C 
HETATM   32  O   UNL     1      11.398  29.974  57.074  1.00  0.00    -0.267 OA
HETATM   33  N   UNL     1       9.539  28.689  56.872  1.00  0.00    -0.152 N 
HETATM   34  H   UNL     1       9.975  28.104  56.167  1.00  0.00     0.188 HD
ENDBRANCH   2  23
BRANCH   4  35
HETATM   35  C   UNL     1       7.740  23.777  55.984  1.00  0.00     0.105 A 
HETATM   36  O   UNL     1       8.321  23.026  56.970  1.00  0.00    -0.320 OA
HETATM   37  C   UNL     1       8.347  21.740  56.538  1.00  0.00     0.142 A 
HETATM   38  C   UNL     1       7.791  21.642  55.285  1.00  0.00     0.027 A 
HETATM   39  C   UNL     1       7.401  22.955  54.926  1.00  0.00     0.041 A 
ENDBRANCH   4  35
TORSDOF 6
ENDMDL
MODEL 7
REMARK VINA RESULT:      -9.3      2.019      6.962
REMARK  6 active torsions:
REMARK  status: ('A' for Active; 'I' for Inactive)
REMARK    1  A    between atoms: C_2  and  O_3 
REMARK    2  A    between atoms: O_3  and  C_4 
REMARK    3  A    between atoms: C_5  and  C_6 
REMARK       I    between atoms: C_6  and  N_7 
REMARK    4  A    between atoms: N_7  and  C_8 
REMARK    5  A    between atoms: N_9  and  C_10 
REMARK    6  A    between atoms: C_22  and  C_23 
ROOT
HETATM    1  C   UNL     1       7.322  26.265  54.967  1.00  0.00     0.152 A 
HETATM    2  N   UNL     1       6.577  26.087  53.811  1.00  0.00    -0.044 N 
HETATM    3  N   UNL     1       6.607  24.796  53.363  1.00  0.00    -0.148 NA
HETATM    4  C   UNL     1       7.394  24.169  54.247  1.00  0.00     0.115 A 
HETATM    5  C   UNL     1       7.885  25.041  55.242  1.00  0.00     0.087 A 
ENDROOT
BRANCH   1   6
HETATM    6  N   UNL     1       7.370  27.481  55.629  1.00  0.00    -0.307 N 
HETATM    7  C   UNL     1       7.376  27.600  57.003  1.00  0.00     0.261 C 
HETATM    8  O   UNL     1       7.548  26.715  57.829  1.00  0.00    -0.267 OA
HETATM    9  H   UNL     1       7.331  28.327  55.059  1.00  0.00     0.170 HD
BRANCH   7  10
HETATM   10  C   UNL     1       7.160  28.994  57.456  1.00  0.00     0.076 A 
HETATM   11  C   UNL     1       8.276  29.692  57.959  1.00  0.00     0.085 A 
HETATM   12  C   UNL     1       8.099  30.994  58.417  1.00  0.00     0.039 A 
HETATM   13  C   UNL     1       6.832  31.583  58.385  1.00  0.00     0.015 A 
HETATM   14  C   UNL     1       5.714  30.888  57.896  1.00  0.00    -0.025 A 
HETATM   15  C   UNL     1       5.865  29.568  57.411  1.00  0.00    -0.007 A 
HETATM   16  C   UNL     1       4.447  31.494  57.891  1.00  0.00     0.012 A 
HETATM   17  C   UNL     1       4.716  28.902  56.926  1.00  0.00     0.013 A 
HETATM   18  C   UNL     1       3.462  29.517  56.930  1.00  0.00     0.001 A 
HETATM   19  C   UNL     1       3.328  30.812  57.414  1.00  0.00     0.001 A 
BRANCH  11  20
HETATM   20  O   UNL     1       9.464  29.012  57.981  1.00  0.00    -0.350 OA
BRANCH  20  21
HETATM   21  C   UNL     1      10.604  29.622  57.381  1.00  0.00     0.171 C 
HETATM   22  C   UNL     1      10.328  29.742  55.893  1.00  0.00     0.034 C 
ENDBRANCH  20  21
ENDBRANCH  11  20
ENDBRANCH   7  10
ENDBRANCH   1   6
BRANCH   2  23
HETATM   23  C   UNL     1       5.844  27.058  53.100  1.00  0.00     0.732 A 
HETATM   24  N   UNL     1       5.355  28.124  53.653  1.00  0.00    -0.067 NA
HETATM   25  C   UNL     1       4.691  28.993  52.817  1.00  0.00     0.065 A 
HETATM   26  C   UNL     1       4.517  28.789  51.497  1.00  0.00     0.036 A 
HETATM   27  C   UNL     1       4.179  30.249  53.485  1.00  0.00     0.060 C 
HETATM   28  C   UNL     1       3.797  29.733  50.580  1.00  0.00     0.046 C 
HETATM   29  C   UNL     1       5.078  27.549  50.904  1.00  0.00     0.268 A 
HETATM   30  C   UNL     1       3.019  30.818  51.327  1.00  0.00     0.005 C 
HETATM   31  C   UNL     1       3.825  31.364  52.500  1.00  0.00     0.006 C 
HETATM   32  O   UNL     1       4.967  27.285  49.713  1.00  0.00    -0.267 OA
HETATM   33  N   UNL     1       5.729  26.738  51.778  1.00  0.00    -0.152 N 
HETATM   34  H   UNL     1       6.147  25.878  51.437  1.00  0.00     0.188 HD
ENDBRANCH   2  23
BRANCH   4  35
HETATM   35  C   UNL     1       7.681  22.707  54.178  1.00  0.00     0.105 A 
HETATM   36  O   UNL     1       7.737  21.875  55.263  1.00  0.00    -0.320 OA
HETATM   37  C   UNL     1       8.003  20.626  54.803  1.00  0.00     0.142 A 
HETATM   38  C   UNL     1       8.121  20.632  53.433  1.00  0.00     0.027 A 
HETATM   39  C   UNL     1       7.916  21.974  53.029  1.00  0.00     0.041 A 
ENDBRANCH   4  35
TORSDOF 6
ENDMDL
MODEL 8
REMARK VINA RESULT:      -9.2      6.014     10.573
REMARK  6 active torsions:
REMARK  status: ('A' for Active; 'I' for Inactive)
REMARK    1  A    between atoms: C_2  and  O_3 
REMARK    2  A    between atoms: O_3  and  C_4 
REMARK    3  A    between atoms: C_5  and  C_6 
REMARK       I    between atoms: C_6  and  N_7 
REMARK    4  A    between atoms: N_7  and  C_8 
REMARK    5  A    between atoms: N_9  and  C_10 
REMARK    6  A    between atoms: C_22  and  C_23 
ROOT
HETATM    1  C   UNL     1       5.323  32.805  60.139  1.00  0.00     0.152 A 
HETATM    2  N   UNL     1       6.568  32.278  60.449  1.00  0.00    -0.044 N 
HETATM    3  N   UNL     1       6.873  32.403  61.776  1.00  0.00    -0.148 NA
HETATM    4  C   UNL     1       5.807  33.030  62.291  1.00  0.00     0.115 A 
HETATM    5  C   UNL     1       4.833  33.326  61.314  1.00  0.00     0.087 A 
ENDROOT
BRANCH   1   6
HETATM    6  N   UNL     1       4.788  32.720  58.864  1.00  0.00    -0.307 N 
HETATM    7  C   UNL     1       3.755  31.870  58.528  1.00  0.00     0.261 C 
HETATM    8  O   UNL     1       3.029  31.241  59.284  1.00  0.00    -0.267 OA
HETATM    9  H   UNL     1       5.234  33.271  58.130  1.00  0.00     0.170 HD
BRANCH   7  10
HETATM   10  C   UNL     1       3.549  31.773  57.064  1.00  0.00     0.076 A 
HETATM   11  C   UNL     1       3.019  32.901  56.407  1.00  0.00     0.085 A 
HETATM   12  C   UNL     1       2.790  32.830  55.036  1.00  0.00     0.039 A 
HETATM   13  C   UNL     1       3.072  31.653  54.337  1.00  0.00     0.015 A 
HETATM   14  C   UNL     1       3.590  30.521  54.988  1.00  0.00    -0.025 A 
HETATM   15  C   UNL     1       3.846  30.568  56.379  1.00  0.00    -0.007 A 
HETATM   16  C   UNL     1       3.849  29.344  54.268  1.00  0.00     0.012 A 
HETATM   17  C   UNL     1       4.367  29.408  56.998  1.00  0.00     0.013 A 
HETATM   18  C   UNL     1       4.617  28.244  56.269  1.00  0.00     0.001 A 
HETATM   19  C   UNL     1       4.356  28.211  54.905  1.00  0.00     0.001 A 
BRANCH  11  20
HETATM   20  O   UNL     1       2.743  33.990  57.189  1.00  0.00    -0.350 OA
BRANCH  20  21
HETATM   21  C   UNL     1       2.956  35.288  56.640  1.00  0.00     0.171 C 
HETATM   22  C   UNL     1       4.378  35.699  56.976  1.00  0.00     0.034 C 
ENDBRANCH  20  21
ENDBRANCH  11  20
ENDBRANCH   7  10
ENDBRANCH   1   6
BRANCH   2  23
HETATM   23  C   UNL     1       7.490  31.670  59.574  1.00  0.00     0.732 A 
HETATM   24  N   UNL     1       7.154  30.767  58.706  1.00  0.00    -0.067 NA
HETATM   25  C   UNL     1       8.165  30.292  57.900  1.00  0.00     0.065 A 
HETATM   26  C   UNL     1       9.447  30.697  57.977  1.00  0.00     0.036 A 
HETATM   27  C   UNL     1       7.728  29.280  56.865  1.00  0.00     0.060 C 
HETATM   28  C   UNL     1      10.552  30.186  57.100  1.00  0.00     0.046 C 
HETATM   29  C   UNL     1       9.794  31.720  58.994  1.00  0.00     0.268 A 
HETATM   30  C   UNL     1      10.155  28.946  56.296  1.00  0.00     0.005 C 
HETATM   31  C   UNL     1       8.743  29.081  55.739  1.00  0.00     0.006 C 
HETATM   32  O   UNL     1      10.935  32.145  59.133  1.00  0.00    -0.267 OA
HETATM   33  N   UNL     1       8.753  32.155  59.751  1.00  0.00    -0.152 N 
HETATM   34  H   UNL     1       8.918  32.863  60.459  1.00  0.00     0.188 HD
ENDBRANCH   2  23
BRANCH   4  35
HETATM   35  C   UNL     1       5.679  33.344  63.744  1.00  0.00     0.105 A 
HETATM   36  O   UNL     1       4.501  33.330  64.439  1.00  0.00    -0.320 OA
HETATM   37  C   UNL     1       4.787  33.649  65.727  1.00  0.00     0.142 A 
HETATM   38  C   UNL     1       6.135  33.871  65.881  1.00  0.00     0.027 A 
HETATM   39  C   UNL     1       6.711  33.676  64.602  1.00  0.00     0.041 A 
ENDBRANCH   4  35
TORSDOF 6
ENDMDL
MODEL 9
REMARK VINA RESULT:      -9.1      2.203      6.331
REMARK  6 active torsions:
REMARK  status: ('A' for Active; 'I' for Inactive)
REMARK    1  A    between atoms: C_2  and  O_3 
REMARK    2  A    between atoms: O_3  and  C_4 
REMARK    3  A    between atoms: C_5  and  C_6 
REMARK       I    between atoms: C_6  and  N_7 
REMARK    4  A    between atoms: N_7  and  C_8 
REMARK    5  A    between atoms: N_9  and  C_10 
REMARK    6  A    between atoms: C_22  and  C_23 
ROOT
HETATM    1  C   UNL     1       5.201  28.420  55.074  1.00  0.00     0.152 A 
HETATM    2  N   UNL     1       4.561  29.439  54.384  1.00  0.00    -0.044 N 
HETATM    3  N   UNL     1       4.186  30.468  55.201  1.00  0.00    -0.148 NA
HETATM    4  C   UNL     1       4.587  30.074  56.417  1.00  0.00     0.115 A 
HETATM    5  C   UNL     1       5.195  28.800  56.395  1.00  0.00     0.087 A 
ENDROOT
BRANCH   1   6
HETATM    6  N   UNL     1       5.726  27.313  54.426  1.00  0.00    -0.307 N 
HETATM    7  C   UNL     1       5.509  26.016  54.839  1.00  0.00     0.261 C 
HETATM    8  O   UNL     1       4.694  25.620  55.661  1.00  0.00    -0.267 OA
HETATM    9  H   UNL     1       6.360  27.484  53.645  1.00  0.00     0.170 HD
BRANCH   7  10
HETATM   10  C   UNL     1       6.387  25.042  54.150  1.00  0.00     0.076 A 
HETATM   11  C   UNL     1       6.269  24.940  52.750  1.00  0.00     0.085 A 
HETATM   12  C   UNL     1       7.063  24.015  52.078  1.00  0.00     0.039 A 
HETATM   13  C   UNL     1       7.948  23.200  52.791  1.00  0.00     0.015 A 
HETATM   14  C   UNL     1       8.061  23.290  54.187  1.00  0.00    -0.025 A 
HETATM   15  C   UNL     1       7.277  24.230  54.897  1.00  0.00    -0.007 A 
HETATM   16  C   UNL     1       8.944  22.448  54.884  1.00  0.00     0.012 A 
HETATM   17  C   UNL     1       7.420  24.290  56.302  1.00  0.00     0.013 A 
HETATM   18  C   UNL     1       8.300  23.443  56.981  1.00  0.00     0.001 A 
HETATM   19  C   UNL     1       9.060  22.522  56.272  1.00  0.00     0.001 A 
BRANCH  11  20
HETATM   20  O   UNL     1       5.347  25.756  52.152  1.00  0.00    -0.350 OA
BRANCH  20  21
HETATM   21  C   UNL     1       5.730  26.461  50.974  1.00  0.00     0.171 C 
HETATM   22  C   UNL     1       4.676  26.191  49.916  1.00  0.00     0.034 C 
ENDBRANCH  20  21
ENDBRANCH  11  20
ENDBRANCH   7  10
ENDBRANCH   1   6
BRANCH   2  23
HETATM   23  C   UNL     1       4.275  29.500  53.006  1.00  0.00     0.732 A 
HETATM   24  N   UNL     1       3.124  29.175  52.504  1.00  0.00    -0.067 NA
HETATM   25  C   UNL     1       2.992  29.321  51.141  1.00  0.00     0.065 A 
HETATM   26  C   UNL     1       3.973  29.756  50.328  1.00  0.00     0.036 A 
HETATM   27  C   UNL     1       1.621  28.984  50.598  1.00  0.00     0.060 C 
HETATM   28  C   UNL     1       3.835  29.919  48.843  1.00  0.00     0.046 C 
HETATM   29  C   UNL     1       5.281  30.102  50.938  1.00  0.00     0.268 A 
HETATM   30  C   UNL     1       2.566  29.272  48.284  1.00  0.00     0.005 C 
HETATM   31  C   UNL     1       1.370  29.533  49.193  1.00  0.00     0.006 C 
HETATM   32  O   UNL     1       6.228  30.505  50.273  1.00  0.00    -0.267 OA
HETATM   33  N   UNL     1       5.346  29.946  52.286  1.00  0.00    -0.152 N 
HETATM   34  H   UNL     1       6.208  30.175  52.770  1.00  0.00     0.188 HD
ENDBRANCH   2  23
BRANCH   4  35
HETATM   35  C   UNL     1       4.420  30.918  57.635  1.00  0.00     0.105 A 
HETATM   36  O   UNL     1       3.264  31.011  58.362  1.00  0.00    -0.320 OA
HETATM   37  C   UNL     1       3.503  31.854  59.398  1.00  0.00     0.142 A 
HETATM   38  C   UNL     1       4.799  32.312  59.357  1.00  0.00     0.027 A 
HETATM   39  C   UNL     1       5.391  31.711  58.220  1.00  0.00     0.041 A 
ENDBRANCH   4  35
TORSDOF 6
ENDMDL
MODEL 10
REMARK VINA RESULT:      -9.1      2.806      7.615
REMARK  6 active torsions:
REMARK  status: ('A' for Active; 'I' for Inactive)
REMARK    1  A    between atoms: C_2  and  O_3 
REMARK    2  A    between atoms: O_3  and  C_4 
REMARK    3  A    between atoms: C_5  and  C_6 
REMARK       I    between atoms: C_6  and  N_7 
REMARK    4  A    between atoms: N_7  and  C_8 
REMARK    5  A    between atoms: N_9  and  C_10 
REMARK    6  A    between atoms: C_22  and  C_23 
ROOT
HETATM    1  C   UNL     1       6.538  27.229  53.867  1.00  0.00     0.152 A 
HETATM    2  N   UNL     1       7.178  27.129  55.093  1.00  0.00    -0.044 N 
HETATM    3  N   UNL     1       7.622  25.861  55.350  1.00  0.00    -0.148 NA
HETATM    4  C   UNL     1       7.238  25.165  54.272  1.00  0.00     0.115 A 
HETATM    5  C   UNL     1       6.538  25.959  53.339  1.00  0.00     0.087 A 
ENDROOT
BRANCH   1   6
HETATM    6  N   UNL     1       6.073  28.440  53.379  1.00  0.00    -0.307 N 
HETATM    7  C   UNL     1       4.744  28.693  53.114  1.00  0.00     0.261 C 
HETATM    8  O   UNL     1       3.776  28.022  53.442  1.00  0.00    -0.267 OA
HETATM    9  H   UNL     1       6.769  29.149  53.145  1.00  0.00     0.170 HD
BRANCH   7  10
HETATM   10  C   UNL     1       4.543  29.950  52.356  1.00  0.00     0.076 A 
HETATM   11  C   UNL     1       5.001  29.985  51.024  1.00  0.00     0.085 A 
HETATM   12  C   UNL     1       4.849  31.161  50.295  1.00  0.00     0.039 A 
HETATM   13  C   UNL     1       4.264  32.284  50.888  1.00  0.00     0.015 A 
HETATM   14  C   UNL     1       3.817  32.259  52.219  1.00  0.00    -0.025 A 
HETATM   15  C   UNL     1       3.946  31.073  52.981  1.00  0.00    -0.007 A 
HETATM   16  C   UNL     1       3.249  33.405  52.799  1.00  0.00     0.012 A 
HETATM   17  C   UNL     1       3.483  31.088  54.317  1.00  0.00     0.013 A 
HETATM   18  C   UNL     1       2.923  32.237  54.881  1.00  0.00     0.001 A 
HETATM   19  C   UNL     1       2.808  33.395  54.123  1.00  0.00     0.001 A 
BRANCH  11  20
HETATM   20  O   UNL     1       5.592  28.845  50.550  1.00  0.00    -0.350 OA
BRANCH  20  21
HETATM   21  C   UNL     1       4.912  28.097  49.546  1.00  0.00     0.171 C 
HETATM   22  C   UNL     1       4.886  26.647  49.994  1.00  0.00     0.034 C 
ENDBRANCH  20  21
ENDBRANCH  11  20
ENDBRANCH   7  10
ENDBRANCH   1   6
BRANCH   2  23
HETATM   23  C   UNL     1       7.393  28.150  56.040  1.00  0.00     0.732 A 
HETATM   24  N   UNL     1       8.574  28.545  56.402  1.00  0.00    -0.067 NA
HETATM   25  C   UNL     1       8.617  29.576  57.314  1.00  0.00     0.065 A 
HETATM   26  C   UNL     1       7.527  30.165  57.842  1.00  0.00     0.036 A 
HETATM   27  C   UNL     1      10.008  30.046  57.674  1.00  0.00     0.060 C 
HETATM   28  C   UNL     1       7.567  31.291  58.833  1.00  0.00     0.046 C 
HETATM   29  C   UNL     1       6.193  29.674  57.415  1.00  0.00     0.268 A 
HETATM   30  C   UNL     1       8.961  31.525  59.419  1.00  0.00     0.005 C 
HETATM   31  C   UNL     1      10.035  31.422  58.341  1.00  0.00     0.006 C 
HETATM   32  O   UNL     1       5.150  30.153  57.844  1.00  0.00    -0.267 OA
HETATM   33  N   UNL     1       6.217  28.662  56.508  1.00  0.00    -0.152 N 
HETATM   34  H   UNL     1       5.340  28.286  56.163  1.00  0.00     0.188 HD
ENDBRANCH   2  23
BRANCH   4  35
HETATM   35  C   UNL     1       7.551  23.717  54.093  1.00  0.00     0.105 A 
HETATM   36  O   UNL     1       7.573  22.798  55.107  1.00  0.00    -0.320 OA
HETATM   37  C   UNL     1       7.878  21.595  54.557  1.00  0.00     0.142 A 
HETATM   38  C   UNL     1       8.055  21.717  53.199  1.00  0.00     0.027 A 
HETATM   39  C   UNL     1       7.846  23.086  52.899  1.00  0.00     0.041 A 
ENDBRANCH   4  35
TORSDOF 6
ENDMDL
