MODEL 1
REMARK VINA RESULT:     -10.0      0.000      0.000
REMARK  6 active torsions:
REMARK  status: ('A' for Active; 'I' for Inactive)
REMARK    1  A    between atoms: O_2  and  C_3 
REMARK    2  A    between atoms: C_6  and  C_7 
REMARK       I    between atoms: C_7  and  N_8 
REMARK    3  A    between atoms: N_8  and  N_9 
REMARK    4  A    between atoms: N_13  and  C_14 
REMARK    5  A    between atoms: C_14  and  C_15 
REMARK    6  A    between atoms: C_15  and  C_16 
ROOT
HETATM    1  N   UNL     1       7.486  29.244  55.971  1.00  0.00    -0.166 NA
HETATM    2  C   UNL     1       7.375  27.962  55.831  1.00  0.00     0.157 A 
HETATM    3  C   UNL     1       7.552  26.869  56.884  1.00  0.00     0.279 A 
HETATM    4  O   UNL     1       7.874  27.083  58.035  1.00  0.00    -0.265 OA
HETATM    5  N   UNL     1       7.273  25.678  56.234  1.00  0.00    -0.311 N 
HETATM    6  C   UNL     1       7.029  27.280  54.593  1.00  0.00     0.027 A 
HETATM    7  C   UNL     1       6.970  25.915  54.879  1.00  0.00     0.050 A 
HETATM    8  C   UNL     1       6.660  25.014  53.878  1.00  0.00     0.031 A 
HETATM    9  C   UNL     1       6.425  25.517  52.589  1.00  0.00     0.002 A 
HETATM   10  C   UNL     1       6.496  26.897  52.320  1.00  0.00     0.001 A 
HETATM   11  C   UNL     1       6.799  27.803  53.336  1.00  0.00     0.016 A 
ENDROOT
BRANCH   1  12
HETATM   12  N   UNL     1       7.830  29.705  57.210  1.00  0.00    -0.242 N 
HETATM   13  C   UNL     1       6.937  30.497  57.915  1.00  0.00     0.271 C 
HETATM   14  O   UNL     1       5.818  30.804  57.511  1.00  0.00    -0.266 OA
HETATM   15  H   UNL     1       8.766  29.503  57.556  1.00  0.00     0.192 HD
BRANCH  13  16
HETATM   16  C   UNL     1       7.399  31.025  59.238  1.00  0.00     0.033 A 
HETATM   17  C   UNL     1       6.766  32.070  59.920  1.00  0.00     0.020 A 
HETATM   18  C   UNL     1       7.254  32.490  61.164  1.00  0.00     0.038 A 
HETATM   19  C   UNL     1       8.374  31.884  61.741  1.00  0.00     0.068 A 
HETATM   20  C   UNL     1       9.020  30.858  61.055  1.00  0.00     0.038 A 
HETATM   21  C   UNL     1       8.534  30.434  59.812  1.00  0.00     0.020 A 
BRANCH  19  22
HETATM   22  O   UNL     1       8.736  32.387  62.960  1.00  0.00    -0.356 OA
HETATM   23  C   UNL     1       7.701  32.962  63.749  1.00  0.00     0.210 C 
ENDBRANCH  19  22
ENDBRANCH  13  16
ENDBRANCH   1  12
BRANCH   5  24
HETATM   24  C   UNL     1       7.329  24.378  56.868  1.00  0.00     0.137 C 
BRANCH  24  25
HETATM   25  C   UNL     1       8.695  23.702  56.689  1.00  0.00     0.059 C 
BRANCH  25  26
HETATM   26  C   UNL     1       8.613  22.500  55.779  1.00  0.00    -0.057 A 
HETATM   27  C   UNL     1       8.962  22.602  54.425  1.00  0.00     0.007 A 
HETATM   28  C   UNL     1       8.862  21.493  53.583  1.00  0.00     0.001 A 
HETATM   29  C   UNL     1       8.420  20.270  54.087  1.00  0.00     0.000 A 
HETATM   30  C   UNL     1       8.081  20.155  55.434  1.00  0.00     0.001 A 
HETATM   31  C   UNL     1       8.176  21.265  56.276  1.00  0.00     0.007 A 
ENDBRANCH  25  26
ENDBRANCH  24  25
ENDBRANCH   5  24
TORSDOF 6
ENDMDL
MODEL 2
REMARK VINA RESULT:      -9.6      4.028      8.299
REMARK  6 active torsions:
REMARK  status: ('A' for Active; 'I' for Inactive)
REMARK    1  A    between atoms: O_2  and  C_3 
REMARK    2  A    between atoms: C_6  and  C_7 
REMARK       I    between atoms: C_7  and  N_8 
REMARK    3  A    between atoms: N_8  and  N_9 
REMARK    4  A    between atoms: N_13  and  C_14 
REMARK    5  A    between atoms: C_14  and  C_15 
REMARK    6  A    between atoms: C_15  and  C_16 
ROOT
HETATM    1  N   UNL     1       5.012  28.985  53.668  1.00  0.00    -0.166 NA
HETATM    2  C   UNL     1       5.531  28.160  54.519  1.00  0.00     0.157 A 
HETATM    3  C   UNL     1       5.538  26.633  54.483  1.00  0.00     0.279 A 
HETATM    4  O   UNL     1       4.993  25.973  53.623  1.00  0.00    -0.265 OA
HETATM    5  N   UNL     1       6.265  26.238  55.594  1.00  0.00    -0.311 N 
HETATM    6  C   UNL     1       6.256  28.541  55.722  1.00  0.00     0.027 A 
HETATM    7  C   UNL     1       6.686  27.362  56.333  1.00  0.00     0.050 A 
HETATM    8  C   UNL     1       7.407  27.418  57.511  1.00  0.00     0.031 A 
HETATM    9  C   UNL     1       7.672  28.682  58.060  1.00  0.00     0.002 A 
HETATM   10  C   UNL     1       7.224  29.860  57.432  1.00  0.00     0.001 A 
HETATM   11  C   UNL     1       6.505  29.797  56.239  1.00  0.00     0.016 A 
ENDROOT
BRANCH   1  12
HETATM   12  N   UNL     1       4.357  28.444  52.599  1.00  0.00    -0.242 N 
HETATM   13  C   UNL     1       4.858  28.641  51.321  1.00  0.00     0.271 C 
HETATM   14  O   UNL     1       5.889  29.261  51.071  1.00  0.00    -0.266 OA
HETATM   15  H   UNL     1       3.477  27.960  52.768  1.00  0.00     0.192 HD
BRANCH  13  16
HETATM   16  C   UNL     1       4.059  28.077  50.187  1.00  0.00     0.033 A 
HETATM   17  C   UNL     1       2.842  28.614  49.753  1.00  0.00     0.020 A 
HETATM   18  C   UNL     1       2.168  28.033  48.671  1.00  0.00     0.038 A 
HETATM   19  C   UNL     1       2.689  26.916  48.012  1.00  0.00     0.068 A 
HETATM   20  C   UNL     1       3.890  26.366  48.456  1.00  0.00     0.038 A 
HETATM   21  C   UNL     1       4.567  26.943  49.535  1.00  0.00     0.020 A 
BRANCH  19  22
HETATM   22  O   UNL     1       1.933  26.459  46.969  1.00  0.00    -0.356 OA
HETATM   23  C   UNL     1       0.795  27.234  46.614  1.00  0.00     0.210 C 
ENDBRANCH  19  22
ENDBRANCH  13  16
ENDBRANCH   1  12
BRANCH   5  24
HETATM   24  C   UNL     1       6.512  24.857  55.950  1.00  0.00     0.137 C 
BRANCH  24  25
HETATM   25  C   UNL     1       7.922  24.397  55.557  1.00  0.00     0.059 C 
BRANCH  25  26
HETATM   26  C   UNL     1       7.911  23.033  54.911  1.00  0.00    -0.057 A 
HETATM   27  C   UNL     1       7.865  21.870  55.693  1.00  0.00     0.007 A 
HETATM   28  C   UNL     1       7.878  20.612  55.089  1.00  0.00     0.001 A 
HETATM   29  C   UNL     1       7.930  20.502  53.700  1.00  0.00     0.000 A 
HETATM   30  C   UNL     1       7.965  21.652  52.913  1.00  0.00     0.001 A 
HETATM   31  C   UNL     1       7.958  22.912  53.515  1.00  0.00     0.007 A 
ENDBRANCH  25  26
ENDBRANCH  24  25
ENDBRANCH   5  24
TORSDOF 6
ENDMDL
MODEL 3
REMARK VINA RESULT:      -9.5      1.231      1.866
REMARK  6 active torsions:
REMARK  status: ('A' for Active; 'I' for Inactive)
REMARK    1  A    between atoms: O_2  and  C_3 
REMARK    2  A    between atoms: C_6  and  C_7 
REMARK       I    between atoms: C_7  and  N_8 
REMARK    3  A    between atoms: N_8  and  N_9 
REMARK    4  A    between atoms: N_13  and  C_14 
REMARK    5  A    between atoms: C_14  and  C_15 
REMARK    6  A    between atoms: C_15  and  C_16 
ROOT
HETATM    1  N   UNL     1       6.109  29.261  55.115  1.00  0.00    -0.166 NA
HETATM    2  C   UNL     1       6.102  27.969  55.054  1.00  0.00     0.157 A 
HETATM    3  C   UNL     1       6.470  26.961  56.140  1.00  0.00     0.279 A 
HETATM    4  O   UNL     1       6.874  27.270  57.243  1.00  0.00    -0.265 OA
HETATM    5  N   UNL     1       6.243  25.713  55.583  1.00  0.00    -0.311 N 
HETATM    6  C   UNL     1       5.708  27.186  53.891  1.00  0.00     0.027 A 
HETATM    7  C   UNL     1       5.799  25.841  54.252  1.00  0.00     0.050 A 
HETATM    8  C   UNL     1       5.483  24.858  53.333  1.00  0.00     0.031 A 
HETATM    9  C   UNL     1       5.088  25.260  52.049  1.00  0.00     0.002 A 
HETATM   10  C   UNL     1       5.010  26.622  51.702  1.00  0.00     0.001 A 
HETATM   11  C   UNL     1       5.320  27.610  52.635  1.00  0.00     0.016 A 
ENDROOT
BRANCH   1  12
HETATM   12  N   UNL     1       6.520  29.824  56.290  1.00  0.00    -0.242 N 
HETATM   13  C   UNL     1       5.616  30.546  57.053  1.00  0.00     0.271 C 
HETATM   14  O   UNL     1       4.432  30.702  56.759  1.00  0.00    -0.266 OA
HETATM   15  H   UNL     1       7.504  29.749  56.541  1.00  0.00     0.192 HD
BRANCH  13  16
HETATM   16  C   UNL     1       6.143  31.193  58.296  1.00  0.00     0.033 A 
HETATM   17  C   UNL     1       7.448  31.013  58.771  1.00  0.00     0.020 A 
HETATM   18  C   UNL     1       7.865  31.670  59.935  1.00  0.00     0.038 A 
HETATM   19  C   UNL     1       6.996  32.506  60.642  1.00  0.00     0.068 A 
HETATM   20  C   UNL     1       5.689  32.669  60.185  1.00  0.00     0.038 A 
HETATM   21  C   UNL     1       5.269  32.016  59.022  1.00  0.00     0.020 A 
BRANCH  19  22
HETATM   22  O   UNL     1       7.537  33.090  61.754  1.00  0.00    -0.356 OA
HETATM   23  C   UNL     1       7.986  32.217  62.783  1.00  0.00     0.210 C 
ENDBRANCH  19  22
ENDBRANCH  13  16
ENDBRANCH   1  12
BRANCH   5  24
HETATM   24  C   UNL     1       6.473  24.463  56.276  1.00  0.00     0.137 C 
BRANCH  24  25
HETATM   25  C   UNL     1       7.913  23.959  56.105  1.00  0.00     0.059 C 
BRANCH  25  26
HETATM   26  C   UNL     1       7.982  22.740  55.218  1.00  0.00    -0.057 A 
HETATM   27  C   UNL     1       7.876  21.452  55.760  1.00  0.00     0.007 A 
HETATM   28  C   UNL     1       7.965  20.328  54.936  1.00  0.00     0.001 A 
HETATM   29  C   UNL     1       8.152  20.480  53.563  1.00  0.00     0.000 A 
HETATM   30  C   UNL     1       8.248  21.757  53.012  1.00  0.00     0.001 A 
HETATM   31  C   UNL     1       8.165  22.882  53.835  1.00  0.00     0.007 A 
ENDBRANCH  25  26
ENDBRANCH  24  25
ENDBRANCH   5  24
TORSDOF 6
ENDMDL
MODEL 4
REMARK VINA RESULT:      -9.4      2.256      5.498
REMARK  6 active torsions:
REMARK  status: ('A' for Active; 'I' for Inactive)
REMARK    1  A    between atoms: O_2  and  C_3 
REMARK    2  A    between atoms: C_6  and  C_7 
REMARK       I    between atoms: C_7  and  N_8 
REMARK    3  A    between atoms: N_8  and  N_9 
REMARK    4  A    between atoms: N_13  and  C_14 
REMARK    5  A    between atoms: C_14  and  C_15 
REMARK    6  A    between atoms: C_15  and  C_16 
ROOT
HETATM    1  N   UNL     1       7.038  25.368  56.802  1.00  0.00    -0.166 NA
HETATM    2  C   UNL     1       7.036  25.017  55.556  1.00  0.00     0.157 A 
HETATM    3  C   UNL     1       6.722  25.867  54.327  1.00  0.00     0.279 A 
HETATM    4  O   UNL     1       6.377  27.030  54.377  1.00  0.00    -0.265 OA
HETATM    5  N   UNL     1       6.915  25.032  53.238  1.00  0.00    -0.311 N 
HETATM    6  C   UNL     1       7.366  23.690  55.058  1.00  0.00     0.027 A 
HETATM    7  C   UNL     1       7.290  23.743  53.666  1.00  0.00     0.050 A 
HETATM    8  C   UNL     1       7.554  22.612  52.917  1.00  0.00     0.031 A 
HETATM    9  C   UNL     1       7.882  21.432  53.601  1.00  0.00     0.002 A 
HETATM   10  C   UNL     1       7.947  21.397  55.007  1.00  0.00     0.001 A 
HETATM   11  C   UNL     1       7.690  22.544  55.757  1.00  0.00     0.016 A 
ENDROOT
BRANCH   1  12
HETATM   12  N   UNL     1       6.691  26.659  57.083  1.00  0.00    -0.242 N 
HETATM   13  C   UNL     1       7.678  27.575  57.413  1.00  0.00     0.271 C 
HETATM   14  O   UNL     1       8.879  27.314  57.448  1.00  0.00    -0.266 OA
HETATM   15  H   UNL     1       5.701  26.898  57.103  1.00  0.00     0.192 HD
BRANCH  13  16
HETATM   16  C   UNL     1       7.227  28.956  57.773  1.00  0.00     0.033 A 
HETATM   17  C   UNL     1       6.001  29.501  57.376  1.00  0.00     0.020 A 
HETATM   18  C   UNL     1       5.651  30.798  57.773  1.00  0.00     0.038 A 
HETATM   19  C   UNL     1       6.511  31.568  58.561  1.00  0.00     0.068 A 
HETATM   20  C   UNL     1       7.742  31.037  58.940  1.00  0.00     0.038 A 
HETATM   21  C   UNL     1       8.096  29.741  58.547  1.00  0.00     0.020 A 
BRANCH  19  22
HETATM   22  O   UNL     1       6.038  32.810  58.882  1.00  0.00    -0.356 OA
HETATM   23  C   UNL     1       5.421  32.952  60.156  1.00  0.00     0.210 C 
ENDBRANCH  19  22
ENDBRANCH  13  16
ENDBRANCH   1  12
BRANCH   5  24
HETATM   24  C   UNL     1       6.716  25.437  51.863  1.00  0.00     0.137 C 
BRANCH  24  25
HETATM   25  C   UNL     1       5.231  25.561  51.501  1.00  0.00     0.059 C 
BRANCH  25  26
HETATM   26  C   UNL     1       5.010  26.496  50.337  1.00  0.00    -0.057 A 
HETATM   27  C   UNL     1       4.378  26.049  49.168  1.00  0.00     0.007 A 
HETATM   28  C   UNL     1       4.198  26.914  48.086  1.00  0.00     0.001 A 
HETATM   29  C   UNL     1       4.641  28.233  48.164  1.00  0.00     0.000 A 
HETATM   30  C   UNL     1       5.262  28.691  49.325  1.00  0.00     0.001 A 
HETATM   31  C   UNL     1       5.447  27.826  50.406  1.00  0.00     0.007 A 
ENDBRANCH  25  26
ENDBRANCH  24  25
ENDBRANCH   5  24
TORSDOF 6
ENDMDL
MODEL 5
REMARK VINA RESULT:      -9.0      2.389      9.179
REMARK  6 active torsions:
REMARK  status: ('A' for Active; 'I' for Inactive)
REMARK    1  A    between atoms: O_2  and  C_3 
REMARK    2  A    between atoms: C_6  and  C_7 
REMARK       I    between atoms: C_7  and  N_8 
REMARK    3  A    between atoms: N_8  and  N_9 
REMARK    4  A    between atoms: N_13  and  C_14 
REMARK    5  A    between atoms: C_14  and  C_15 
REMARK    6  A    between atoms: C_15  and  C_16 
ROOT
HETATM    1  N   UNL     1       4.992  27.530  56.038  1.00  0.00    -0.166 NA
HETATM    2  C   UNL     1       5.485  28.593  56.587  1.00  0.00     0.157 A 
HETATM    3  C   UNL     1       6.875  28.799  57.185  1.00  0.00     0.279 A 
HETATM    4  O   UNL     1       7.719  27.928  57.256  1.00  0.00    -0.265 OA
HETATM    5  N   UNL     1       6.914  30.123  57.590  1.00  0.00    -0.311 N 
HETATM    6  C   UNL     1       4.788  29.862  56.734  1.00  0.00     0.027 A 
HETATM    7  C   UNL     1       5.681  30.753  57.331  1.00  0.00     0.050 A 
HETATM    8  C   UNL     1       5.284  32.050  57.597  1.00  0.00     0.031 A 
HETATM    9  C   UNL     1       3.974  32.421  57.261  1.00  0.00     0.002 A 
HETATM   10  C   UNL     1       3.086  31.504  56.665  1.00  0.00     0.001 A 
HETATM   11  C   UNL     1       3.494  30.199  56.390  1.00  0.00     0.016 A 
ENDROOT
BRANCH   1  12
HETATM   12  N   UNL     1       5.793  26.424  55.997  1.00  0.00    -0.242 N 
HETATM   13  C   UNL     1       5.928  25.723  54.808  1.00  0.00     0.271 C 
HETATM   14  O   UNL     1       5.389  26.045  53.751  1.00  0.00    -0.266 OA
HETATM   15  H   UNL     1       6.221  26.108  56.865  1.00  0.00     0.192 HD
BRANCH  13  16
HETATM   16  C   UNL     1       6.768  24.484  54.844  1.00  0.00     0.033 A 
HETATM   17  C   UNL     1       7.291  23.935  56.021  1.00  0.00     0.020 A 
HETATM   18  C   UNL     1       8.052  22.761  55.966  1.00  0.00     0.038 A 
HETATM   19  C   UNL     1       8.308  22.124  54.749  1.00  0.00     0.068 A 
HETATM   20  C   UNL     1       7.808  22.680  53.573  1.00  0.00     0.038 A 
HETATM   21  C   UNL     1       7.045  23.852  53.623  1.00  0.00     0.020 A 
BRANCH  19  22
HETATM   22  O   UNL     1       9.057  20.983  54.843  1.00  0.00    -0.356 OA
HETATM   23  C   UNL     1       9.191  20.409  56.137  1.00  0.00     0.210 C 
ENDBRANCH  19  22
ENDBRANCH  13  16
ENDBRANCH   1  12
BRANCH   5  24
HETATM   24  C   UNL     1       8.058  30.743  58.224  1.00  0.00     0.137 C 
BRANCH  24  25
HETATM   25  C   UNL     1       8.339  30.161  59.615  1.00  0.00     0.059 C 
BRANCH  25  26
HETATM   26  C   UNL     1       8.036  31.152  60.713  1.00  0.00    -0.057 A 
HETATM   27  C   UNL     1       8.638  31.033  61.973  1.00  0.00     0.007 A 
HETATM   28  C   UNL     1       8.336  31.939  62.990  1.00  0.00     0.001 A 
HETATM   29  C   UNL     1       7.436  32.978  62.757  1.00  0.00     0.000 A 
HETATM   30  C   UNL     1       6.839  33.112  61.505  1.00  0.00     0.001 A 
HETATM   31  C   UNL     1       7.136  32.203  60.488  1.00  0.00     0.007 A 
ENDBRANCH  25  26
ENDBRANCH  24  25
ENDBRANCH   5  24
TORSDOF 6
ENDMDL
MODEL 6
REMARK VINA RESULT:      -9.0      4.602      8.544
REMARK  6 active torsions:
REMARK  status: ('A' for Active; 'I' for Inactive)
REMARK    1  A    between atoms: O_2  and  C_3 
REMARK    2  A    between atoms: C_6  and  C_7 
REMARK       I    between atoms: C_7  and  N_8 
REMARK    3  A    between atoms: N_8  and  N_9 
REMARK    4  A    between atoms: N_13  and  C_14 
REMARK    5  A    between atoms: C_14  and  C_15 
REMARK    6  A    between atoms: C_15  and  C_16 
ROOT
HETATM    1  N   UNL     1       3.944  28.179  53.578  1.00  0.00    -0.166 NA
HETATM    2  C   UNL     1       4.975  27.440  53.832  1.00  0.00     0.157 A 
HETATM    3  C   UNL     1       5.715  26.483  52.900  1.00  0.00     0.279 A 
HETATM    4  O   UNL     1       5.381  26.258  51.755  1.00  0.00    -0.265 OA
HETATM    5  N   UNL     1       6.773  25.983  53.642  1.00  0.00    -0.311 N 
HETATM    6  C   UNL     1       5.676  27.386  55.107  1.00  0.00     0.027 A 
HETATM    7  C   UNL     1       6.749  26.509  54.949  1.00  0.00     0.050 A 
HETATM    8  C   UNL     1       7.598  26.259  56.011  1.00  0.00     0.031 A 
HETATM    9  C   UNL     1       7.332  26.901  57.230  1.00  0.00     0.002 A 
HETATM   10  C   UNL     1       6.239  27.777  57.372  1.00  0.00     0.001 A 
HETATM   11  C   UNL     1       5.392  28.033  56.294  1.00  0.00     0.016 A 
ENDROOT
BRANCH   1  12
HETATM   12  N   UNL     1       3.412  28.091  52.323  1.00  0.00    -0.242 N 
HETATM   13  C   UNL     1       3.378  29.217  51.515  1.00  0.00     0.271 C 
HETATM   14  O   UNL     1       3.827  30.314  51.841  1.00  0.00    -0.266 OA
HETATM   15  H   UNL     1       2.994  27.206  52.039  1.00  0.00     0.192 HD
BRANCH  13  16
HETATM   16  C   UNL     1       2.724  29.071  50.177  1.00  0.00     0.033 A 
HETATM   17  C   UNL     1       3.025  28.046  49.273  1.00  0.00     0.020 A 
HETATM   18  C   UNL     1       2.352  27.974  48.047  1.00  0.00     0.038 A 
HETATM   19  C   UNL     1       1.380  28.917  47.703  1.00  0.00     0.068 A 
HETATM   20  C   UNL     1       1.093  29.952  48.590  1.00  0.00     0.038 A 
HETATM   21  C   UNL     1       1.762  30.027  49.817  1.00  0.00     0.020 A 
BRANCH  19  22
HETATM   22  O   UNL     1       0.796  28.721  46.481  1.00  0.00    -0.356 OA
HETATM   23  C   UNL     1       0.229  27.440  46.240  1.00  0.00     0.210 C 
ENDBRANCH  19  22
ENDBRANCH  13  16
ENDBRANCH   1  12
BRANCH   5  24
HETATM   24  C   UNL     1       7.733  25.024  53.139  1.00  0.00     0.137 C 
BRANCH  24  25
HETATM   25  C   UNL     1       7.083  23.681  52.781  1.00  0.00     0.059 C 
BRANCH  25  26
HETATM   26  C   UNL     1       7.597  22.557  53.648  1.00  0.00    -0.057 A 
HETATM   27  C   UNL     1       8.179  21.418  53.075  1.00  0.00     0.007 A 
HETATM   28  C   UNL     1       8.631  20.372  53.882  1.00  0.00     0.001 A 
HETATM   29  C   UNL     1       8.513  20.457  55.268  1.00  0.00     0.000 A 
HETATM   30  C   UNL     1       7.946  21.591  55.849  1.00  0.00     0.001 A 
HETATM   31  C   UNL     1       7.489  22.635  55.044  1.00  0.00     0.007 A 
ENDBRANCH  25  26
ENDBRANCH  24  25
ENDBRANCH   5  24
TORSDOF 6
ENDMDL
MODEL 7
REMARK VINA RESULT:      -8.8      2.493      9.865
REMARK  6 active torsions:
REMARK  status: ('A' for Active; 'I' for Inactive)
REMARK    1  A    between atoms: O_2  and  C_3 
REMARK    2  A    between atoms: C_6  and  C_7 
REMARK       I    between atoms: C_7  and  N_8 
REMARK    3  A    between atoms: N_8  and  N_9 
REMARK    4  A    between atoms: N_13  and  C_14 
REMARK    5  A    between atoms: C_14  and  C_15 
REMARK    6  A    between atoms: C_15  and  C_16 
ROOT
HETATM    1  N   UNL     1       8.779  28.459  58.080  1.00  0.00    -0.166 NA
HETATM    2  C   UNL     1       7.989  29.471  58.238  1.00  0.00     0.157 A 
HETATM    3  C   UNL     1       6.731  29.831  57.450  1.00  0.00     0.279 A 
HETATM    4  O   UNL     1       6.322  29.195  56.499  1.00  0.00    -0.265 OA
HETATM    5  N   UNL     1       6.229  30.973  58.051  1.00  0.00    -0.311 N 
HETATM    6  C   UNL     1       8.138  30.501  59.255  1.00  0.00     0.027 A 
HETATM    7  C   UNL     1       7.060  31.377  59.114  1.00  0.00     0.050 A 
HETATM    8  C   UNL     1       6.943  32.466  59.956  1.00  0.00     0.031 A 
HETATM    9  C   UNL     1       7.937  32.658  60.927  1.00  0.00     0.002 A 
HETATM   10  C   UNL     1       9.020  31.767  61.049  1.00  0.00     0.001 A 
HETATM   11  C   UNL     1       9.129  30.664  60.203  1.00  0.00     0.016 A 
ENDROOT
BRANCH   1  12
HETATM   12  N   UNL     1       8.486  27.595  57.062  1.00  0.00    -0.242 N 
HETATM   13  C   UNL     1       8.108  26.295  57.358  1.00  0.00     0.271 C 
HETATM   14  O   UNL     1       7.989  25.853  58.499  1.00  0.00    -0.266 OA
HETATM   15  H   UNL     1       8.615  27.918  56.105  1.00  0.00     0.192 HD
BRANCH  13  16
HETATM   16  C   UNL     1       7.863  25.380  56.198  1.00  0.00     0.033 A 
HETATM   17  C   UNL     1       7.215  25.775  55.022  1.00  0.00     0.020 A 
HETATM   18  C   UNL     1       7.043  24.858  53.978  1.00  0.00     0.038 A 
HETATM   19  C   UNL     1       7.504  23.543  54.089  1.00  0.00     0.068 A 
HETATM   20  C   UNL     1       8.130  23.141  55.267  1.00  0.00     0.038 A 
HETATM   21  C   UNL     1       8.306  24.054  56.313  1.00  0.00     0.020 A 
BRANCH  19  22
HETATM   22  O   UNL     1       7.278  22.759  52.991  1.00  0.00    -0.356 OA
HETATM   23  C   UNL     1       7.864  21.464  52.997  1.00  0.00     0.210 C 
ENDBRANCH  19  22
ENDBRANCH  13  16
ENDBRANCH   1  12
BRANCH   5  24
HETATM   24  C   UNL     1       5.036  31.663  57.608  1.00  0.00     0.137 C 
BRANCH  24  25
HETATM   25  C   UNL     1       3.819  31.346  58.487  1.00  0.00     0.059 C 
BRANCH  25  26
HETATM   26  C   UNL     1       3.591  32.405  59.538  1.00  0.00    -0.057 A 
HETATM   27  C   UNL     1       3.569  32.070  60.899  1.00  0.00     0.007 A 
HETATM   28  C   UNL     1       3.335  33.051  61.865  1.00  0.00     0.001 A 
HETATM   29  C   UNL     1       3.128  34.375  61.482  1.00  0.00     0.000 A 
HETATM   30  C   UNL     1       3.158  34.720  60.132  1.00  0.00     0.001 A 
HETATM   31  C   UNL     1       3.387  33.740  59.164  1.00  0.00     0.007 A 
ENDBRANCH  25  26
ENDBRANCH  24  25
ENDBRANCH   5  24
TORSDOF 6
ENDMDL
MODEL 8
REMARK VINA RESULT:      -8.7      2.558     10.253
REMARK  6 active torsions:
REMARK  status: ('A' for Active; 'I' for Inactive)
REMARK    1  A    between atoms: O_2  and  C_3 
REMARK    2  A    between atoms: C_6  and  C_7 
REMARK       I    between atoms: C_7  and  N_8 
REMARK    3  A    between atoms: N_8  and  N_9 
REMARK    4  A    between atoms: N_13  and  C_14 
REMARK    5  A    between atoms: C_14  and  C_15 
REMARK    6  A    between atoms: C_15  and  C_16 
ROOT
HETATM    1  N   UNL     1       8.602  29.088  58.508  1.00  0.00    -0.166 NA
HETATM    2  C   UNL     1       7.944  30.127  58.908  1.00  0.00     0.157 A 
HETATM    3  C   UNL     1       6.794  30.854  58.213  1.00  0.00     0.279 A 
HETATM    4  O   UNL     1       6.362  30.548  57.120  1.00  0.00    -0.265 OA
HETATM    5  N   UNL     1       6.412  31.863  59.081  1.00  0.00    -0.311 N 
HETATM    6  C   UNL     1       8.167  30.830  60.163  1.00  0.00     0.027 A 
HETATM    7  C   UNL     1       7.225  31.857  60.232  1.00  0.00     0.050 A 
HETATM    8  C   UNL     1       7.203  32.700  61.327  1.00  0.00     0.031 A 
HETATM    9  C   UNL     1       8.153  32.491  62.338  1.00  0.00     0.002 A 
HETATM   10  C   UNL     1       9.100  31.454  62.246  1.00  0.00     0.001 A 
HETATM   11  C   UNL     1       9.112  30.600  61.144  1.00  0.00     0.016 A 
ENDROOT
BRANCH   1  12
HETATM   12  N   UNL     1       8.259  28.565  57.293  1.00  0.00    -0.242 N 
HETATM   13  C   UNL     1       7.932  27.222  57.196  1.00  0.00     0.271 C 
HETATM   14  O   UNL     1       7.901  26.447  58.150  1.00  0.00    -0.266 OA
HETATM   15  H   UNL     1       8.314  29.171  56.477  1.00  0.00     0.192 HD
BRANCH  13  16
HETATM   16  C   UNL     1       7.628  26.696  55.828  1.00  0.00     0.033 A 
HETATM   17  C   UNL     1       7.531  25.333  55.523  1.00  0.00     0.020 A 
HETATM   18  C   UNL     1       7.225  24.929  54.218  1.00  0.00     0.038 A 
HETATM   19  C   UNL     1       7.017  25.866  53.202  1.00  0.00     0.068 A 
HETATM   20  C   UNL     1       7.134  27.223  53.497  1.00  0.00     0.038 A 
HETATM   21  C   UNL     1       7.438  27.632  54.800  1.00  0.00     0.020 A 
BRANCH  19  22
HETATM   22  O   UNL     1       6.717  25.333  51.979  1.00  0.00    -0.356 OA
HETATM   23  C   UNL     1       5.663  25.950  51.252  1.00  0.00     0.210 C 
ENDBRANCH  19  22
ENDBRANCH  13  16
ENDBRANCH   1  12
BRANCH   5  24
HETATM   24  C   UNL     1       5.349  32.807  58.807  1.00  0.00     0.137 C 
BRANCH  24  25
HETATM   25  C   UNL     1       4.043  32.438  59.523  1.00  0.00     0.059 C 
BRANCH  25  26
HETATM   26  C   UNL     1       3.718  33.405  60.636  1.00  0.00    -0.057 A 
HETATM   27  C   UNL     1       3.654  34.783  60.392  1.00  0.00     0.007 A 
HETATM   28  C   UNL     1       3.376  35.673  61.431  1.00  0.00     0.001 A 
HETATM   29  C   UNL     1       3.152  35.195  62.721  1.00  0.00     0.000 A 
HETATM   30  C   UNL     1       3.204  33.825  62.973  1.00  0.00     0.001 A 
HETATM   31  C   UNL     1       3.487  32.934  61.936  1.00  0.00     0.007 A 
ENDBRANCH  25  26
ENDBRANCH  24  25
ENDBRANCH   5  24
TORSDOF 6
ENDMDL
MODEL 9
REMARK VINA RESULT:      -8.7      4.333      8.912
REMARK  6 active torsions:
REMARK  status: ('A' for Active; 'I' for Inactive)
REMARK    1  A    between atoms: O_2  and  C_3 
REMARK    2  A    between atoms: C_6  and  C_7 
REMARK       I    between atoms: C_7  and  N_8 
REMARK    3  A    between atoms: N_8  and  N_9 
REMARK    4  A    between atoms: N_13  and  C_14 
REMARK    5  A    between atoms: C_14  and  C_15 
REMARK    6  A    between atoms: C_15  and  C_16 
ROOT
HETATM    1  N   UNL     1       4.847  27.490  55.304  1.00  0.00    -0.166 NA
HETATM    2  C   UNL     1       4.503  28.271  54.332  1.00  0.00     0.157 A 
HETATM    3  C   UNL     1       4.622  28.033  52.829  1.00  0.00     0.279 A 
HETATM    4  O   UNL     1       5.119  27.040  52.337  1.00  0.00    -0.265 OA
HETATM    5  N   UNL     1       4.065  29.150  52.229  1.00  0.00    -0.311 N 
HETATM    6  C   UNL     1       3.891  29.583  54.487  1.00  0.00     0.027 A 
HETATM    7  C   UNL     1       3.638  30.072  53.205  1.00  0.00     0.050 A 
HETATM    8  C   UNL     1       3.055  31.315  53.044  1.00  0.00     0.031 A 
HETATM    9  C   UNL     1       2.748  32.052  54.197  1.00  0.00     0.002 A 
HETATM   10  C   UNL     1       3.018  31.545  55.482  1.00  0.00     0.001 A 
HETATM   11  C   UNL     1       3.597  30.286  55.639  1.00  0.00     0.016 A 
ENDROOT
BRANCH   1  12
HETATM   12  N   UNL     1       5.419  26.295  54.967  1.00  0.00    -0.242 N 
HETATM   13  C   UNL     1       6.760  26.078  55.243  1.00  0.00     0.271 C 
HETATM   14  O   UNL     1       7.489  26.891  55.808  1.00  0.00    -0.266 OA
HETATM   15  H   UNL     1       4.852  25.617  54.461  1.00  0.00     0.192 HD
BRANCH  13  16
HETATM   16  C   UNL     1       7.342  24.775  54.791  1.00  0.00     0.033 A 
HETATM   17  C   UNL     1       7.034  24.171  53.567  1.00  0.00     0.020 A 
HETATM   18  C   UNL     1       7.639  22.957  53.216  1.00  0.00     0.038 A 
HETATM   19  C   UNL     1       8.549  22.330  54.072  1.00  0.00     0.068 A 
HETATM   20  C   UNL     1       8.841  22.918  55.301  1.00  0.00     0.038 A 
HETATM   21  C   UNL     1       8.240  24.131  55.656  1.00  0.00     0.020 A 
BRANCH  19  22
HETATM   22  O   UNL     1       9.069  21.157  53.598  1.00  0.00    -0.356 OA
HETATM   23  C   UNL     1       8.227  20.374  52.762  1.00  0.00     0.210 C 
ENDBRANCH  19  22
ENDBRANCH  13  16
ENDBRANCH   1  12
BRANCH   5  24
HETATM   24  C   UNL     1       3.979  29.342  50.797  1.00  0.00     0.137 C 
BRANCH  24  25
HETATM   25  C   UNL     1       2.600  28.965  50.239  1.00  0.00     0.059 C 
BRANCH  25  26
HETATM   26  C   UNL     1       2.698  27.925  49.149  1.00  0.00    -0.057 A 
HETATM   27  C   UNL     1       1.604  27.658  48.314  1.00  0.00     0.007 A 
HETATM   28  C   UNL     1       1.694  26.679  47.323  1.00  0.00     0.001 A 
HETATM   29  C   UNL     1       2.878  25.962  47.152  1.00  0.00     0.000 A 
HETATM   30  C   UNL     1       3.974  26.227  47.971  1.00  0.00     0.001 A 
HETATM   31  C   UNL     1       3.885  27.203  48.966  1.00  0.00     0.007 A 
ENDBRANCH  25  26
ENDBRANCH  24  25
ENDBRANCH   5  24
TORSDOF 6
ENDMDL
MODEL 10
REMARK VINA RESULT:      -8.7      2.799      8.957
REMARK  6 active torsions:
REMARK  status: ('A' for Active; 'I' for Inactive)
REMARK    1  A    between atoms: O_2  and  C_3 
REMARK    2  A    between atoms: C_6  and  C_7 
REMARK       I    between atoms: C_7  and  N_8 
REMARK    3  A    between atoms: N_8  and  N_9 
REMARK    4  A    between atoms: N_13  and  C_14 
REMARK    5  A    between atoms: C_14  and  C_15 
REMARK    6  A    between atoms: C_15  and  C_16 
ROOT
HETATM    1  N   UNL     1       5.010  27.302  53.814  1.00  0.00    -0.166 NA
HETATM    2  C   UNL     1       5.067  28.260  54.683  1.00  0.00     0.157 A 
HETATM    3  C   UNL     1       5.659  28.237  56.090  1.00  0.00     0.279 A 
HETATM    4  O   UNL     1       6.140  27.249  56.607  1.00  0.00    -0.265 OA
HETATM    5  N   UNL     1       5.514  29.526  56.576  1.00  0.00    -0.311 N 
HETATM    6  C   UNL     1       4.571  29.612  54.473  1.00  0.00     0.027 A 
HETATM    7  C   UNL     1       4.865  30.340  55.627  1.00  0.00     0.050 A 
HETATM    8  C   UNL     1       4.504  31.671  55.713  1.00  0.00     0.031 A 
HETATM    9  C   UNL     1       3.834  32.243  54.621  1.00  0.00     0.002 A 
HETATM   10  C   UNL     1       3.540  31.490  53.468  1.00  0.00     0.001 A 
HETATM   11  C   UNL     1       3.916  30.150  53.383  1.00  0.00     0.016 A 
ENDROOT
BRANCH   1  12
HETATM   12  N   UNL     1       5.519  26.091  54.192  1.00  0.00    -0.242 N 
HETATM   13  C   UNL     1       6.583  25.549  53.488  1.00  0.00     0.271 C 
HETATM   14  O   UNL     1       7.137  26.101  52.539  1.00  0.00    -0.266 OA
HETATM   15  H   UNL     1       5.057  25.590  54.948  1.00  0.00     0.192 HD
BRANCH  13  16
HETATM   16  C   UNL     1       7.053  24.192  53.910  1.00  0.00     0.033 A 
HETATM   17  C   UNL     1       7.088  23.762  55.242  1.00  0.00     0.020 A 
HETATM   18  C   UNL     1       7.526  22.467  55.547  1.00  0.00     0.038 A 
HETATM   19  C   UNL     1       7.938  21.589  54.540  1.00  0.00     0.068 A 
HETATM   20  C   UNL     1       7.926  22.021  53.216  1.00  0.00     0.038 A 
HETATM   21  C   UNL     1       7.487  23.314  52.906  1.00  0.00     0.020 A 
BRANCH  19  22
HETATM   22  O   UNL     1       8.332  20.355  54.979  1.00  0.00    -0.356 OA
HETATM   23  C   UNL     1       9.349  20.323  55.973  1.00  0.00     0.210 C 
ENDBRANCH  19  22
ENDBRANCH  13  16
ENDBRANCH   1  12
BRANCH   5  24
HETATM   24  C   UNL     1       5.939  29.946  57.894  1.00  0.00     0.137 C 
BRANCH  24  25
HETATM   25  C   UNL     1       7.418  30.351  57.928  1.00  0.00     0.059 C 
BRANCH  25  26
HETATM   26  C   UNL     1       7.805  30.964  59.252  1.00  0.00    -0.057 A 
HETATM   27  C   UNL     1       7.062  32.020  59.797  1.00  0.00     0.007 A 
HETATM   28  C   UNL     1       7.438  32.598  61.011  1.00  0.00     0.001 A 
HETATM   29  C   UNL     1       8.556  32.123  61.695  1.00  0.00     0.000 A 
HETATM   30  C   UNL     1       9.296  31.066  61.167  1.00  0.00     0.001 A 
HETATM   31  C   UNL     1       8.924  30.491  59.951  1.00  0.00     0.007 A 
ENDBRANCH  25  26
ENDBRANCH  24  25
ENDBRANCH   5  24
TORSDOF 6
ENDMDL
