MODEL 1
REMARK VINA RESULT:      -8.3      0.000      0.000
REMARK  9 active torsions:
REMARK  status: ('A' for Active; 'I' for Inactive)
REMARK    1  A    between atoms: C_4  and  C_5 
REMARK    2  A    between atoms: C_8  and  C_9 
REMARK       I    between atoms: C_9  and  N_10 
REMARK    3  A    between atoms: N_10  and  C_26 
REMARK    4  A    between atoms: N_10  and  C_11 
REMARK    5  A    between atoms: C_11  and  C_12 
REMARK    6  A    between atoms: C_11  and  C_21 
REMARK       I    between atoms: C_12  and  N_13 
REMARK    7  A    between atoms: N_13  and  C_14 
REMARK    8  A    between atoms: C_14  and  C_15 
REMARK    9  A    between atoms: C_26  and  C_27 
ROOT
HETATM    1  C   UNL     1       7.282  26.935  56.380  1.00  0.00     0.271 C 
HETATM    2  N   UNL     1       6.237  27.128  55.462  1.00  0.00    -0.324 N 
HETATM    3  O   UNL     1       7.695  25.798  56.619  1.00  0.00    -0.266 OA
ENDROOT
BRANCH   2   4
HETATM    4  C   UNL     1       5.679  25.921  54.842  1.00  0.00     0.173 C 
BRANCH   4   5
HETATM    5  C   UNL     1       6.665  25.239  53.944  1.00  0.00     0.000 A 
HETATM    6  S   UNL     1       7.035  23.579  54.175  1.00  0.00    -0.105 SA
HETATM    7  C   UNL     1       8.063  23.548  52.811  1.00  0.00     0.050 A 
HETATM    8  C   UNL     1       8.116  24.768  52.177  1.00  0.00     0.008 A 
HETATM    9  C   UNL     1       7.308  25.744  52.829  1.00  0.00     0.017 A 
ENDBRANCH   4   5
ENDBRANCH   2   4
BRANCH   2  10
HETATM   10  C   UNL     1       5.673  28.445  55.093  1.00  0.00     0.220 C 
BRANCH  10  11
HETATM   11  C   UNL     1       4.736  28.995  56.200  1.00  0.00     0.245 C 
HETATM   12  N   UNL     1       5.051  30.161  56.844  1.00  0.00    -0.357 N 
HETATM   13  H   UNL     1       5.998  30.514  56.771  1.00  0.00     0.162 HD
HETATM   14  O   UNL     1       3.644  28.446  56.411  1.00  0.00    -0.271 OA
BRANCH  12  15
HETATM   15  C   UNL     1       4.238  30.687  57.929  1.00  0.00     0.154 C 
BRANCH  15  16
HETATM   16  C   UNL     1       3.651  32.064  57.590  1.00  0.00     0.139 C 
HETATM   17  O   UNL     1       3.048  32.632  58.776  1.00  0.00    -0.384 OA
HETATM   18  C   UNL     1       3.406  34.017  58.820  1.00  0.00     0.168 C 
HETATM   19  C   UNL     1       4.784  34.083  58.211  1.00  0.00     0.029 C 
HETATM   20  C   UNL     1       4.698  33.061  57.100  1.00  0.00     0.035 C 
ENDBRANCH  15  16
ENDBRANCH  12  15
ENDBRANCH  10  11
BRANCH  10  21
HETATM   21  C   UNL     1       5.238  28.506  53.636  1.00  0.00     0.014 A 
HETATM   22  S   UNL     1       3.643  28.239  53.066  1.00  0.00    -0.104 SA
HETATM   23  C   UNL     1       4.083  28.496  51.440  1.00  0.00     0.050 A 
HETATM   24  C   UNL     1       5.422  28.777  51.309  1.00  0.00     0.008 A 
HETATM   25  C   UNL     1       6.084  28.782  52.569  1.00  0.00     0.017 A 
ENDBRANCH  10  21
ENDBRANCH   2  10
BRANCH   1  26
HETATM   26  C   UNL     1       7.950  28.073  56.990  1.00  0.00     0.101 C 
HETATM   27  N   UNL     1       7.750  28.595  58.250  1.00  0.00    -0.351 N 
HETATM   28  C   UNL     1       8.467  29.761  58.430  1.00  0.00     0.043 C 
HETATM   29  H   UNL     1       7.091  28.216  58.923  1.00  0.00     0.166 HD
HETATM   30  C   UNL     1       9.323  29.841  57.343  1.00  0.00     0.033 C 
HETATM   31  C   UNL     1       9.016  28.781  56.460  1.00  0.00     0.037 C 
BRANCH  28  32
HETATM   32  C   UNL     1       8.284  30.670  59.573  1.00  0.00    -0.009 A 
HETATM   33  C   UNL     1       7.249  31.616  59.614  1.00  0.00     0.013 A 
HETATM   34  C   UNL     1       7.125  32.500  60.691  1.00  0.00     0.001 A 
HETATM   35  C   UNL     1       8.031  32.452  61.747  1.00  0.00     0.000 A 
HETATM   36  C   UNL     1       9.060  31.517  61.728  1.00  0.00     0.001 A 
HETATM   37  C   UNL     1       9.185  30.636  60.650  1.00  0.00     0.013 A 
ENDBRANCH  28  32
ENDBRANCH   1  26
TORSDOF 9
ENDMDL
MODEL 2
REMARK VINA RESULT:      -8.3      2.979      7.509
REMARK  9 active torsions:
REMARK  status: ('A' for Active; 'I' for Inactive)
REMARK    1  A    between atoms: C_4  and  C_5 
REMARK    2  A    between atoms: C_8  and  C_9 
REMARK       I    between atoms: C_9  and  N_10 
REMARK    3  A    between atoms: N_10  and  C_26 
REMARK    4  A    between atoms: N_10  and  C_11 
REMARK    5  A    between atoms: C_11  and  C_12 
REMARK    6  A    between atoms: C_11  and  C_21 
REMARK       I    between atoms: C_12  and  N_13 
REMARK    7  A    between atoms: N_13  and  C_14 
REMARK    8  A    between atoms: C_14  and  C_15 
REMARK    9  A    between atoms: C_26  and  C_27 
ROOT
HETATM    1  C   UNL     1       4.949  26.039  53.352  1.00  0.00     0.271 C 
HETATM    2  N   UNL     1       5.391  26.722  54.497  1.00  0.00    -0.324 N 
HETATM    3  O   UNL     1       4.578  24.867  53.435  1.00  0.00    -0.266 OA
ENDROOT
BRANCH   2   4
HETATM    4  C   UNL     1       5.398  25.961  55.752  1.00  0.00     0.173 C 
BRANCH   4   5
HETATM    5  C   UNL     1       6.735  25.348  56.034  1.00  0.00     0.000 A 
HETATM    6  S   UNL     1       7.630  25.835  57.415  1.00  0.00    -0.105 SA
HETATM    7  C   UNL     1       8.867  24.700  57.098  1.00  0.00     0.050 A 
HETATM    8  C   UNL     1       8.603  23.950  55.975  1.00  0.00     0.008 A 
HETATM    9  C   UNL     1       7.372  24.322  55.362  1.00  0.00     0.017 A 
ENDBRANCH   4   5
ENDBRANCH   2   4
BRANCH   2  10
HETATM   10  C   UNL     1       5.847  28.129  54.515  1.00  0.00     0.220 C 
BRANCH  10  11
HETATM   11  C   UNL     1       7.394  28.230  54.470  1.00  0.00     0.245 C 
HETATM   12  N   UNL     1       8.049  29.074  55.327  1.00  0.00    -0.357 N 
HETATM   13  H   UNL     1       7.515  29.795  55.798  1.00  0.00     0.162 HD
HETATM   14  O   UNL     1       8.040  27.457  53.747  1.00  0.00    -0.271 OA
BRANCH  12  15
HETATM   15  C   UNL     1       9.492  29.249  55.284  1.00  0.00     0.154 C 
BRANCH  15  16
HETATM   16  C   UNL     1      10.096  29.378  56.688  1.00  0.00     0.139 C 
HETATM   17  O   UNL     1      10.822  30.625  56.784  1.00  0.00    -0.384 OA
HETATM   18  C   UNL     1      10.520  31.203  58.057  1.00  0.00     0.168 C 
HETATM   19  C   UNL     1       9.096  30.795  58.343  1.00  0.00     0.029 C 
HETATM   20  C   UNL     1       9.046  29.387  57.797  1.00  0.00     0.035 C 
ENDBRANCH  15  16
ENDBRANCH  12  15
ENDBRANCH  10  11
BRANCH  10  21
HETATM   21  C   UNL     1       5.062  28.985  55.499  1.00  0.00     0.014 A 
HETATM   22  S   UNL     1       5.345  29.061  57.188  1.00  0.00    -0.104 SA
HETATM   23  C   UNL     1       4.086  30.183  57.440  1.00  0.00     0.050 A 
HETATM   24  C   UNL     1       3.443  30.503  56.269  1.00  0.00     0.008 A 
HETATM   25  C   UNL     1       4.003  29.815  55.156  1.00  0.00     0.017 A 
ENDBRANCH  10  21
ENDBRANCH   2  10
BRANCH   1  26
HETATM   26  C   UNL     1       4.835  26.729  52.078  1.00  0.00     0.101 C 
HETATM   27  N   UNL     1       3.835  27.582  51.665  1.00  0.00    -0.351 N 
HETATM   28  C   UNL     1       3.994  27.939  50.341  1.00  0.00     0.043 C 
HETATM   29  H   UNL     1       3.037  27.841  52.238  1.00  0.00     0.166 HD
HETATM   30  C   UNL     1       5.256  27.491  49.986  1.00  0.00     0.033 C 
HETATM   31  C   UNL     1       5.787  26.758  51.071  1.00  0.00     0.037 C 
BRANCH  28  32
HETATM   32  C   UNL     1       2.971  28.645  49.552  1.00  0.00    -0.009 A 
HETATM   33  C   UNL     1       2.201  29.685  50.091  1.00  0.00     0.013 A 
HETATM   34  C   UNL     1       1.203  30.309  49.335  1.00  0.00     0.001 A 
HETATM   35  C   UNL     1       0.960  29.905  48.025  1.00  0.00     0.000 A 
HETATM   36  C   UNL     1       1.717  28.880  47.469  1.00  0.00     0.001 A 
HETATM   37  C   UNL     1       2.713  28.256  48.227  1.00  0.00     0.013 A 
ENDBRANCH  28  32
ENDBRANCH   1  26
TORSDOF 9
ENDMDL
MODEL 3
REMARK VINA RESULT:      -8.3      2.794      7.801
REMARK  9 active torsions:
REMARK  status: ('A' for Active; 'I' for Inactive)
REMARK    1  A    between atoms: C_4  and  C_5 
REMARK    2  A    between atoms: C_8  and  C_9 
REMARK       I    between atoms: C_9  and  N_10 
REMARK    3  A    between atoms: N_10  and  C_26 
REMARK    4  A    between atoms: N_10  and  C_11 
REMARK    5  A    between atoms: C_11  and  C_12 
REMARK    6  A    between atoms: C_11  and  C_21 
REMARK       I    between atoms: C_12  and  N_13 
REMARK    7  A    between atoms: N_13  and  C_14 
REMARK    8  A    between atoms: C_14  and  C_15 
REMARK    9  A    between atoms: C_26  and  C_27 
ROOT
HETATM    1  C   UNL     1       8.272  27.674  56.710  1.00  0.00     0.271 C 
HETATM    2  N   UNL     1       7.555  28.781  56.227  1.00  0.00    -0.324 N 
HETATM    3  O   UNL     1       9.350  27.836  57.285  1.00  0.00    -0.266 OA
ENDROOT
BRANCH   2   4
HETATM    4  C   UNL     1       8.170  30.098  56.431  1.00  0.00     0.173 C 
BRANCH   4   5
HETATM    5  C   UNL     1       8.366  30.410  57.883  1.00  0.00     0.000 A 
HETATM    6  S   UNL     1       9.869  31.029  58.434  1.00  0.00    -0.105 SA
HETATM    7  C   UNL     1       9.291  31.197  60.033  1.00  0.00     0.050 A 
HETATM    8  C   UNL     1       7.976  30.809  60.150  1.00  0.00     0.008 A 
HETATM    9  C   UNL     1       7.441  30.356  58.909  1.00  0.00     0.017 A 
ENDBRANCH   4   5
ENDBRANCH   2   4
BRANCH   2  10
HETATM   10  C   UNL     1       6.251  28.703  55.534  1.00  0.00     0.220 C 
BRANCH  10  11
HETATM   11  C   UNL     1       6.426  28.542  54.002  1.00  0.00     0.245 C 
HETATM   12  N   UNL     1       5.450  28.990  53.152  1.00  0.00    -0.357 N 
HETATM   13  H   UNL     1       4.531  29.189  53.531  1.00  0.00     0.162 HD
HETATM   14  O   UNL     1       7.500  28.124  53.546  1.00  0.00    -0.271 OA
BRANCH  12  15
HETATM   15  C   UNL     1       5.539  28.809  51.712  1.00  0.00     0.154 C 
BRANCH  15  16
HETATM   16  C   UNL     1       4.460  27.852  51.186  1.00  0.00     0.139 C 
HETATM   17  O   UNL     1       3.718  28.504  50.130  1.00  0.00    -0.384 OA
HETATM   18  C   UNL     1       3.518  27.544  49.087  1.00  0.00     0.168 C 
HETATM   19  C   UNL     1       4.749  26.673  49.119  1.00  0.00     0.029 C 
HETATM   20  C   UNL     1       5.032  26.564  50.600  1.00  0.00     0.035 C 
ENDBRANCH  15  16
ENDBRANCH  12  15
ENDBRANCH  10  11
BRANCH  10  21
HETATM   21  C   UNL     1       5.240  29.702  56.079  1.00  0.00     0.014 A 
HETATM   22  S   UNL     1       4.970  31.276  55.456  1.00  0.00    -0.104 SA
HETATM   23  C   UNL     1       3.761  31.623  56.606  1.00  0.00     0.050 A 
HETATM   24  C   UNL     1       3.554  30.571  57.466  1.00  0.00     0.008 A 
HETATM   25  C   UNL     1       4.403  29.470  57.164  1.00  0.00     0.017 A 
ENDBRANCH  10  21
ENDBRANCH   2  10
BRANCH   1  26
HETATM   26  C   UNL     1       7.711  26.335  56.622  1.00  0.00     0.101 C 
HETATM   27  N   UNL     1       8.243  25.237  55.982  1.00  0.00    -0.351 N 
HETATM   28  C   UNL     1       7.363  24.173  55.995  1.00  0.00     0.043 C 
HETATM   29  H   UNL     1       9.131  25.242  55.488  1.00  0.00     0.166 HD
HETATM   30  C   UNL     1       6.356  24.537  56.874  1.00  0.00     0.033 C 
HETATM   31  C   UNL     1       6.583  25.872  57.279  1.00  0.00     0.037 C 
BRANCH  28  32
HETATM   32  C   UNL     1       7.543  22.947  55.200  1.00  0.00    -0.009 A 
HETATM   33  C   UNL     1       7.672  21.684  55.797  1.00  0.00     0.013 A 
HETATM   34  C   UNL     1       7.889  20.540  55.022  1.00  0.00     0.001 A 
HETATM   35  C   UNL     1       7.979  20.639  53.636  1.00  0.00     0.000 A 
HETATM   36  C   UNL     1       7.847  21.881  53.024  1.00  0.00     0.001 A 
HETATM   37  C   UNL     1       7.631  23.023  53.801  1.00  0.00     0.013 A 
ENDBRANCH  28  32
ENDBRANCH   1  26
TORSDOF 9
ENDMDL
MODEL 4
REMARK VINA RESULT:      -8.3      2.833      9.027
REMARK  9 active torsions:
REMARK  status: ('A' for Active; 'I' for Inactive)
REMARK    1  A    between atoms: C_4  and  C_5 
REMARK    2  A    between atoms: C_8  and  C_9 
REMARK       I    between atoms: C_9  and  N_10 
REMARK    3  A    between atoms: N_10  and  C_26 
REMARK    4  A    between atoms: N_10  and  C_11 
REMARK    5  A    between atoms: C_11  and  C_12 
REMARK    6  A    between atoms: C_11  and  C_21 
REMARK       I    between atoms: C_12  and  N_13 
REMARK    7  A    between atoms: N_13  and  C_14 
REMARK    8  A    between atoms: C_14  and  C_15 
REMARK    9  A    between atoms: C_26  and  C_27 
ROOT
HETATM    1  C   UNL     1       4.832  27.719  55.210  1.00  0.00     0.271 C 
HETATM    2  N   UNL     1       5.930  27.819  56.079  1.00  0.00    -0.324 N 
HETATM    3  O   UNL     1       3.756  28.243  55.508  1.00  0.00    -0.266 OA
ENDROOT
BRANCH   2   4
HETATM    4  C   UNL     1       5.709  28.549  57.333  1.00  0.00     0.173 C 
BRANCH   4   5
HETATM    5  C   UNL     1       5.269  29.961  57.094  1.00  0.00     0.000 A 
HETATM    6  S   UNL     1       3.925  30.599  57.950  1.00  0.00    -0.105 SA
HETATM    7  C   UNL     1       4.126  32.144  57.247  1.00  0.00     0.050 A 
HETATM    8  C   UNL     1       5.202  32.186  56.391  1.00  0.00     0.008 A 
HETATM    9  C   UNL     1       5.864  30.927  56.304  1.00  0.00     0.017 A 
ENDBRANCH   4   5
ENDBRANCH   2   4
BRANCH   2  10
HETATM   10  C   UNL     1       7.266  27.241  55.817  1.00  0.00     0.220 C 
BRANCH  10  11
HETATM   11  C   UNL     1       7.364  25.777  56.319  1.00  0.00     0.245 C 
HETATM   12  N   UNL     1       7.836  24.799  55.485  1.00  0.00    -0.357 N 
HETATM   13  H   UNL     1       7.880  24.989  54.491  1.00  0.00     0.162 HD
HETATM   14  O   UNL     1       7.132  25.517  57.509  1.00  0.00    -0.271 OA
BRANCH  12  15
HETATM   15  C   UNL     1       7.891  23.402  55.888  1.00  0.00     0.154 C 
BRANCH  15  16
HETATM   16  C   UNL     1       8.795  22.575  54.965  1.00  0.00     0.139 C 
HETATM   17  O   UNL     1       8.764  21.190  55.381  1.00  0.00    -0.384 OA
HETATM   18  C   UNL     1       8.681  20.386  54.201  1.00  0.00     0.168 C 
HETATM   19  C   UNL     1       7.871  21.205  53.228  1.00  0.00     0.029 C 
HETATM   20  C   UNL     1       8.356  22.610  53.503  1.00  0.00     0.035 C 
ENDBRANCH  15  16
ENDBRANCH  12  15
ENDBRANCH  10  11
BRANCH  10  21
HETATM   21  C   UNL     1       8.394  28.219  56.116  1.00  0.00     0.014 A 
HETATM   22  S   UNL     1       9.310  29.063  54.938  1.00  0.00    -0.104 SA
HETATM   23  C   UNL     1      10.260  29.853  56.111  1.00  0.00     0.050 A 
HETATM   24  C   UNL     1       9.906  29.490  57.388  1.00  0.00     0.008 A 
HETATM   25  C   UNL     1       8.836  28.551  57.390  1.00  0.00     0.017 A 
ENDBRANCH  10  21
ENDBRANCH   2  10
BRANCH   1  26
HETATM   26  C   UNL     1       4.972  27.081  53.911  1.00  0.00     0.101 C 
HETATM   27  N   UNL     1       5.198  27.685  52.693  1.00  0.00    -0.351 N 
HETATM   28  C   UNL     1       5.137  26.771  51.660  1.00  0.00     0.043 C 
HETATM   29  H   UNL     1       5.306  28.687  52.568  1.00  0.00     0.166 HD
HETATM   30  C   UNL     1       5.112  25.526  52.269  1.00  0.00     0.033 C 
HETATM   31  C   UNL     1       5.031  25.719  53.667  1.00  0.00     0.037 C 
BRANCH  28  32
HETATM   32  C   UNL     1       5.105  27.141  50.236  1.00  0.00    -0.009 A 
HETATM   33  C   UNL     1       5.502  28.409  49.787  1.00  0.00     0.013 A 
HETATM   34  C   UNL     1       5.418  28.752  48.433  1.00  0.00     0.001 A 
HETATM   35  C   UNL     1       4.938  27.832  47.505  1.00  0.00     0.000 A 
HETATM   36  C   UNL     1       4.545  26.567  47.929  1.00  0.00     0.001 A 
HETATM   37  C   UNL     1       4.628  26.227  49.283  1.00  0.00     0.013 A 
ENDBRANCH  28  32
ENDBRANCH   1  26
TORSDOF 9
ENDMDL
MODEL 5
REMARK VINA RESULT:      -8.0      5.892     10.523
REMARK  9 active torsions:
REMARK  status: ('A' for Active; 'I' for Inactive)
REMARK    1  A    between atoms: C_4  and  C_5 
REMARK    2  A    between atoms: C_8  and  C_9 
REMARK       I    between atoms: C_9  and  N_10 
REMARK    3  A    between atoms: N_10  and  C_26 
REMARK    4  A    between atoms: N_10  and  C_11 
REMARK    5  A    between atoms: C_11  and  C_12 
REMARK    6  A    between atoms: C_11  and  C_21 
REMARK       I    between atoms: C_12  and  N_13 
REMARK    7  A    between atoms: N_13  and  C_14 
REMARK    8  A    between atoms: C_14  and  C_15 
REMARK    9  A    between atoms: C_26  and  C_27 
ROOT
HETATM    1  C   UNL     1       4.519  32.798  61.928  1.00  0.00     0.271 C 
HETATM    2  N   UNL     1       4.337  33.880  62.805  1.00  0.00    -0.324 N 
HETATM    3  O   UNL     1       3.567  32.360  61.280  1.00  0.00    -0.266 OA
ENDROOT
BRANCH   2   4
HETATM    4  C   UNL     1       2.976  34.419  62.907  1.00  0.00     0.173 C 
BRANCH   4   5
HETATM    5  C   UNL     1       2.508  35.018  61.616  1.00  0.00     0.000 A 
HETATM    6  S   UNL     1       0.940  34.655  61.019  1.00  0.00    -0.105 SA
HETATM    7  C   UNL     1       1.129  35.711  59.688  1.00  0.00     0.050 A 
HETATM    8  C   UNL     1       2.351  36.344  59.701  1.00  0.00     0.008 A 
HETATM    9  C   UNL     1       3.147  35.945  60.814  1.00  0.00     0.017 A 
ENDBRANCH   4   5
ENDBRANCH   2   4
BRANCH   2  10
HETATM   10  C   UNL     1       5.409  34.492  63.620  1.00  0.00     0.220 C 
BRANCH  10  11
HETATM   11  C   UNL     1       5.419  33.930  65.066  1.00  0.00     0.245 C 
HETATM   12  N   UNL     1       6.345  34.382  65.968  1.00  0.00    -0.357 N 
HETATM   13  H   UNL     1       7.155  34.883  65.622  1.00  0.00     0.162 HD
HETATM   14  O   UNL     1       4.515  33.167  65.436  1.00  0.00    -0.271 OA
BRANCH  12  15
HETATM   15  C   UNL     1       6.434  33.844  67.316  1.00  0.00     0.154 C 
BRANCH  15  16
HETATM   16  C   UNL     1       6.349  34.946  68.380  1.00  0.00     0.139 C 
HETATM   17  O   UNL     1       5.367  34.576  69.375  1.00  0.00    -0.384 OA
HETATM   18  C   UNL     1       5.908  34.904  70.659  1.00  0.00     0.168 C 
HETATM   19  C   UNL     1       7.395  34.687  70.522  1.00  0.00     0.029 C 
HETATM   20  C   UNL     1       7.666  35.175  69.118  1.00  0.00     0.035 C 
ENDBRANCH  15  16
ENDBRANCH  12  15
ENDBRANCH  10  11
BRANCH  10  21
HETATM   21  C   UNL     1       5.532  35.992  63.392  1.00  0.00     0.014 A 
HETATM   22  S   UNL     1       4.886  37.205  64.416  1.00  0.00    -0.104 SA
HETATM   23  C   UNL     1       5.473  38.471  63.438  1.00  0.00     0.050 A 
HETATM   24  C   UNL     1       6.150  37.999  62.339  1.00  0.00     0.008 A 
HETATM   25  C   UNL     1       6.182  36.577  62.312  1.00  0.00     0.017 A 
ENDBRANCH  10  21
ENDBRANCH   2  10
BRANCH   1  26
HETATM   26  C   UNL     1       5.844  32.244  61.701  1.00  0.00     0.101 C 
HETATM   27  N   UNL     1       6.522  32.137  60.506  1.00  0.00    -0.351 N 
HETATM   28  C   UNL     1       7.700  31.432  60.659  1.00  0.00     0.043 C 
HETATM   29  H   UNL     1       6.156  32.457  59.615  1.00  0.00     0.166 HD
HETATM   30  C   UNL     1       7.880  31.306  62.027  1.00  0.00     0.033 C 
HETATM   31  C   UNL     1       6.738  31.829  62.674  1.00  0.00     0.037 C 
BRANCH  28  32
HETATM   32  C   UNL     1       8.523  30.953  59.537  1.00  0.00    -0.009 A 
HETATM   33  C   UNL     1       9.688  31.619  59.131  1.00  0.00     0.013 A 
HETATM   34  C   UNL     1      10.428  31.170  58.031  1.00  0.00     0.001 A 
HETATM   35  C   UNL     1      10.016  30.046  57.320  1.00  0.00     0.000 A 
HETATM   36  C   UNL     1       8.866  29.368  57.711  1.00  0.00     0.001 A 
HETATM   37  C   UNL     1       8.128  29.819  58.809  1.00  0.00     0.013 A 
ENDBRANCH  28  32
ENDBRANCH   1  26
TORSDOF 9
ENDMDL
MODEL 6
REMARK VINA RESULT:      -8.0      2.814      9.379
REMARK  9 active torsions:
REMARK  status: ('A' for Active; 'I' for Inactive)
REMARK    1  A    between atoms: C_4  and  C_5 
REMARK    2  A    between atoms: C_8  and  C_9 
REMARK       I    between atoms: C_9  and  N_10 
REMARK    3  A    between atoms: N_10  and  C_26 
REMARK    4  A    between atoms: N_10  and  C_11 
REMARK    5  A    between atoms: C_11  and  C_12 
REMARK    6  A    between atoms: C_11  and  C_21 
REMARK       I    between atoms: C_12  and  N_13 
REMARK    7  A    between atoms: N_13  and  C_14 
REMARK    8  A    between atoms: C_14  and  C_15 
REMARK    9  A    between atoms: C_26  and  C_27 
ROOT
HETATM    1  C   UNL     1       4.199  28.702  54.068  1.00  0.00     0.271 C 
HETATM    2  N   UNL     1       5.127  28.254  55.023  1.00  0.00    -0.324 N 
HETATM    3  O   UNL     1       3.182  29.299  54.426  1.00  0.00    -0.266 OA
ENDROOT
BRANCH   2   4
HETATM    4  C   UNL     1       4.801  28.521  56.428  1.00  0.00     0.173 C 
BRANCH   4   5
HETATM    5  C   UNL     1       4.762  29.988  56.730  1.00  0.00     0.000 A 
HETATM    6  S   UNL     1       3.474  30.641  57.658  1.00  0.00    -0.105 SA
HETATM    7  C   UNL     1       4.162  32.205  57.638  1.00  0.00     0.050 A 
HETATM    8  C   UNL     1       5.357  32.234  56.956  1.00  0.00     0.008 A 
HETATM    9  C   UNL     1       5.705  30.955  56.434  1.00  0.00     0.017 A 
ENDBRANCH   4   5
ENDBRANCH   2   4
BRANCH   2  10
HETATM   10  C   UNL     1       6.383  27.540  54.706  1.00  0.00     0.220 C 
BRANCH  10  11
HETATM   11  C   UNL     1       6.152  26.013  54.566  1.00  0.00     0.245 C 
HETATM   12  N   UNL     1       6.866  25.296  53.643  1.00  0.00    -0.357 N 
HETATM   13  H   UNL     1       7.346  25.797  52.905  1.00  0.00     0.162 HD
HETATM   14  O   UNL     1       5.414  25.426  55.371  1.00  0.00    -0.271 OA
BRANCH  12  15
HETATM   15  C   UNL     1       6.643  23.874  53.432  1.00  0.00     0.154 C 
BRANCH  15  16
HETATM   16  C   UNL     1       7.805  23.026  53.968  1.00  0.00     0.139 C 
HETATM   17  O   UNL     1       7.406  22.400  55.209  1.00  0.00    -0.384 OA
HETATM   18  C   UNL     1       7.881  21.050  55.183  1.00  0.00     0.168 C 
HETATM   19  C   UNL     1       7.811  20.641  53.733  1.00  0.00     0.029 C 
HETATM   20  C   UNL     1       8.222  21.907  53.017  1.00  0.00     0.035 C 
ENDBRANCH  15  16
ENDBRANCH  12  15
ENDBRANCH  10  11
BRANCH  10  21
HETATM   21  C   UNL     1       7.567  28.054  55.513  1.00  0.00     0.014 A 
HETATM   22  S   UNL     1       8.003  27.518  57.081  1.00  0.00    -0.104 SA
HETATM   23  C   UNL     1       9.341  28.570  57.168  1.00  0.00     0.050 A 
HETATM   24  C   UNL     1       9.468  29.332  56.032  1.00  0.00     0.008 A 
HETATM   25  C   UNL     1       8.450  29.037  55.083  1.00  0.00     0.017 A 
ENDBRANCH  10  21
ENDBRANCH   2  10
BRANCH   1  26
HETATM   26  C   UNL     1       4.469  28.552  52.648  1.00  0.00     0.101 C 
HETATM   27  N   UNL     1       3.599  28.139  51.662  1.00  0.00    -0.351 N 
HETATM   28  C   UNL     1       4.247  27.986  50.452  1.00  0.00     0.043 C 
HETATM   29  H   UNL     1       2.627  27.894  51.828  1.00  0.00     0.166 HD
HETATM   30  C   UNL     1       5.500  28.549  50.630  1.00  0.00     0.033 C 
HETATM   31  C   UNL     1       5.630  28.919  51.988  1.00  0.00     0.037 C 
BRANCH  28  32
HETATM   32  C   UNL     1       3.646  27.340  49.274  1.00  0.00    -0.009 A 
HETATM   33  C   UNL     1       4.042  26.067  48.840  1.00  0.00     0.013 A 
HETATM   34  C   UNL     1       3.489  25.494  47.690  1.00  0.00     0.001 A 
HETATM   35  C   UNL     1       2.528  26.183  46.955  1.00  0.00     0.000 A 
HETATM   36  C   UNL     1       2.117  27.444  47.373  1.00  0.00     0.001 A 
HETATM   37  C   UNL     1       2.672  28.016  48.522  1.00  0.00     0.013 A 
ENDBRANCH  28  32
ENDBRANCH   1  26
TORSDOF 9
ENDMDL
MODEL 7
REMARK VINA RESULT:      -7.8      5.301      8.553
REMARK  9 active torsions:
REMARK  status: ('A' for Active; 'I' for Inactive)
REMARK    1  A    between atoms: C_4  and  C_5 
REMARK    2  A    between atoms: C_8  and  C_9 
REMARK       I    between atoms: C_9  and  N_10 
REMARK    3  A    between atoms: N_10  and  C_26 
REMARK    4  A    between atoms: N_10  and  C_11 
REMARK    5  A    between atoms: C_11  and  C_12 
REMARK    6  A    between atoms: C_11  and  C_21 
REMARK       I    between atoms: C_12  and  N_13 
REMARK    7  A    between atoms: N_13  and  C_14 
REMARK    8  A    between atoms: C_14  and  C_15 
REMARK    9  A    between atoms: C_26  and  C_27 
ROOT
HETATM    1  C   UNL     1       4.225  28.121  52.964  1.00  0.00     0.271 C 
HETATM    2  N   UNL     1       3.842  28.548  51.682  1.00  0.00    -0.324 N 
HETATM    3  O   UNL     1       3.501  28.349  53.935  1.00  0.00    -0.266 OA
ENDROOT
BRANCH   2   4
HETATM    4  C   UNL     1       2.572  29.277  51.588  1.00  0.00     0.173 C 
BRANCH   4   5
HETATM    5  C   UNL     1       2.773  30.761  51.564  1.00  0.00     0.000 A 
HETATM    6  S   UNL     1       2.037  31.709  50.337  1.00  0.00    -0.105 SA
HETATM    7  C   UNL     1       2.618  33.165  51.018  1.00  0.00     0.050 A 
HETATM    8  C   UNL     1       3.343  32.943  52.165  1.00  0.00     0.008 A 
HETATM    9  C   UNL     1       3.432  31.557  52.482  1.00  0.00     0.017 A 
ENDBRANCH   4   5
ENDBRANCH   2   4
BRANCH   2  10
HETATM   10  C   UNL     1       4.626  28.319  50.449  1.00  0.00     0.220 C 
BRANCH  10  11
HETATM   11  C   UNL     1       5.324  29.618  49.966  1.00  0.00     0.245 C 
HETATM   12  N   UNL     1       4.904  30.232  48.816  1.00  0.00    -0.357 N 
HETATM   13  H   UNL     1       4.322  29.709  48.172  1.00  0.00     0.162 HD
HETATM   14  O   UNL     1       6.175  30.162  50.684  1.00  0.00    -0.271 OA
BRANCH  12  15
HETATM   15  C   UNL     1       5.564  31.416  48.290  1.00  0.00     0.154 C 
BRANCH  15  16
HETATM   16  C   UNL     1       4.667  32.184  47.310  1.00  0.00     0.139 C 
HETATM   17  O   UNL     1       5.490  33.018  46.462  1.00  0.00    -0.384 OA
HETATM   18  C   UNL     1       4.982  32.911  45.128  1.00  0.00     0.168 C 
HETATM   19  C   UNL     1       4.461  31.500  45.021  1.00  0.00     0.029 C 
HETATM   20  C   UNL     1       3.861  31.271  46.389  1.00  0.00     0.035 C 
ENDBRANCH  15  16
ENDBRANCH  12  15
ENDBRANCH  10  11
BRANCH  10  21
HETATM   21  C   UNL     1       3.895  27.437  49.447  1.00  0.00     0.014 A 
HETATM   22  S   UNL     1       2.509  27.898  48.549  1.00  0.00    -0.104 SA
HETATM   23  C   UNL     1       2.406  26.391  47.761  1.00  0.00     0.050 A 
HETATM   24  C   UNL     1       3.400  25.532  48.165  1.00  0.00     0.008 A 
HETATM   25  C   UNL     1       4.252  26.132  49.133  1.00  0.00     0.017 A 
ENDBRANCH  10  21
ENDBRANCH   2  10
BRANCH   1  26
HETATM   26  C   UNL     1       5.428  27.327  53.150  1.00  0.00     0.101 C 
HETATM   27  N   UNL     1       5.545  25.954  53.133  1.00  0.00    -0.351 N 
HETATM   28  C   UNL     1       6.820  25.554  53.483  1.00  0.00     0.043 C 
HETATM   29  H   UNL     1       4.769  25.319  52.971  1.00  0.00     0.166 HD
HETATM   30  C   UNL     1       7.583  26.710  53.483  1.00  0.00     0.033 C 
HETATM   31  C   UNL     1       6.723  27.808  53.256  1.00  0.00     0.037 C 
BRANCH  28  32
HETATM   32  C   UNL     1       7.192  24.161  53.780  1.00  0.00    -0.009 A 
HETATM   33  C   UNL     1       7.169  23.646  55.084  1.00  0.00     0.013 A 
HETATM   34  C   UNL     1       7.573  22.332  55.347  1.00  0.00     0.001 A 
HETATM   35  C   UNL     1       8.002  21.510  54.309  1.00  0.00     0.000 A 
HETATM   36  C   UNL     1       8.026  21.999  53.007  1.00  0.00     0.001 A 
HETATM   37  C   UNL     1       7.624  23.313  52.747  1.00  0.00     0.013 A 
ENDBRANCH  28  32
ENDBRANCH   1  26
TORSDOF 9
ENDMDL
MODEL 8
REMARK VINA RESULT:      -7.7      2.612      7.588
REMARK  9 active torsions:
REMARK  status: ('A' for Active; 'I' for Inactive)
REMARK    1  A    between atoms: C_4  and  C_5 
REMARK    2  A    between atoms: C_8  and  C_9 
REMARK       I    between atoms: C_9  and  N_10 
REMARK    3  A    between atoms: N_10  and  C_26 
REMARK    4  A    between atoms: N_10  and  C_11 
REMARK    5  A    between atoms: C_11  and  C_12 
REMARK    6  A    between atoms: C_11  and  C_21 
REMARK       I    between atoms: C_12  and  N_13 
REMARK    7  A    between atoms: N_13  and  C_14 
REMARK    8  A    between atoms: C_14  and  C_15 
REMARK    9  A    between atoms: C_26  and  C_27 
ROOT
HETATM    1  C   UNL     1       8.298  28.195  56.864  1.00  0.00     0.271 C 
HETATM    2  N   UNL     1       7.374  29.241  56.705  1.00  0.00    -0.324 N 
HETATM    3  O   UNL     1       9.474  28.443  57.139  1.00  0.00    -0.266 OA
ENDROOT
BRANCH   2   4
HETATM    4  C   UNL     1       7.895  30.603  56.865  1.00  0.00     0.173 C 
BRANCH   4   5
HETATM    5  C   UNL     1       8.286  30.896  58.281  1.00  0.00     0.000 A 
HETATM    6  S   UNL     1       9.869  31.455  58.637  1.00  0.00    -0.105 SA
HETATM    7  C   UNL     1       9.506  31.631  60.298  1.00  0.00     0.050 A 
HETATM    8  C   UNL     1       8.203  31.290  60.580  1.00  0.00     0.008 A 
HETATM    9  C   UNL     1       7.498  30.868  59.416  1.00  0.00     0.017 A 
ENDBRANCH   4   5
ENDBRANCH   2   4
BRANCH   2  10
HETATM   10  C   UNL     1       5.942  29.057  56.387  1.00  0.00     0.220 C 
BRANCH  10  11
HETATM   11  C   UNL     1       5.745  28.374  55.009  1.00  0.00     0.245 C 
HETATM   12  N   UNL     1       6.444  28.821  53.919  1.00  0.00    -0.357 N 
HETATM   13  H   UNL     1       6.885  29.732  53.966  1.00  0.00     0.162 HD
HETATM   14  O   UNL     1       5.051  27.350  54.923  1.00  0.00    -0.271 OA
BRANCH  12  15
HETATM   15  C   UNL     1       6.251  28.254  52.594  1.00  0.00     0.154 C 
BRANCH  15  16
HETATM   16  C   UNL     1       5.327  29.121  51.729  1.00  0.00     0.139 C 
HETATM   17  O   UNL     1       6.129  29.931  50.838  1.00  0.00    -0.384 OA
HETATM   18  C   UNL     1       5.496  29.916  49.554  1.00  0.00     0.168 C 
HETATM   19  C   UNL     1       4.866  28.549  49.447  1.00  0.00     0.029 C 
HETATM   20  C   UNL     1       4.377  28.305  50.856  1.00  0.00     0.035 C 
ENDBRANCH  15  16
ENDBRANCH  12  15
ENDBRANCH  10  11
BRANCH  10  21
HETATM   21  C   UNL     1       5.102  30.271  56.756  1.00  0.00     0.014 A 
HETATM   22  S   UNL     1       4.870  31.652  55.766  1.00  0.00    -0.104 SA
HETATM   23  C   UNL     1       3.870  32.419  56.913  1.00  0.00     0.050 A 
HETATM   24  C   UNL     1       3.707  31.655  58.044  1.00  0.00     0.008 A 
HETATM   25  C   UNL     1       4.414  30.424  57.953  1.00  0.00     0.017 A 
ENDBRANCH  10  21
ENDBRANCH   2  10
BRANCH   1  26
HETATM   26  C   UNL     1       7.865  26.809  56.800  1.00  0.00     0.101 C 
HETATM   27  N   UNL     1       8.355  25.807  55.990  1.00  0.00    -0.351 N 
HETATM   28  C   UNL     1       7.605  24.653  56.109  1.00  0.00     0.043 C 
HETATM   29  H   UNL     1       9.114  25.932  55.328  1.00  0.00     0.166 HD
HETATM   30  C   UNL     1       6.773  24.863  57.197  1.00  0.00     0.033 C 
HETATM   31  C   UNL     1       6.950  26.194  57.639  1.00  0.00     0.037 C 
BRANCH  28  32
HETATM   32  C   UNL     1       7.732  23.494  55.211  1.00  0.00    -0.009 A 
HETATM   33  C   UNL     1       8.207  22.253  55.659  1.00  0.00     0.013 A 
HETATM   34  C   UNL     1       8.363  21.180  54.775  1.00  0.00     0.001 A 
HETATM   35  C   UNL     1       8.044  21.328  53.428  1.00  0.00     0.000 A 
HETATM   36  C   UNL     1       7.566  22.549  52.965  1.00  0.00     0.001 A 
HETATM   37  C   UNL     1       7.412  23.621  53.849  1.00  0.00     0.013 A 
ENDBRANCH  28  32
ENDBRANCH   1  26
TORSDOF 9
ENDMDL
MODEL 9
REMARK VINA RESULT:      -7.4      5.008      7.269
REMARK  9 active torsions:
REMARK  status: ('A' for Active; 'I' for Inactive)
REMARK    1  A    between atoms: C_4  and  C_5 
REMARK    2  A    between atoms: C_8  and  C_9 
REMARK       I    between atoms: C_9  and  N_10 
REMARK    3  A    between atoms: N_10  and  C_26 
REMARK    4  A    between atoms: N_10  and  C_11 
REMARK    5  A    between atoms: C_11  and  C_12 
REMARK    6  A    between atoms: C_11  and  C_21 
REMARK       I    between atoms: C_12  and  N_13 
REMARK    7  A    between atoms: N_13  and  C_14 
REMARK    8  A    between atoms: C_14  and  C_15 
REMARK    9  A    between atoms: C_26  and  C_27 
ROOT
HETATM    1  C   UNL     1       4.311  28.654  52.872  1.00  0.00     0.271 C 
HETATM    2  N   UNL     1       4.259  29.411  51.689  1.00  0.00    -0.324 N 
HETATM    3  O   UNL     1       3.337  28.617  53.626  1.00  0.00    -0.266 OA
ENDROOT
BRANCH   2   4
HETATM    4  C   UNL     1       3.013  30.143  51.436  1.00  0.00     0.173 C 
BRANCH   4   5
HETATM    5  C   UNL     1       2.313  29.658  50.203  1.00  0.00     0.000 A 
HETATM    6  S   UNL     1       2.187  30.678  48.828  1.00  0.00    -0.105 SA
HETATM    7  C   UNL     1       1.416  29.460  47.911  1.00  0.00     0.050 A 
HETATM    8  C   UNL     1       1.270  28.292  48.624  1.00  0.00     0.008 A 
HETATM    9  C   UNL     1       1.789  28.405  49.946  1.00  0.00     0.017 A 
ENDBRANCH   4   5
ENDBRANCH   2   4
BRANCH   2  10
HETATM   10  C   UNL     1       5.361  29.516  50.709  1.00  0.00     0.220 C 
BRANCH  10  11
HETATM   11  C   UNL     1       5.757  30.993  50.451  1.00  0.00     0.245 C 
HETATM   12  N   UNL     1       5.326  31.975  51.302  1.00  0.00    -0.357 N 
HETATM   13  H   UNL     1       4.562  31.767  51.935  1.00  0.00     0.162 HD
HETATM   14  O   UNL     1       6.563  31.266  49.549  1.00  0.00    -0.271 OA
BRANCH  12  15
HETATM   15  C   UNL     1       5.620  33.380  51.071  1.00  0.00     0.154 C 
BRANCH  15  16
HETATM   16  C   UNL     1       5.526  34.205  52.361  1.00  0.00     0.139 C 
HETATM   17  O   UNL     1       6.855  34.603  52.772  1.00  0.00    -0.384 OA
HETATM   18  C   UNL     1       6.785  35.968  53.197  1.00  0.00     0.168 C 
HETATM   19  C   UNL     1       5.726  36.594  52.324  1.00  0.00     0.029 C 
HETATM   20  C   UNL     1       4.708  35.484  52.201  1.00  0.00     0.035 C 
ENDBRANCH  15  16
ENDBRANCH  12  15
ENDBRANCH  10  11
BRANCH  10  21
HETATM   21  C   UNL     1       5.190  28.564  49.534  1.00  0.00     0.014 A 
HETATM   22  S   UNL     1       4.884  26.882  49.659  1.00  0.00    -0.104 SA
HETATM   23  C   UNL     1       4.850  26.670  47.968  1.00  0.00     0.050 A 
HETATM   24  C   UNL     1       5.072  27.849  47.299  1.00  0.00     0.008 A 
HETATM   25  C   UNL     1       5.268  28.935  48.197  1.00  0.00     0.017 A 
ENDBRANCH  10  21
ENDBRANCH   2  10
BRANCH   1  26
HETATM   26  C   UNL     1       5.472  27.834  53.174  1.00  0.00     0.101 C 
HETATM   27  N   UNL     1       5.589  26.464  53.072  1.00  0.00    -0.351 N 
HETATM   28  C   UNL     1       6.797  26.024  53.577  1.00  0.00     0.043 C 
HETATM   29  H   UNL     1       4.845  25.853  52.749  1.00  0.00     0.166 HD
HETATM   30  C   UNL     1       7.552  27.168  53.778  1.00  0.00     0.033 C 
HETATM   31  C   UNL     1       6.736  28.290  53.508  1.00  0.00     0.037 C 
BRANCH  28  32
HETATM   32  C   UNL     1       7.119  24.609  53.820  1.00  0.00    -0.009 A 
HETATM   33  C   UNL     1       7.105  24.053  55.108  1.00  0.00     0.013 A 
HETATM   34  C   UNL     1       7.461  22.716  55.319  1.00  0.00     0.001 A 
HETATM   35  C   UNL     1       7.834  21.912  54.245  1.00  0.00     0.000 A 
HETATM   36  C   UNL     1       7.847  22.443  52.960  1.00  0.00     0.001 A 
HETATM   37  C   UNL     1       7.493  23.779  52.751  1.00  0.00     0.013 A 
ENDBRANCH  28  32
ENDBRANCH   1  26
TORSDOF 9
ENDMDL
MODEL 10
REMARK VINA RESULT:      -7.2      2.732      7.488
REMARK  9 active torsions:
REMARK  status: ('A' for Active; 'I' for Inactive)
REMARK    1  A    between atoms: C_4  and  C_5 
REMARK    2  A    between atoms: C_8  and  C_9 
REMARK       I    between atoms: C_9  and  N_10 
REMARK    3  A    between atoms: N_10  and  C_26 
REMARK    4  A    between atoms: N_10  and  C_11 
REMARK    5  A    between atoms: C_11  and  C_12 
REMARK    6  A    between atoms: C_11  and  C_21 
REMARK       I    between atoms: C_12  and  N_13 
REMARK    7  A    between atoms: N_13  and  C_14 
REMARK    8  A    between atoms: C_14  and  C_15 
REMARK    9  A    between atoms: C_26  and  C_27 
ROOT
HETATM    1  C   UNL     1       5.366  26.879  53.097  1.00  0.00     0.271 C 
HETATM    2  N   UNL     1       5.384  27.836  54.125  1.00  0.00    -0.324 N 
HETATM    3  O   UNL     1       4.534  26.960  52.190  1.00  0.00    -0.266 OA
ENDROOT
BRANCH   2   4
HETATM    4  C   UNL     1       4.365  28.890  54.056  1.00  0.00     0.173 C 
BRANCH   4   5
HETATM    5  C   UNL     1       4.279  29.677  55.328  1.00  0.00     0.000 A 
HETATM    6  S   UNL     1       4.899  31.276  55.394  1.00  0.00    -0.105 SA
HETATM    7  C   UNL     1       4.368  31.488  57.004  1.00  0.00     0.050 A 
HETATM    8  C   UNL     1       3.716  30.375  57.483  1.00  0.00     0.008 A 
HETATM    9  C   UNL     1       3.662  29.330  56.515  1.00  0.00     0.017 A 
ENDBRANCH   4   5
ENDBRANCH   2   4
BRANCH   2  10
HETATM   10  C   UNL     1       6.341  27.843  55.252  1.00  0.00     0.220 C 
BRANCH  10  11
HETATM   11  C   UNL     1       7.690  28.496  54.852  1.00  0.00     0.245 C 
HETATM   12  N   UNL     1       8.559  28.919  55.822  1.00  0.00    -0.357 N 
HETATM   13  H   UNL     1       8.213  29.029  56.768  1.00  0.00     0.162 HD
HETATM   14  O   UNL     1       8.032  28.521  53.660  1.00  0.00    -0.271 OA
BRANCH  12  15
HETATM   15  C   UNL     1       9.808  29.591  55.499  1.00  0.00     0.154 C 
BRANCH  15  16
HETATM   16  C   UNL     1      10.587  29.989  56.759  1.00  0.00     0.139 C 
HETATM   17  O   UNL     1      10.507  31.422  56.937  1.00  0.00    -0.384 OA
HETATM   18  C   UNL     1      10.286  31.672  58.329  1.00  0.00     0.168 C 
HETATM   19  C   UNL     1       9.453  30.509  58.806  1.00  0.00     0.029 C 
HETATM   20  C   UNL     1      10.039  29.350  58.033  1.00  0.00     0.035 C 
ENDBRANCH  15  16
ENDBRANCH  12  15
ENDBRANCH  10  11
BRANCH  10  21
HETATM   21  C   UNL     1       6.337  26.535  56.030  1.00  0.00     0.014 A 
HETATM   22  S   UNL     1       4.936  25.719  56.587  1.00  0.00    -0.104 SA
HETATM   23  C   UNL     1       5.839  24.457  57.291  1.00  0.00     0.050 A 
HETATM   24  C   UNL     1       7.191  24.638  57.121  1.00  0.00     0.008 A 
HETATM   25  C   UNL     1       7.476  25.830  56.399  1.00  0.00     0.017 A 
ENDBRANCH  10  21
ENDBRANCH   2  10
BRANCH   1  26
HETATM   26  C   UNL     1       6.380  25.840  53.036  1.00  0.00     0.101 C 
HETATM   27  N   UNL     1       6.267  24.525  53.434  1.00  0.00    -0.351 N 
HETATM   28  C   UNL     1       7.481  23.870  53.353  1.00  0.00     0.043 C 
HETATM   29  H   UNL     1       5.421  24.119  53.821  1.00  0.00     0.166 HD
HETATM   30  C   UNL     1       8.319  24.729  52.659  1.00  0.00     0.033 C 
HETATM   31  C   UNL     1       7.628  25.943  52.445  1.00  0.00     0.037 C 
BRANCH  28  32
HETATM   32  C   UNL     1       7.734  22.537  53.921  1.00  0.00    -0.009 A 
HETATM   33  C   UNL     1       7.409  22.219  55.248  1.00  0.00     0.013 A 
HETATM   34  C   UNL     1       7.703  20.958  55.779  1.00  0.00     0.001 A 
HETATM   35  C   UNL     1       8.325  19.993  54.992  1.00  0.00     0.000 A 
HETATM   36  C   UNL     1       8.650  20.286  53.672  1.00  0.00     0.001 A 
HETATM   37  C   UNL     1       8.357  21.547  53.144  1.00  0.00     0.013 A 
ENDBRANCH  28  32
ENDBRANCH   1  26
TORSDOF 9
ENDMDL
