MODEL 1
REMARK VINA RESULT:     -10.8      0.000      0.000
REMARK  7 active torsions:
REMARK  status: ('A' for Active; 'I' for Inactive)
REMARK    1  A    between atoms: C_8  and  C_9 
REMARK    2  A    between atoms: C_9  and  C_10 
REMARK    3  A    between atoms: C_10  and  N_11 
REMARK    4  A    between atoms: C_10  and  C_19 
REMARK       I    between atoms: N_11  and  C_12 
REMARK    5  A    between atoms: C_12  and  C_13 
REMARK       I    between atoms: C_19  and  N_20 
REMARK    6  A    between atoms: N_20  and  N_21 
REMARK       I    between atoms: N_21  and  C_22 
REMARK       I    between atoms: C_22  and  N_23 
REMARK    7  A    between atoms: N_23  and  C_24 
ROOT
HETATM    1  C   UNL     1       5.648  26.771  55.707  1.00  0.00     0.183 C 
ENDROOT
BRANCH   1   2
HETATM    2  C   UNL     1       5.467  25.262  55.959  1.00  0.00     0.076 C 
BRANCH   2   3
HETATM    3  C   UNL     1       6.755  24.499  56.077  1.00  0.00    -0.028 A 
HETATM    4  C   UNL     1       7.371  23.660  55.093  1.00  0.00    -0.002 A 
HETATM    5  C   UNL     1       7.040  23.278  53.775  1.00  0.00     0.014 A 
HETATM    6  C   UNL     1       8.545  23.155  55.653  1.00  0.00     0.042 A 
HETATM    7  C   UNL     1       7.879  22.399  53.080  1.00  0.00     0.001 A 
HETATM    8  C   UNL     1       9.040  21.909  53.671  1.00  0.00     0.002 A 
HETATM    9  C   UNL     1       9.399  22.281  54.969  1.00  0.00     0.030 A 
HETATM   10  N   UNL     1       8.653  23.683  56.917  1.00  0.00    -0.365 N 
HETATM   11  H   UNL     1       9.418  23.502  57.552  1.00  0.00     0.165 HD
HETATM   12  C   UNL     1       7.580  24.487  57.186  1.00  0.00     0.096 A 
ENDBRANCH   2   3
ENDBRANCH   1   2
BRANCH   1  13
HETATM   13  N   UNL     1       6.822  27.360  56.356  1.00  0.00    -0.343 N 
HETATM   14  C   UNL     1       6.746  28.483  57.154  1.00  0.00     0.259 C 
HETATM   15  O   UNL     1       5.671  28.855  57.616  1.00  0.00    -0.267 OA
HETATM   16  H   UNL     1       7.701  27.255  55.861  1.00  0.00     0.163 HD
BRANCH  14  17
HETATM   17  C   UNL     1       8.012  29.152  57.426  1.00  0.00     0.072 A 
HETATM   18  S   UNL     1       8.190  30.289  58.701  1.00  0.00    -0.097 SA
HETATM   19  C   UNL     1       9.833  30.568  58.322  1.00  0.00     0.050 A 
HETATM   20  C   UNL     1      10.252  29.806  57.254  1.00  0.00     0.009 A 
HETATM   21  C   UNL     1       9.202  28.989  56.741  1.00  0.00     0.025 A 
ENDBRANCH  14  17
ENDBRANCH   1  13
BRANCH   1  22
HETATM   22  C   UNL     1       5.499  27.063  54.201  1.00  0.00     0.259 C 
HETATM   23  N   UNL     1       4.902  26.056  53.464  1.00  0.00    -0.264 N 
HETATM   24  H   UNL     1       4.212  25.463  53.926  1.00  0.00     0.190 HD
HETATM   25  O   UNL     1       6.027  28.040  53.664  1.00  0.00    -0.269 OA
BRANCH  23  26
HETATM   26  N   UNL     1       4.631  26.345  52.116  1.00  0.00    -0.249 N 
HETATM   27  C   UNL     1       5.591  26.092  51.180  1.00  0.00     0.339 C 
HETATM   28  N   UNL     1       5.312  26.420  49.885  1.00  0.00    -0.308 N 
HETATM   29  O   UNL     1       6.695  25.633  51.474  1.00  0.00    -0.245 OA
HETATM   30  H   UNL     1       6.147  26.386  49.313  1.00  0.00     0.170 HD
HETATM   31  H   UNL     1       3.974  27.102  51.962  1.00  0.00     0.192 HD
BRANCH  28  32
HETATM   32  C   UNL     1       4.108  26.749  49.232  1.00  0.00     0.036 A 
HETATM   33  C   UNL     1       3.434  27.965  49.382  1.00  0.00     0.031 A 
HETATM   34  C   UNL     1       2.248  28.212  48.679  1.00  0.00     0.026 A 
HETATM   35  C   UNL     1       1.718  27.235  47.842  1.00  0.00     0.034 A 
HETATM   36 CL   UNL     1       0.265  27.540  46.976  1.00  0.00    -0.084 Cl
HETATM   37  C   UNL     1       2.357  26.005  47.715  1.00  0.00     0.026 A 
HETATM   38  C   UNL     1       3.542  25.761  48.416  1.00  0.00     0.031 A 
ENDBRANCH  28  32
ENDBRANCH  23  26
ENDBRANCH   1  22
TORSDOF 7
ENDMDL
MODEL 2
REMARK VINA RESULT:     -10.7      4.146      8.275
REMARK  7 active torsions:
REMARK  status: ('A' for Active; 'I' for Inactive)
REMARK    1  A    between atoms: C_8  and  C_9 
REMARK    2  A    between atoms: C_9  and  C_10 
REMARK    3  A    between atoms: C_10  and  N_11 
REMARK    4  A    between atoms: C_10  and  C_19 
REMARK       I    between atoms: N_11  and  C_12 
REMARK    5  A    between atoms: C_12  and  C_13 
REMARK       I    between atoms: C_19  and  N_20 
REMARK    6  A    between atoms: N_20  and  N_21 
REMARK       I    between atoms: N_21  and  C_22 
REMARK       I    between atoms: C_22  and  N_23 
REMARK    7  A    between atoms: N_23  and  C_24 
ROOT
HETATM    1  C   UNL     1       7.915  25.847  56.013  1.00  0.00     0.183 C 
ENDROOT
BRANCH   1   2
HETATM    2  C   UNL     1       7.108  24.680  56.614  1.00  0.00     0.076 C 
BRANCH   2   3
HETATM    3  C   UNL     1       7.710  23.326  56.371  1.00  0.00    -0.028 A 
HETATM    4  C   UNL     1       7.835  22.634  55.123  1.00  0.00    -0.002 A 
HETATM    5  C   UNL     1       7.484  22.931  53.789  1.00  0.00     0.014 A 
HETATM    6  C   UNL     1       8.445  21.406  55.388  1.00  0.00     0.042 A 
HETATM    7  C   UNL     1       7.738  21.993  52.782  1.00  0.00     0.001 A 
HETATM    8  C   UNL     1       8.342  20.776  53.082  1.00  0.00     0.002 A 
HETATM    9  C   UNL     1       8.713  20.460  54.392  1.00  0.00     0.030 A 
HETATM   10  N   UNL     1       8.704  21.364  56.737  1.00  0.00    -0.365 N 
HETATM   11  H   UNL     1       9.158  20.595  57.211  1.00  0.00     0.165 HD
HETATM   12  C   UNL     1       8.261  22.509  57.339  1.00  0.00     0.096 A 
ENDBRANCH   2   3
ENDBRANCH   1   2
BRANCH   1  13
HETATM   13  N   UNL     1       7.443  26.302  54.702  1.00  0.00    -0.343 N 
HETATM   14  C   UNL     1       6.115  26.562  54.439  1.00  0.00     0.259 C 
HETATM   15  O   UNL     1       5.314  26.733  55.353  1.00  0.00    -0.267 OA
HETATM   16  H   UNL     1       7.975  25.974  53.903  1.00  0.00     0.163 HD
BRANCH  14  17
HETATM   17  C   UNL     1       5.755  26.649  53.028  1.00  0.00     0.072 A 
HETATM   18  S   UNL     1       5.611  28.154  52.213  1.00  0.00    -0.097 SA
HETATM   19  C   UNL     1       5.178  27.398  50.742  1.00  0.00     0.050 A 
HETATM   20  C   UNL     1       5.153  26.027  50.856  1.00  0.00     0.009 A 
HETATM   21  C   UNL     1       5.488  25.596  52.172  1.00  0.00     0.025 A 
ENDBRANCH  14  17
ENDBRANCH   1  13
BRANCH   1  22
HETATM   22  C   UNL     1       8.099  26.947  57.077  1.00  0.00     0.259 C 
HETATM   23  N   UNL     1       8.945  27.980  56.713  1.00  0.00    -0.264 N 
HETATM   24  H   UNL     1       9.009  28.227  55.725  1.00  0.00     0.190 HD
HETATM   25  O   UNL     1       7.668  26.830  58.227  1.00  0.00    -0.269 OA
BRANCH  23  26
HETATM   26  N   UNL     1       9.029  29.062  57.605  1.00  0.00    -0.249 N 
HETATM   27  C   UNL     1       9.869  30.097  57.311  1.00  0.00     0.339 C 
HETATM   28  N   UNL     1       9.957  31.114  58.217  1.00  0.00    -0.308 N 
HETATM   29  O   UNL     1      10.569  30.111  56.299  1.00  0.00    -0.245 OA
HETATM   30  H   UNL     1      10.743  31.718  58.009  1.00  0.00     0.170 HD
HETATM   31  H   UNL     1       8.841  28.835  58.576  1.00  0.00     0.192 HD
BRANCH  28  32
HETATM   32  C   UNL     1       9.157  31.470  59.319  1.00  0.00     0.036 A 
HETATM   33  C   UNL     1       7.782  31.715  59.253  1.00  0.00     0.031 A 
HETATM   34  C   UNL     1       7.062  32.049  60.407  1.00  0.00     0.026 A 
HETATM   35  C   UNL     1       7.719  32.163  61.628  1.00  0.00     0.034 A 
HETATM   36 CL   UNL     1       6.834  32.568  63.046  1.00  0.00    -0.084 Cl
HETATM   37  C   UNL     1       9.094  31.962  61.702  1.00  0.00     0.026 A 
HETATM   38  C   UNL     1       9.810  31.626  60.549  1.00  0.00     0.031 A 
ENDBRANCH  28  32
ENDBRANCH  23  26
ENDBRANCH   1  22
TORSDOF 7
ENDMDL
MODEL 3
REMARK VINA RESULT:     -10.6      4.525      8.532
REMARK  7 active torsions:
REMARK  status: ('A' for Active; 'I' for Inactive)
REMARK    1  A    between atoms: C_8  and  C_9 
REMARK    2  A    between atoms: C_9  and  C_10 
REMARK    3  A    between atoms: C_10  and  N_11 
REMARK    4  A    between atoms: C_10  and  C_19 
REMARK       I    between atoms: N_11  and  C_12 
REMARK    5  A    between atoms: C_12  and  C_13 
REMARK       I    between atoms: C_19  and  N_20 
REMARK    6  A    between atoms: N_20  and  N_21 
REMARK       I    between atoms: N_21  and  C_22 
REMARK       I    between atoms: C_22  and  N_23 
REMARK    7  A    between atoms: N_23  and  C_24 
ROOT
HETATM    1  C   UNL     1       7.521  26.564  55.784  1.00  0.00     0.183 C 
ENDROOT
BRANCH   1   2
HETATM    2  C   UNL     1       7.407  25.071  56.148  1.00  0.00     0.076 C 
BRANCH   2   3
HETATM    3  C   UNL     1       7.711  24.136  55.013  1.00  0.00    -0.028 A 
HETATM    4  C   UNL     1       7.955  22.726  55.080  1.00  0.00    -0.002 A 
HETATM    5  C   UNL     1       7.992  21.779  56.125  1.00  0.00     0.014 A 
HETATM    6  C   UNL     1       8.203  22.284  53.779  1.00  0.00     0.042 A 
HETATM    7  C   UNL     1       8.290  20.442  55.836  1.00  0.00     0.001 A 
HETATM    8  C   UNL     1       8.539  20.037  54.528  1.00  0.00     0.002 A 
HETATM    9  C   UNL     1       8.495  20.950  53.472  1.00  0.00     0.030 A 
HETATM   10  N   UNL     1       8.090  23.375  52.951  1.00  0.00    -0.365 N 
HETATM   11  H   UNL     1       8.204  23.348  51.947  1.00  0.00     0.165 HD
HETATM   12  C   UNL     1       7.801  24.495  53.681  1.00  0.00     0.096 A 
ENDBRANCH   2   3
ENDBRANCH   1   2
BRANCH   1  13
HETATM   13  N   UNL     1       6.385  27.093  55.024  1.00  0.00    -0.343 N 
HETATM   14  C   UNL     1       6.524  28.074  54.065  1.00  0.00     0.259 C 
HETATM   15  O   UNL     1       7.623  28.325  53.576  1.00  0.00    -0.267 OA
HETATM   16  H   UNL     1       5.495  27.102  55.509  1.00  0.00     0.163 HD
BRANCH  14  17
HETATM   17  C   UNL     1       5.294  28.745  53.664  1.00  0.00     0.072 A 
HETATM   18  S   UNL     1       4.519  28.416  52.166  1.00  0.00    -0.097 SA
HETATM   19  C   UNL     1       3.279  29.550  52.475  1.00  0.00     0.050 A 
HETATM   20  C   UNL     1       3.435  30.165  53.697  1.00  0.00     0.009 A 
HETATM   21  C   UNL     1       4.595  29.698  54.382  1.00  0.00     0.025 A 
ENDBRANCH  14  17
ENDBRANCH   1  13
BRANCH   1  22
HETATM   22  C   UNL     1       7.923  27.369  57.035  1.00  0.00     0.259 C 
HETATM   23  N   UNL     1       8.522  28.590  56.780  1.00  0.00    -0.264 N 
HETATM   24  H   UNL     1       8.257  29.090  55.931  1.00  0.00     0.190 HD
HETATM   25  O   UNL     1       7.877  26.889  58.171  1.00  0.00    -0.269 OA
BRANCH  23  26
HETATM   26  N   UNL     1       8.778  29.405  57.895  1.00  0.00    -0.249 N 
HETATM   27  C   UNL     1       9.847  30.252  57.863  1.00  0.00     0.339 C 
HETATM   28  N   UNL     1      10.092  31.002  58.976  1.00  0.00    -0.308 N 
HETATM   29  O   UNL     1      10.607  30.319  56.896  1.00  0.00    -0.245 OA
HETATM   30  H   UNL     1      11.007  31.435  58.929  1.00  0.00     0.170 HD
HETATM   31  H   UNL     1       8.471  29.027  58.785  1.00  0.00     0.192 HD
BRANCH  28  32
HETATM   32  C   UNL     1       9.311  31.291  60.111  1.00  0.00     0.036 A 
HETATM   33  C   UNL     1       9.339  30.554  61.299  1.00  0.00     0.031 A 
HETATM   34  C   UNL     1       8.536  30.924  62.386  1.00  0.00     0.026 A 
HETATM   35  C   UNL     1       7.684  32.019  62.280  1.00  0.00     0.034 A 
HETATM   36 CL   UNL     1       6.703  32.477  63.616  1.00  0.00    -0.084 Cl
HETATM   37  C   UNL     1       7.615  32.737  61.090  1.00  0.00     0.026 A 
HETATM   38  C   UNL     1       8.420  32.367  60.007  1.00  0.00     0.031 A 
ENDBRANCH  28  32
ENDBRANCH  23  26
ENDBRANCH   1  22
TORSDOF 7
ENDMDL
MODEL 4
REMARK VINA RESULT:     -10.3      1.728      2.054
REMARK  7 active torsions:
REMARK  status: ('A' for Active; 'I' for Inactive)
REMARK    1  A    between atoms: C_8  and  C_9 
REMARK    2  A    between atoms: C_9  and  C_10 
REMARK    3  A    between atoms: C_10  and  N_11 
REMARK    4  A    between atoms: C_10  and  C_19 
REMARK       I    between atoms: N_11  and  C_12 
REMARK    5  A    between atoms: C_12  and  C_13 
REMARK       I    between atoms: C_19  and  N_20 
REMARK    6  A    between atoms: N_20  and  N_21 
REMARK       I    between atoms: N_21  and  C_22 
REMARK       I    between atoms: C_22  and  N_23 
REMARK    7  A    between atoms: N_23  and  C_24 
ROOT
HETATM    1  C   UNL     1       6.780  26.441  54.925  1.00  0.00     0.183 C 
ENDROOT
BRANCH   1   2
HETATM    2  C   UNL     1       7.814  25.366  54.537  1.00  0.00     0.076 C 
BRANCH   2   3
HETATM    3  C   UNL     1       8.003  24.292  55.569  1.00  0.00    -0.028 A 
HETATM    4  C   UNL     1       8.069  22.876  55.360  1.00  0.00    -0.002 A 
HETATM    5  C   UNL     1       7.996  22.042  54.224  1.00  0.00     0.014 A 
HETATM    6  C   UNL     1       8.239  22.279  56.609  1.00  0.00     0.042 A 
HETATM    7  C   UNL     1       8.078  20.654  54.381  1.00  0.00     0.001 A 
HETATM    8  C   UNL     1       8.243  20.090  55.643  1.00  0.00     0.002 A 
HETATM    9  C   UNL     1       8.332  20.893  56.783  1.00  0.00     0.030 A 
HETATM   10  N   UNL     1       8.301  23.289  57.539  1.00  0.00    -0.365 N 
HETATM   11  H   UNL     1       8.437  23.150  58.530  1.00  0.00     0.165 HD
HETATM   12  C   UNL     1       8.153  24.503  56.926  1.00  0.00     0.096 A 
ENDBRANCH   2   3
ENDBRANCH   1   2
BRANCH   1  13
HETATM   13  N   UNL     1       7.319  27.538  55.733  1.00  0.00    -0.343 N 
HETATM   14  C   UNL     1       8.245  28.437  55.245  1.00  0.00     0.259 C 
HETATM   15  O   UNL     1       8.426  28.560  54.037  1.00  0.00    -0.267 OA
HETATM   16  H   UNL     1       7.389  27.361  56.729  1.00  0.00     0.163 HD
BRANCH  14  17
HETATM   17  C   UNL     1       8.946  29.229  56.248  1.00  0.00     0.072 A 
HETATM   18  S   UNL     1       8.217  29.667  57.741  1.00  0.00    -0.097 SA
HETATM   19  C   UNL     1       9.605  30.524  58.250  1.00  0.00     0.050 A 
HETATM   20  C   UNL     1      10.614  30.475  57.315  1.00  0.00     0.009 A 
HETATM   21  C   UNL     1      10.234  29.726  56.163  1.00  0.00     0.025 A 
ENDBRANCH  14  17
ENDBRANCH   1  13
BRANCH   1  22
HETATM   22  C   UNL     1       5.979  26.859  53.677  1.00  0.00     0.259 C 
HETATM   23  N   UNL     1       6.550  26.505  52.467  1.00  0.00    -0.264 N 
HETATM   24  H   UNL     1       7.122  25.661  52.431  1.00  0.00     0.190 HD
HETATM   25  O   UNL     1       4.997  27.603  53.743  1.00  0.00    -0.269 OA
BRANCH  23  26
HETATM   26  N   UNL     1       5.781  26.753  51.317  1.00  0.00    -0.249 N 
HETATM   27  C   UNL     1       4.878  25.814  50.911  1.00  0.00     0.339 C 
HETATM   28  N   UNL     1       4.176  26.068  49.769  1.00  0.00    -0.308 N 
HETATM   29  O   UNL     1       4.721  24.748  51.506  1.00  0.00    -0.245 OA
HETATM   30  H   UNL     1       3.693  25.237  49.447  1.00  0.00     0.170 HD
HETATM   31  H   UNL     1       6.221  27.351  50.626  1.00  0.00     0.192 HD
BRANCH  28  32
HETATM   32  C   UNL     1       3.988  27.242  49.016  1.00  0.00     0.036 A 
HETATM   33  C   UNL     1       2.897  28.105  49.155  1.00  0.00     0.031 A 
HETATM   34  C   UNL     1       2.801  29.262  48.371  1.00  0.00     0.026 A 
HETATM   35  C   UNL     1       3.783  29.548  47.429  1.00  0.00     0.034 A 
HETATM   36 CL   UNL     1       3.668  30.972  46.471  1.00  0.00    -0.084 Cl
HETATM   37  C   UNL     1       4.854  28.678  47.251  1.00  0.00     0.026 A 
HETATM   38  C   UNL     1       4.949  27.524  48.036  1.00  0.00     0.031 A 
ENDBRANCH  28  32
ENDBRANCH  23  26
ENDBRANCH   1  22
TORSDOF 7
ENDMDL
MODEL 5
REMARK VINA RESULT:     -10.2      4.467      8.405
REMARK  7 active torsions:
REMARK  status: ('A' for Active; 'I' for Inactive)
REMARK    1  A    between atoms: C_8  and  C_9 
REMARK    2  A    between atoms: C_9  and  C_10 
REMARK    3  A    between atoms: C_10  and  N_11 
REMARK    4  A    between atoms: C_10  and  C_19 
REMARK       I    between atoms: N_11  and  C_12 
REMARK    5  A    between atoms: C_12  and  C_13 
REMARK       I    between atoms: C_19  and  N_20 
REMARK    6  A    between atoms: N_20  and  N_21 
REMARK       I    between atoms: N_21  and  C_22 
REMARK       I    between atoms: C_22  and  N_23 
REMARK    7  A    between atoms: N_23  and  C_24 
ROOT
HETATM    1  C   UNL     1       7.569  27.327  55.336  1.00  0.00     0.183 C 
ENDROOT
BRANCH   1   2
HETATM    2  C   UNL     1       6.826  26.237  56.132  1.00  0.00     0.076 C 
BRANCH   2   3
HETATM    3  C   UNL     1       7.521  24.906  56.150  1.00  0.00    -0.028 A 
HETATM    4  C   UNL     1       7.694  23.993  55.060  1.00  0.00    -0.002 A 
HETATM    5  C   UNL     1       7.323  23.998  53.699  1.00  0.00     0.014 A 
HETATM    6  C   UNL     1       8.389  22.886  55.552  1.00  0.00     0.042 A 
HETATM    7  C   UNL     1       7.643  22.900  52.892  1.00  0.00     0.001 A 
HETATM    8  C   UNL     1       8.331  21.810  53.416  1.00  0.00     0.002 A 
HETATM    9  C   UNL     1       8.723  21.783  54.756  1.00  0.00     0.030 A 
HETATM   10  N   UNL     1       8.650  23.126  56.880  1.00  0.00    -0.365 N 
HETATM   11  H   UNL     1       9.156  22.499  57.488  1.00  0.00     0.165 HD
HETATM   12  C   UNL     1       8.127  24.334  57.252  1.00  0.00     0.096 A 
ENDBRANCH   2   3
ENDBRANCH   1   2
BRANCH   1  13
HETATM   13  N   UNL     1       7.133  27.467  53.944  1.00  0.00    -0.343 N 
HETATM   14  C   UNL     1       5.822  27.714  53.596  1.00  0.00     0.259 C 
HETATM   15  O   UNL     1       5.021  28.140  54.423  1.00  0.00    -0.267 OA
HETATM   16  H   UNL     1       7.656  26.930  53.261  1.00  0.00     0.163 HD
BRANCH  14  17
HETATM   17  C   UNL     1       5.481  27.469  52.199  1.00  0.00     0.072 A 
HETATM   18  S   UNL     1       5.297  28.746  51.066  1.00  0.00    -0.097 SA
HETATM   19  C   UNL     1       4.914  27.664  49.800  1.00  0.00     0.050 A 
HETATM   20  C   UNL     1       4.935  26.353  50.218  1.00  0.00     0.009 A 
HETATM   21  C   UNL     1       5.265  26.242  51.600  1.00  0.00     0.025 A 
ENDBRANCH  14  17
ENDBRANCH   1  13
BRANCH   1  22
HETATM   22  C   UNL     1       7.608  28.629  56.160  1.00  0.00     0.259 C 
HETATM   23  N   UNL     1       6.510  28.842  56.974  1.00  0.00    -0.264 N 
HETATM   24  H   UNL     1       6.024  28.028  57.352  1.00  0.00     0.190 HD
HETATM   25  O   UNL     1       8.465  29.498  55.977  1.00  0.00    -0.269 OA
BRANCH  23  26
HETATM   26  N   UNL     1       6.577  29.949  57.835  1.00  0.00    -0.249 N 
HETATM   27  C   UNL     1       5.841  31.061  57.541  1.00  0.00     0.339 C 
HETATM   28  N   UNL     1       5.957  32.133  58.376  1.00  0.00    -0.308 N 
HETATM   29  O   UNL     1       5.130  31.135  56.539  1.00  0.00    -0.245 OA
HETATM   30  H   UNL     1       5.540  32.961  57.966  1.00  0.00     0.170 HD
HETATM   31  H   UNL     1       7.452  30.052  58.337  1.00  0.00     0.192 HD
BRANCH  28  32
HETATM   32  C   UNL     1       6.503  32.272  59.666  1.00  0.00     0.036 A 
HETATM   33  C   UNL     1       7.869  32.202  59.959  1.00  0.00     0.031 A 
HETATM   34  C   UNL     1       8.324  32.367  61.274  1.00  0.00     0.026 A 
HETATM   35  C   UNL     1       7.413  32.578  62.304  1.00  0.00     0.034 A 
HETATM   36 CL   UNL     1       7.972  32.786  63.917  1.00  0.00    -0.084 Cl
HETATM   37  C   UNL     1       6.048  32.609  62.034  1.00  0.00     0.026 A 
HETATM   38  C   UNL     1       5.596  32.446  60.720  1.00  0.00     0.031 A 
ENDBRANCH  28  32
ENDBRANCH  23  26
ENDBRANCH   1  22
TORSDOF 7
ENDMDL
MODEL 6
REMARK VINA RESULT:     -10.0      1.724      2.439
REMARK  7 active torsions:
REMARK  status: ('A' for Active; 'I' for Inactive)
REMARK    1  A    between atoms: C_8  and  C_9 
REMARK    2  A    between atoms: C_9  and  C_10 
REMARK    3  A    between atoms: C_10  and  N_11 
REMARK    4  A    between atoms: C_10  and  C_19 
REMARK       I    between atoms: N_11  and  C_12 
REMARK    5  A    between atoms: C_12  and  C_13 
REMARK       I    between atoms: C_19  and  N_20 
REMARK    6  A    between atoms: N_20  and  N_21 
REMARK       I    between atoms: N_21  and  C_22 
REMARK       I    between atoms: C_22  and  N_23 
REMARK    7  A    between atoms: N_23  and  C_24 
ROOT
HETATM    1  C   UNL     1       6.188  25.827  53.796  1.00  0.00     0.183 C 
ENDROOT
BRANCH   1   2
HETATM    2  C   UNL     1       7.550  25.163  53.517  1.00  0.00     0.076 C 
BRANCH   2   3
HETATM    3  C   UNL     1       7.935  24.107  54.512  1.00  0.00    -0.028 A 
HETATM    4  C   UNL     1       8.146  22.710  54.271  1.00  0.00    -0.002 A 
HETATM    5  C   UNL     1       8.086  21.886  53.128  1.00  0.00     0.014 A 
HETATM    6  C   UNL     1       8.475  22.123  55.494  1.00  0.00     0.042 A 
HETATM    7  C   UNL     1       8.338  20.514  53.252  1.00  0.00     0.001 A 
HETATM    8  C   UNL     1       8.657  19.960  54.487  1.00  0.00     0.002 A 
HETATM    9  C   UNL     1       8.738  20.755  55.633  1.00  0.00     0.030 A 
HETATM   10  N   UNL     1       8.489  23.123  56.436  1.00  0.00    -0.365 N 
HETATM   11  H   UNL     1       8.712  22.990  57.412  1.00  0.00     0.165 HD
HETATM   12  C   UNL     1       8.159  24.319  55.859  1.00  0.00     0.096 A 
ENDBRANCH   2   3
ENDBRANCH   1   2
BRANCH   1  13
HETATM   13  N   UNL     1       6.217  26.861  54.834  1.00  0.00    -0.343 N 
HETATM   14  C   UNL     1       7.100  27.920  54.805  1.00  0.00     0.259 C 
HETATM   15  O   UNL     1       7.681  28.227  53.768  1.00  0.00    -0.267 OA
HETATM   16  H   UNL     1       5.952  26.560  55.766  1.00  0.00     0.163 HD
BRANCH  14  17
HETATM   17  C   UNL     1       7.258  28.647  56.060  1.00  0.00     0.072 A 
HETATM   18  S   UNL     1       8.449  28.217  57.221  1.00  0.00    -0.097 SA
HETATM   19  C   UNL     1       7.961  29.459  58.288  1.00  0.00     0.050 A 
HETATM   20  C   UNL     1       6.920  30.200  57.775  1.00  0.00     0.009 A 
HETATM   21  C   UNL     1       6.518  29.732  56.490  1.00  0.00     0.025 A 
ENDBRANCH  14  17
ENDBRANCH   1  13
BRANCH   1  22
HETATM   22  C   UNL     1       5.531  26.236  52.463  1.00  0.00     0.259 C 
HETATM   23  N   UNL     1       4.733  27.364  52.523  1.00  0.00    -0.264 N 
HETATM   24  H   UNL     1       4.968  28.087  53.204  1.00  0.00     0.190 HD
HETATM   25  O   UNL     1       5.571  25.517  51.461  1.00  0.00    -0.269 OA
BRANCH  23  26
HETATM   26  N   UNL     1       4.229  27.839  51.301  1.00  0.00    -0.249 N 
HETATM   27  C   UNL     1       4.869  28.869  50.677  1.00  0.00     0.339 C 
HETATM   28  N   UNL     1       4.332  29.333  49.512  1.00  0.00    -0.308 N 
HETATM   29  O   UNL     1       5.867  29.411  51.154  1.00  0.00    -0.245 OA
HETATM   30  H   UNL     1       4.754  30.214  49.242  1.00  0.00     0.170 HD
HETATM   31  H   UNL     1       3.228  27.728  51.176  1.00  0.00     0.192 HD
BRANCH  28  32
HETATM   32  C   UNL     1       3.360  28.803  48.643  1.00  0.00     0.036 A 
HETATM   33  C   UNL     1       3.530  27.645  47.877  1.00  0.00     0.031 A 
HETATM   34  C   UNL     1       2.500  27.182  47.049  1.00  0.00     0.026 A 
HETATM   35  C   UNL     1       1.304  27.888  46.965  1.00  0.00     0.034 A 
HETATM   36 CL   UNL     1       0.038  27.316  45.952  1.00  0.00    -0.084 Cl
HETATM   37  C   UNL     1       1.135  29.064  47.690  1.00  0.00     0.026 A 
HETATM   38  C   UNL     1       2.165  29.523  48.518  1.00  0.00     0.031 A 
ENDBRANCH  28  32
ENDBRANCH  23  26
ENDBRANCH   1  22
TORSDOF 7
ENDMDL
MODEL 7
REMARK VINA RESULT:      -9.6      1.954      2.737
REMARK  7 active torsions:
REMARK  status: ('A' for Active; 'I' for Inactive)
REMARK    1  A    between atoms: C_8  and  C_9 
REMARK    2  A    between atoms: C_9  and  C_10 
REMARK    3  A    between atoms: C_10  and  N_11 
REMARK    4  A    between atoms: C_10  and  C_19 
REMARK       I    between atoms: N_11  and  C_12 
REMARK    5  A    between atoms: C_12  and  C_13 
REMARK       I    between atoms: C_19  and  N_20 
REMARK    6  A    between atoms: N_20  and  N_21 
REMARK       I    between atoms: N_21  and  C_22 
REMARK       I    between atoms: C_22  and  N_23 
REMARK    7  A    between atoms: N_23  and  C_24 
ROOT
HETATM    1  C   UNL     1       6.683  25.378  53.954  1.00  0.00     0.183 C 
ENDROOT
BRANCH   1   2
HETATM    2  C   UNL     1       7.762  24.609  53.166  1.00  0.00     0.076 C 
BRANCH   2   3
HETATM    3  C   UNL     1       7.862  23.154  53.521  1.00  0.00    -0.028 A 
HETATM    4  C   UNL     1       8.044  22.578  54.820  1.00  0.00    -0.002 A 
HETATM    5  C   UNL     1       8.176  23.104  56.123  1.00  0.00     0.014 A 
HETATM    6  C   UNL     1       8.091  21.193  54.659  1.00  0.00     0.042 A 
HETATM    7  C   UNL     1       8.367  22.235  57.203  1.00  0.00     0.001 A 
HETATM    8  C   UNL     1       8.415  20.858  57.006  1.00  0.00     0.002 A 
HETATM    9  C   UNL     1       8.273  20.309  55.729  1.00  0.00     0.030 A 
HETATM   10  N   UNL     1       7.920  20.933  53.320  1.00  0.00    -0.365 N 
HETATM   11  H   UNL     1       7.894  20.008  52.913  1.00  0.00     0.165 HD
HETATM   12  C   UNL     1       7.788  22.103  52.626  1.00  0.00     0.096 A 
ENDBRANCH   2   3
ENDBRANCH   1   2
BRANCH   1  13
HETATM   13  N   UNL     1       7.210  26.302  54.962  1.00  0.00    -0.343 N 
HETATM   14  C   UNL     1       6.560  26.553  56.153  1.00  0.00     0.259 C 
HETATM   15  O   UNL     1       5.690  25.793  56.567  1.00  0.00    -0.267 OA
HETATM   16  H   UNL     1       7.753  27.081  54.607  1.00  0.00     0.163 HD
BRANCH  14  17
HETATM   17  C   UNL     1       7.001  27.740  56.875  1.00  0.00     0.072 A 
HETATM   18  S   UNL     1       5.938  29.041  57.231  1.00  0.00    -0.097 SA
HETATM   19  C   UNL     1       7.172  29.934  58.006  1.00  0.00     0.050 A 
HETATM   20  C   UNL     1       8.371  29.258  58.011  1.00  0.00     0.009 A 
HETATM   21  C   UNL     1       8.271  27.994  57.361  1.00  0.00     0.025 A 
ENDBRANCH  14  17
ENDBRANCH   1  13
BRANCH   1  22
HETATM   22  C   UNL     1       5.655  25.973  52.972  1.00  0.00     0.259 C 
HETATM   23  N   UNL     1       5.945  27.249  52.520  1.00  0.00    -0.264 N 
HETATM   24  H   UNL     1       6.925  27.522  52.441  1.00  0.00     0.190 HD
HETATM   25  O   UNL     1       4.572  25.430  52.743  1.00  0.00    -0.269 OA
BRANCH  23  26
HETATM   26  N   UNL     1       5.100  27.766  51.524  1.00  0.00    -0.249 N 
HETATM   27  C   UNL     1       5.278  29.054  51.109  1.00  0.00     0.339 C 
HETATM   28  N   UNL     1       4.417  29.538  50.169  1.00  0.00    -0.308 N 
HETATM   29  O   UNL     1       6.144  29.787  51.587  1.00  0.00    -0.245 OA
HETATM   30  H   UNL     1       4.502  30.544  50.082  1.00  0.00     0.170 HD
HETATM   31  H   UNL     1       4.172  27.358  51.493  1.00  0.00     0.192 HD
BRANCH  28  32
HETATM   32  C   UNL     1       3.496  28.903  49.314  1.00  0.00     0.036 A 
HETATM   33  C   UNL     1       2.147  28.698  49.616  1.00  0.00     0.031 A 
HETATM   34  C   UNL     1       1.299  28.068  48.696  1.00  0.00     0.026 A 
HETATM   35  C   UNL     1       1.804  27.620  47.479  1.00  0.00     0.034 A 
HETATM   36 CL   UNL     1       0.762  26.852  46.347  1.00  0.00    -0.084 Cl
HETATM   37  C   UNL     1       3.153  27.781  47.181  1.00  0.00     0.026 A 
HETATM   38  C   UNL     1       3.997  28.412  48.101  1.00  0.00     0.031 A 
ENDBRANCH  28  32
ENDBRANCH  23  26
ENDBRANCH   1  22
TORSDOF 7
ENDMDL
MODEL 8
REMARK VINA RESULT:      -9.6      4.413      9.408
REMARK  7 active torsions:
REMARK  status: ('A' for Active; 'I' for Inactive)
REMARK    1  A    between atoms: C_8  and  C_9 
REMARK    2  A    between atoms: C_9  and  C_10 
REMARK    3  A    between atoms: C_10  and  N_11 
REMARK    4  A    between atoms: C_10  and  C_19 
REMARK       I    between atoms: N_11  and  C_12 
REMARK    5  A    between atoms: C_12  and  C_13 
REMARK       I    between atoms: C_19  and  N_20 
REMARK    6  A    between atoms: N_20  and  N_21 
REMARK       I    between atoms: N_21  and  C_22 
REMARK       I    between atoms: C_22  and  N_23 
REMARK    7  A    between atoms: N_23  and  C_24 
ROOT
HETATM    1  C   UNL     1       7.246  26.712  55.683  1.00  0.00     0.183 C 
ENDROOT
BRANCH   1   2
HETATM    2  C   UNL     1       7.292  27.664  54.472  1.00  0.00     0.076 C 
BRANCH   2   3
HETATM    3  C   UNL     1       5.950  28.190  54.052  1.00  0.00    -0.028 A 
HETATM    4  C   UNL     1       5.343  28.108  52.756  1.00  0.00    -0.002 A 
HETATM    5  C   UNL     1       5.731  27.555  51.518  1.00  0.00     0.014 A 
HETATM    6  C   UNL     1       4.104  28.745  52.837  1.00  0.00     0.042 A 
HETATM    7  C   UNL     1       4.881  27.673  50.412  1.00  0.00     0.001 A 
HETATM    8  C   UNL     1       3.654  28.320  50.526  1.00  0.00     0.002 A 
HETATM    9  C   UNL     1       3.238  28.864  51.744  1.00  0.00     0.030 A 
HETATM   10  N   UNL     1       3.951  29.174  54.134  1.00  0.00    -0.365 N 
HETATM   11  H   UNL     1       3.136  29.656  54.487  1.00  0.00     0.165 HD
HETATM   12  C   UNL     1       5.057  28.852  54.871  1.00  0.00     0.096 A 
ENDBRANCH   2   3
ENDBRANCH   1   2
BRANCH   1  13
HETATM   13  N   UNL     1       7.810  25.383  55.434  1.00  0.00    -0.343 N 
HETATM   14  C   UNL     1       7.084  24.364  54.853  1.00  0.00     0.259 C 
HETATM   15  O   UNL     1       6.051  24.601  54.233  1.00  0.00    -0.267 OA
HETATM   16  H   UNL     1       8.519  25.073  56.089  1.00  0.00     0.163 HD
BRANCH  14  17
HETATM   17  C   UNL     1       7.643  23.025  55.001  1.00  0.00     0.072 A 
HETATM   18  S   UNL     1       8.383  22.500  56.460  1.00  0.00    -0.097 SA
HETATM   19  C   UNL     1       8.743  20.962  55.809  1.00  0.00     0.050 A 
HETATM   20  C   UNL     1       8.301  20.835  54.511  1.00  0.00     0.009 A 
HETATM   21  C   UNL     1       7.666  22.024  54.048  1.00  0.00     0.025 A 
ENDBRANCH  14  17
ENDBRANCH   1  13
BRANCH   1  22
HETATM   22  C   UNL     1       7.780  27.442  56.932  1.00  0.00     0.259 C 
HETATM   23  N   UNL     1       8.122  28.768  56.735  1.00  0.00    -0.264 N 
HETATM   24  H   UNL     1       7.613  29.299  56.028  1.00  0.00     0.190 HD
HETATM   25  O   UNL     1       8.046  26.847  57.979  1.00  0.00    -0.269 OA
BRANCH  23  26
HETATM   26  N   UNL     1       8.485  29.496  57.880  1.00  0.00    -0.249 N 
HETATM   27  C   UNL     1       9.663  30.184  57.881  1.00  0.00     0.339 C 
HETATM   28  N   UNL     1      10.005  30.849  59.022  1.00  0.00    -0.308 N 
HETATM   29  O   UNL     1      10.431  30.178  56.919  1.00  0.00    -0.245 OA
HETATM   30  H   UNL     1      10.972  31.149  58.992  1.00  0.00     0.170 HD
HETATM   31  H   UNL     1       8.122  29.132  58.754  1.00  0.00     0.192 HD
BRANCH  28  32
HETATM   32  C   UNL     1       9.265  31.203  60.167  1.00  0.00     0.036 A 
HETATM   33  C   UNL     1       9.293  30.500  61.375  1.00  0.00     0.031 A 
HETATM   34  C   UNL     1       8.534  30.935  62.469  1.00  0.00     0.026 A 
HETATM   35  C   UNL     1       7.726  32.062  62.351  1.00  0.00     0.034 A 
HETATM   36 CL   UNL     1       6.799  32.598  63.696  1.00  0.00    -0.084 Cl
HETATM   37  C   UNL     1       7.657  32.748  61.143  1.00  0.00     0.026 A 
HETATM   38  C   UNL     1       8.418  32.313  60.052  1.00  0.00     0.031 A 
ENDBRANCH  28  32
ENDBRANCH  23  26
ENDBRANCH   1  22
TORSDOF 7
ENDMDL
MODEL 9
REMARK VINA RESULT:      -9.5      4.184      8.306
REMARK  7 active torsions:
REMARK  status: ('A' for Active; 'I' for Inactive)
REMARK    1  A    between atoms: C_8  and  C_9 
REMARK    2  A    between atoms: C_9  and  C_10 
REMARK    3  A    between atoms: C_10  and  N_11 
REMARK    4  A    between atoms: C_10  and  C_19 
REMARK       I    between atoms: N_11  and  C_12 
REMARK    5  A    between atoms: C_12  and  C_13 
REMARK       I    between atoms: C_19  and  N_20 
REMARK    6  A    between atoms: N_20  and  N_21 
REMARK       I    between atoms: N_21  and  C_22 
REMARK       I    between atoms: C_22  and  N_23 
REMARK    7  A    between atoms: N_23  and  C_24 
ROOT
HETATM    1  C   UNL     1       6.099  29.462  56.719  1.00  0.00     0.183 C 
ENDROOT
BRANCH   1   2
HETATM    2  C   UNL     1       7.347  30.059  57.399  1.00  0.00     0.076 C 
BRANCH   2   3
HETATM    3  C   UNL     1       7.041  31.017  58.513  1.00  0.00    -0.028 A 
HETATM    4  C   UNL     1       7.753  31.184  59.746  1.00  0.00    -0.002 A 
HETATM    5  C   UNL     1       8.894  30.581  60.316  1.00  0.00     0.014 A 
HETATM    6  C   UNL     1       7.097  32.178  60.473  1.00  0.00     0.042 A 
HETATM    7  C   UNL     1       9.322  30.978  61.588  1.00  0.00     0.001 A 
HETATM    8  C   UNL     1       8.641  31.969  62.289  1.00  0.00     0.002 A 
HETATM    9  C   UNL     1       7.517  32.593  61.743  1.00  0.00     0.030 A 
HETATM   10  N   UNL     1       6.045  32.617  59.706  1.00  0.00    -0.365 N 
HETATM   11  H   UNL     1       5.403  33.349  59.976  1.00  0.00     0.165 HD
HETATM   12  C   UNL     1       5.997  31.922  58.529  1.00  0.00     0.096 A 
ENDBRANCH   2   3
ENDBRANCH   1   2
BRANCH   1  13
HETATM   13  N   UNL     1       5.579  30.252  55.601  1.00  0.00    -0.343 N 
HETATM   14  C   UNL     1       4.233  30.500  55.427  1.00  0.00     0.259 C 
HETATM   15  O   UNL     1       3.441  30.348  56.353  1.00  0.00    -0.267 OA
HETATM   16  H   UNL     1       6.112  30.205  54.739  1.00  0.00     0.163 HD
BRANCH  14  17
HETATM   17  C   UNL     1       3.843  30.975  54.105  1.00  0.00     0.072 A 
HETATM   18  S   UNL     1       3.770  32.648  53.720  1.00  0.00    -0.097 SA
HETATM   19  C   UNL     1       3.253  32.331  52.122  1.00  0.00     0.050 A 
HETATM   20  C   UNL     1       3.147  30.982  51.872  1.00  0.00     0.009 A 
HETATM   21  C   UNL     1       3.489  30.202  53.015  1.00  0.00     0.025 A 
ENDBRANCH  14  17
ENDBRANCH   1  13
BRANCH   1  22
HETATM   22  C   UNL     1       6.337  27.967  56.429  1.00  0.00     0.259 C 
HETATM   23  N   UNL     1       7.662  27.570  56.441  1.00  0.00    -0.264 N 
HETATM   24  H   UNL     1       8.310  28.068  57.053  1.00  0.00     0.190 HD
HETATM   25  O   UNL     1       5.435  27.219  56.043  1.00  0.00    -0.269 OA
BRANCH  23  26
HETATM   26  N   UNL     1       7.903  26.193  56.313  1.00  0.00    -0.249 N 
HETATM   27  C   UNL     1       7.988  25.428  57.440  1.00  0.00     0.339 C 
HETATM   28  N   UNL     1       8.261  24.101  57.284  1.00  0.00    -0.308 N 
HETATM   29  O   UNL     1       7.875  25.904  58.570  1.00  0.00    -0.245 OA
HETATM   30  H   UNL     1       8.503  23.672  58.170  1.00  0.00     0.170 HD
HETATM   31  H   UNL     1       8.431  25.923  55.490  1.00  0.00     0.192 HD
BRANCH  28  32
HETATM   32  C   UNL     1       8.233  23.257  56.157  1.00  0.00     0.036 A 
HETATM   33  C   UNL     1       8.174  23.705  54.834  1.00  0.00     0.031 A 
HETATM   34  C   UNL     1       8.165  22.791  53.773  1.00  0.00     0.026 A 
HETATM   35  C   UNL     1       8.191  21.424  54.032  1.00  0.00     0.034 A 
HETATM   36 CL   UNL     1       8.186  20.302  52.729  1.00  0.00    -0.084 Cl
HETATM   37  C   UNL     1       8.209  20.962  55.345  1.00  0.00     0.026 A 
HETATM   38  C   UNL     1       8.220  21.877  56.403  1.00  0.00     0.031 A 
ENDBRANCH  28  32
ENDBRANCH  23  26
ENDBRANCH   1  22
TORSDOF 7
ENDMDL
MODEL 10
REMARK VINA RESULT:      -9.5      4.189      8.115
REMARK  7 active torsions:
REMARK  status: ('A' for Active; 'I' for Inactive)
REMARK    1  A    between atoms: C_8  and  C_9 
REMARK    2  A    between atoms: C_9  and  C_10 
REMARK    3  A    between atoms: C_10  and  N_11 
REMARK    4  A    between atoms: C_10  and  C_19 
REMARK       I    between atoms: N_11  and  C_12 
REMARK    5  A    between atoms: C_12  and  C_13 
REMARK       I    between atoms: C_19  and  N_20 
REMARK    6  A    between atoms: N_20  and  N_21 
REMARK       I    between atoms: N_21  and  C_22 
REMARK       I    between atoms: C_22  and  N_23 
REMARK    7  A    between atoms: N_23  and  C_24 
ROOT
HETATM    1  C   UNL     1       6.094  26.609  53.995  1.00  0.00     0.183 C 
ENDROOT
BRANCH   1   2
HETATM    2  C   UNL     1       5.558  25.483  54.900  1.00  0.00     0.076 C 
BRANCH   2   3
HETATM    3  C   UNL     1       6.615  24.547  55.410  1.00  0.00    -0.028 A 
HETATM    4  C   UNL     1       7.301  23.520  54.684  1.00  0.00    -0.002 A 
HETATM    5  C   UNL     1       7.253  23.051  53.354  1.00  0.00     0.014 A 
HETATM    6  C   UNL     1       8.184  22.903  55.571  1.00  0.00     0.042 A 
HETATM    7  C   UNL     1       8.069  21.981  52.969  1.00  0.00     0.001 A 
HETATM    8  C   UNL     1       8.935  21.384  53.881  1.00  0.00     0.002 A 
HETATM    9  C   UNL     1       9.013  21.837  55.200  1.00  0.00     0.030 A 
HETATM   10  N   UNL     1       8.060  23.544  56.781  1.00  0.00    -0.365 N 
HETATM   11  H   UNL     1       8.594  23.317  57.608  1.00  0.00     0.165 HD
HETATM   12  C   UNL     1       7.116  24.530  56.698  1.00  0.00     0.096 A 
ENDBRANCH   2   3
ENDBRANCH   1   2
BRANCH   1  13
HETATM   13  N   UNL     1       5.237  26.929  52.850  1.00  0.00    -0.343 N 
HETATM   14  C   UNL     1       5.585  26.620  51.551  1.00  0.00     0.259 C 
HETATM   15  O   UNL     1       6.460  25.792  51.314  1.00  0.00    -0.267 OA
HETATM   16  H   UNL     1       4.663  27.759  52.945  1.00  0.00     0.163 HD
BRANCH  14  17
HETATM   17  C   UNL     1       4.828  27.309  50.513  1.00  0.00     0.072 A 
HETATM   18  S   UNL     1       4.518  26.595  48.981  1.00  0.00    -0.097 SA
HETATM   19  C   UNL     1       3.669  27.972  48.430  1.00  0.00     0.050 A 
HETATM   20  C   UNL     1       3.607  28.957  49.389  1.00  0.00     0.009 A 
HETATM   21  C   UNL     1       4.273  28.573  50.590  1.00  0.00     0.025 A 
ENDBRANCH  14  17
ENDBRANCH   1  13
BRANCH   1  22
HETATM   22  C   UNL     1       6.524  27.807  54.864  1.00  0.00     0.259 C 
HETATM   23  N   UNL     1       5.509  28.394  55.599  1.00  0.00    -0.264 N 
HETATM   24  H   UNL     1       4.735  27.805  55.910  1.00  0.00     0.190 HD
HETATM   25  O   UNL     1       7.645  28.314  54.778  1.00  0.00    -0.269 OA
BRANCH  23  26
HETATM   26  N   UNL     1       5.892  29.400  56.501  1.00  0.00    -0.249 N 
HETATM   27  C   UNL     1       5.342  30.643  56.377  1.00  0.00     0.339 C 
HETATM   28  N   UNL     1       5.764  31.608  57.244  1.00  0.00    -0.308 N 
HETATM   29  O   UNL     1       4.531  30.921  55.493  1.00  0.00    -0.245 OA
HETATM   30  H   UNL     1       5.456  32.526  56.944  1.00  0.00     0.170 HD
HETATM   31  H   UNL     1       6.829  29.307  56.876  1.00  0.00     0.192 HD
BRANCH  28  32
HETATM   32  C   UNL     1       6.491  31.545  58.448  1.00  0.00     0.036 A 
HETATM   33  C   UNL     1       7.627  30.754  58.645  1.00  0.00     0.031 A 
HETATM   34  C   UNL     1       8.297  30.765  59.875  1.00  0.00     0.026 A 
HETATM   35  C   UNL     1       7.821  31.551  60.920  1.00  0.00     0.034 A 
HETATM   36 CL   UNL     1       8.648  31.570  62.427  1.00  0.00    -0.084 Cl
HETATM   37  C   UNL     1       6.669  32.313  60.751  1.00  0.00     0.026 A 
HETATM   38  C   UNL     1       6.002  32.302  59.521  1.00  0.00     0.031 A 
ENDBRANCH  28  32
ENDBRANCH  23  26
ENDBRANCH   1  22
TORSDOF 7
ENDMDL
