MODEL 1
REMARK VINA RESULT:     -10.2      0.000      0.000
REMARK  5 active torsions:
REMARK  status: ('A' for Active; 'I' for Inactive)
REMARK    1  A    between atoms: C_7  and  C_8 
REMARK    2  A    between atoms: C_11  and  N_12 
REMARK       I    between atoms: N_12  and  C_13 
REMARK    3  A    between atoms: C_13  and  C_14 
REMARK    4  A    between atoms: C_16  and  O_17 
REMARK    5  A    between atoms: C_20  and  O_21 
ROOT
HETATM    1  C   UNL     1       7.674  27.457  56.356  1.00  0.00     0.017 A 
HETATM    2  C   UNL     1       8.818  28.123  56.814  1.00  0.00     0.018 A 
HETATM    3  C   UNL     1       8.719  29.193  57.714  1.00  0.00     0.030 A 
HETATM    4  C   UNL     1       7.473  29.618  58.174  1.00  0.00     0.035 A 
HETATM    5  C   UNL     1       6.323  28.988  57.684  1.00  0.00     0.030 A 
HETATM    6  C   UNL     1       6.424  27.917  56.787  1.00  0.00     0.018 A 
ENDROOT
BRANCH   4   7
HETATM    7  N   UNL     1       7.290  30.624  59.145  1.00  0.00    -0.323 N 
HETATM    8  C   UNL     1       8.036  30.820  60.293  1.00  0.00     0.256 C 
HETATM    9  O   UNL     1       9.041  30.215  60.642  1.00  0.00    -0.267 OA
HETATM   10  H   UNL     1       6.439  31.165  59.056  1.00  0.00     0.169 HD
BRANCH   8  11
HETATM   11  C   UNL     1       7.477  31.845  61.210  1.00  0.00     0.037 A 
HETATM   12  C   UNL     1       6.428  32.641  60.743  1.00  0.00     0.054 A 
HETATM   13  C   UNL     1       5.914  33.661  61.541  1.00  0.00     0.071 A 
HETATM   14  C   UNL     1       6.439  33.856  62.819  1.00  0.00     0.073 A 
HETATM   15  C   UNL     1       7.472  33.042  63.305  1.00  0.00     0.071 A 
HETATM   16  C   UNL     1       7.996  32.033  62.498  1.00  0.00     0.054 A 
BRANCH  13  17
HETATM   17  O   UNL     1       4.914  34.392  60.961  1.00  0.00    -0.356 OA
HETATM   18  C   UNL     1       4.364  33.885  59.752  1.00  0.00     0.210 C 
ENDBRANCH  13  17
BRANCH  15  19
HETATM   19  O   UNL     1       7.880  33.346  64.576  1.00  0.00    -0.356 OA
HETATM   20  C   UNL     1       6.875  33.718  65.511  1.00  0.00     0.210 C 
ENDBRANCH  15  19
ENDBRANCH   8  11
ENDBRANCH   4   7
BRANCH   1  21
HETATM   21  C   UNL     1       7.750  26.282  55.490  1.00  0.00     0.180 A 
HETATM   22  N   UNL     1       7.589  26.209  54.180  1.00  0.00    -0.221 NA
HETATM   23  C   UNL     1       7.673  24.866  53.916  1.00  0.00     0.093 A 
HETATM   24  C   UNL     1       7.906  24.169  55.088  1.00  0.00     0.107 A 
HETATM   25  C   UNL     1       7.550  24.153  52.719  1.00  0.00     0.035 A 
HETATM   26  C   UNL     1       8.038  22.789  55.179  1.00  0.00     0.046 A 
HETATM   27  O   UNL     1       7.962  25.073  56.108  1.00  0.00    -0.289 OA
HETATM   28  C   UNL     1       7.923  22.076  53.973  1.00  0.00    -0.059 A 
HETATM   29  C   UNL     1       8.007  20.575  53.980  1.00  0.00     0.048 C 
HETATM   30  C   UNL     1       7.671  22.754  52.766  1.00  0.00     0.009 A 
ENDBRANCH   1  21
TORSDOF 5
ENDMDL
MODEL 2
REMARK VINA RESULT:     -10.0      0.298      2.268
REMARK  5 active torsions:
REMARK  status: ('A' for Active; 'I' for Inactive)
REMARK    1  A    between atoms: C_7  and  C_8 
REMARK    2  A    between atoms: C_11  and  N_12 
REMARK       I    between atoms: N_12  and  C_13 
REMARK    3  A    between atoms: C_13  and  C_14 
REMARK    4  A    between atoms: C_16  and  O_17 
REMARK    5  A    between atoms: C_20  and  O_21 
ROOT
HETATM    1  C   UNL     1       7.650  27.348  56.359  1.00  0.00     0.017 A 
HETATM    2  C   UNL     1       8.782  27.983  56.886  1.00  0.00     0.018 A 
HETATM    3  C   UNL     1       8.659  29.090  57.736  1.00  0.00     0.030 A 
HETATM    4  C   UNL     1       7.400  29.584  58.078  1.00  0.00     0.035 A 
HETATM    5  C   UNL     1       6.267  28.985  57.517  1.00  0.00     0.030 A 
HETATM    6  C   UNL     1       6.391  27.877  56.670  1.00  0.00     0.018 A 
ENDROOT
BRANCH   4   7
HETATM    7  N   UNL     1       7.185  30.633  58.994  1.00  0.00    -0.323 N 
HETATM    8  C   UNL     1       7.886  30.877  60.161  1.00  0.00     0.256 C 
HETATM    9  O   UNL     1       8.872  30.285  60.577  1.00  0.00    -0.267 OA
HETATM   10  H   UNL     1       6.342  31.175  58.847  1.00  0.00     0.169 HD
BRANCH   8  11
HETATM   11  C   UNL     1       7.298  31.945  61.009  1.00  0.00     0.037 A 
HETATM   12  C   UNL     1       7.834  32.140  62.285  1.00  0.00     0.054 A 
HETATM   13  C   UNL     1       7.274  33.084  63.143  1.00  0.00     0.071 A 
HETATM   14  C   UNL     1       6.193  33.849  62.702  1.00  0.00     0.073 A 
HETATM   15  C   UNL     1       5.669  33.678  61.413  1.00  0.00     0.071 A 
HETATM   16  C   UNL     1       6.220  32.722  60.562  1.00  0.00     0.054 A 
BRANCH  13  17
HETATM   17  O   UNL     1       7.864  33.158  64.375  1.00  0.00    -0.356 OA
HETATM   18  C   UNL     1       7.070  33.662  65.441  1.00  0.00     0.210 C 
ENDBRANCH  13  17
BRANCH  15  19
HETATM   19  O   UNL     1       4.616  34.502  61.118  1.00  0.00    -0.356 OA
HETATM   20  C   UNL     1       3.616  33.993  60.243  1.00  0.00     0.210 C 
ENDBRANCH  15  19
ENDBRANCH   8  11
ENDBRANCH   4   7
BRANCH   1  21
HETATM   21  C   UNL     1       7.742  26.139  55.544  1.00  0.00     0.180 A 
HETATM   22  N   UNL     1       7.518  25.996  54.249  1.00  0.00    -0.221 NA
HETATM   23  C   UNL     1       7.659  24.648  54.041  1.00  0.00     0.093 A 
HETATM   24  C   UNL     1       7.988  24.019  55.229  1.00  0.00     0.107 A 
HETATM   25  C   UNL     1       7.512  23.873  52.885  1.00  0.00     0.035 A 
HETATM   26  C   UNL     1       8.197  22.654  55.374  1.00  0.00     0.046 A 
HETATM   27  O   UNL     1       8.050  24.973  56.202  1.00  0.00    -0.289 OA
HETATM   28  C   UNL     1       8.057  21.880  54.209  1.00  0.00    -0.059 A 
HETATM   29  C   UNL     1       8.219  20.387  54.279  1.00  0.00     0.048 C 
HETATM   30  C   UNL     1       7.708  22.486  52.988  1.00  0.00     0.009 A 
ENDBRANCH   1  21
TORSDOF 5
ENDMDL
MODEL 3
REMARK VINA RESULT:      -9.5      1.251      2.453
REMARK  5 active torsions:
REMARK  status: ('A' for Active; 'I' for Inactive)
REMARK    1  A    between atoms: C_7  and  C_8 
REMARK    2  A    between atoms: C_11  and  N_12 
REMARK       I    between atoms: N_12  and  C_13 
REMARK    3  A    between atoms: C_13  and  C_14 
REMARK    4  A    between atoms: C_16  and  O_17 
REMARK    5  A    between atoms: C_20  and  O_21 
ROOT
HETATM    1  C   UNL     1       7.342  27.513  56.251  1.00  0.00     0.017 A 
HETATM    2  C   UNL     1       8.390  28.135  56.942  1.00  0.00     0.018 A 
HETATM    3  C   UNL     1       8.142  29.185  57.835  1.00  0.00     0.030 A 
HETATM    4  C   UNL     1       6.840  29.635  58.057  1.00  0.00     0.035 A 
HETATM    5  C   UNL     1       5.794  29.050  57.335  1.00  0.00     0.030 A 
HETATM    6  C   UNL     1       6.043  27.998  56.445  1.00  0.00     0.018 A 
ENDROOT
BRANCH   4   7
HETATM    7  N   UNL     1       6.495  30.622  59.003  1.00  0.00    -0.323 N 
HETATM    8  C   UNL     1       6.100  31.922  58.744  1.00  0.00     0.256 C 
HETATM    9  O   UNL     1       5.897  32.436  57.653  1.00  0.00    -0.267 OA
HETATM   10  H   UNL     1       6.693  30.389  59.968  1.00  0.00     0.169 HD
BRANCH   8  11
HETATM   11  C   UNL     1       5.990  32.774  59.955  1.00  0.00     0.037 A 
HETATM   12  C   UNL     1       6.919  32.579  60.981  1.00  0.00     0.054 A 
HETATM   13  C   UNL     1       6.818  33.307  62.165  1.00  0.00     0.071 A 
HETATM   14  C   UNL     1       5.798  34.249  62.300  1.00  0.00     0.073 A 
HETATM   15  C   UNL     1       4.880  34.470  61.263  1.00  0.00     0.071 A 
HETATM   16  C   UNL     1       4.973  33.729  60.086  1.00  0.00     0.054 A 
BRANCH  13  17
HETATM   17  O   UNL     1       7.764  33.002  63.105  1.00  0.00    -0.356 OA
HETATM   18  C   UNL     1       7.508  33.426  64.437  1.00  0.00     0.210 C 
ENDBRANCH  13  17
BRANCH  15  19
HETATM   19  O   UNL     1       3.941  35.428  61.535  1.00  0.00    -0.356 OA
HETATM   20  C   UNL     1       2.915  35.090  62.462  1.00  0.00     0.210 C 
ENDBRANCH  15  19
ENDBRANCH   8  11
ENDBRANCH   4   7
BRANCH   1  21
HETATM   21  C   UNL     1       7.558  26.358  55.383  1.00  0.00     0.180 A 
HETATM   22  N   UNL     1       7.530  26.300  54.062  1.00  0.00    -0.221 NA
HETATM   23  C   UNL     1       7.703  24.966  53.792  1.00  0.00     0.093 A 
HETATM   24  C   UNL     1       7.852  24.260  54.973  1.00  0.00     0.107 A 
HETATM   25  C   UNL     1       7.732  24.268  52.580  1.00  0.00     0.035 A 
HETATM   26  C   UNL     1       8.040  22.887  55.059  1.00  0.00     0.046 A 
HETATM   27  O   UNL     1       7.765  25.149  56.004  1.00  0.00    -0.289 OA
HETATM   28  C   UNL     1       8.077  22.190  53.839  1.00  0.00    -0.059 A 
HETATM   29  C   UNL     1       8.230  20.694  53.836  1.00  0.00     0.048 C 
HETATM   30  C   UNL     1       7.913  22.875  52.621  1.00  0.00     0.009 A 
ENDBRANCH   1  21
TORSDOF 5
ENDMDL
MODEL 4
REMARK VINA RESULT:      -9.3      0.901      1.037
REMARK  5 active torsions:
REMARK  status: ('A' for Active; 'I' for Inactive)
REMARK    1  A    between atoms: C_7  and  C_8 
REMARK    2  A    between atoms: C_11  and  N_12 
REMARK       I    between atoms: N_12  and  C_13 
REMARK    3  A    between atoms: C_13  and  C_14 
REMARK    4  A    between atoms: C_16  and  O_17 
REMARK    5  A    between atoms: C_20  and  O_21 
ROOT
HETATM    1  C   UNL     1       7.262  27.419  56.091  1.00  0.00     0.017 A 
HETATM    2  C   UNL     1       8.303  28.294  56.426  1.00  0.00     0.018 A 
HETATM    3  C   UNL     1       8.066  29.434  57.206  1.00  0.00     0.030 A 
HETATM    4  C   UNL     1       6.782  29.720  57.669  1.00  0.00     0.035 A 
HETATM    5  C   UNL     1       5.729  28.876  57.299  1.00  0.00     0.030 A 
HETATM    6  C   UNL     1       5.968  27.737  56.522  1.00  0.00     0.018 A 
ENDROOT
BRANCH   4   7
HETATM    7  N   UNL     1       6.473  30.793  58.531  1.00  0.00    -0.323 N 
HETATM    8  C   UNL     1       7.234  31.257  59.589  1.00  0.00     0.256 C 
HETATM    9  O   UNL     1       8.349  30.885  59.926  1.00  0.00    -0.267 OA
HETATM   10  H   UNL     1       5.535  31.163  58.446  1.00  0.00     0.169 HD
BRANCH   8  11
HETATM   11  C   UNL     1       6.550  32.276  60.424  1.00  0.00     0.037 A 
HETATM   12  C   UNL     1       5.428  32.917  59.890  1.00  0.00     0.054 A 
HETATM   13  C   UNL     1       4.791  33.927  60.608  1.00  0.00     0.071 A 
HETATM   14  C   UNL     1       5.269  34.269  61.874  1.00  0.00     0.073 A 
HETATM   15  C   UNL     1       6.377  33.611  62.427  1.00  0.00     0.071 A 
HETATM   16  C   UNL     1       7.022  32.612  61.700  1.00  0.00     0.054 A 
BRANCH  13  17
HETATM   17  O   UNL     1       3.727  34.500  59.966  1.00  0.00    -0.356 OA
HETATM   18  C   UNL     1       3.925  35.800  59.426  1.00  0.00     0.210 C 
ENDBRANCH  13  17
BRANCH  15  19
HETATM   19  O   UNL     1       6.727  34.047  63.676  1.00  0.00    -0.356 OA
HETATM   20  C   UNL     1       7.534  33.181  64.466  1.00  0.00     0.210 C 
ENDBRANCH  15  19
ENDBRANCH   8  11
ENDBRANCH   4   7
BRANCH   1  21
HETATM   21  C   UNL     1       7.493  26.177  55.357  1.00  0.00     0.180 A 
HETATM   22  N   UNL     1       7.552  25.989  54.050  1.00  0.00    -0.221 NA
HETATM   23  C   UNL     1       7.693  24.631  53.923  1.00  0.00     0.093 A 
HETATM   24  C   UNL     1       7.737  24.042  55.174  1.00  0.00     0.107 A 
HETATM   25  C   UNL     1       7.778  23.815  52.789  1.00  0.00     0.035 A 
HETATM   26  C   UNL     1       7.867  22.678  55.407  1.00  0.00     0.046 A 
HETATM   27  O   UNL     1       7.614  25.031  56.105  1.00  0.00    -0.289 OA
HETATM   28  C   UNL     1       7.961  21.863  54.266  1.00  0.00    -0.059 A 
HETATM   29  C   UNL     1       8.058  20.371  54.419  1.00  0.00     0.048 C 
HETATM   30  C   UNL     1       7.904  22.429  52.978  1.00  0.00     0.009 A 
ENDBRANCH   1  21
TORSDOF 5
ENDMDL
MODEL 5
REMARK VINA RESULT:      -8.9      2.282      3.796
REMARK  5 active torsions:
REMARK  status: ('A' for Active; 'I' for Inactive)
REMARK    1  A    between atoms: C_7  and  C_8 
REMARK    2  A    between atoms: C_11  and  N_12 
REMARK       I    between atoms: N_12  and  C_13 
REMARK    3  A    between atoms: C_13  and  C_14 
REMARK    4  A    between atoms: C_16  and  O_17 
REMARK    5  A    between atoms: C_20  and  O_21 
ROOT
HETATM    1  C   UNL     1       6.943  26.239  56.647  1.00  0.00     0.017 A 
HETATM    2  C   UNL     1       7.859  27.100  57.265  1.00  0.00     0.018 A 
HETATM    3  C   UNL     1       7.469  28.372  57.706  1.00  0.00     0.030 A 
HETATM    4  C   UNL     1       6.156  28.808  57.539  1.00  0.00     0.035 A 
HETATM    5  C   UNL     1       5.247  27.972  56.881  1.00  0.00     0.030 A 
HETATM    6  C   UNL     1       5.636  26.700  56.443  1.00  0.00     0.018 A 
ENDROOT
BRANCH   4   7
HETATM    7  N   UNL     1       5.660  30.032  58.032  1.00  0.00    -0.323 N 
HETATM    8  C   UNL     1       5.422  31.187  57.309  1.00  0.00     0.256 C 
HETATM    9  O   UNL     1       5.515  31.342  56.099  1.00  0.00    -0.267 OA
HETATM   10  H   UNL     1       5.609  30.107  59.041  1.00  0.00     0.169 HD
BRANCH   8  11
HETATM   11  C   UNL     1       5.083  32.366  58.145  1.00  0.00     0.037 A 
HETATM   12  C   UNL     1       5.388  32.313  59.509  1.00  0.00     0.054 A 
HETATM   13  C   UNL     1       5.030  33.366  60.348  1.00  0.00     0.071 A 
HETATM   14  C   UNL     1       4.392  34.483  59.805  1.00  0.00     0.073 A 
HETATM   15  C   UNL     1       4.109  34.554  58.434  1.00  0.00     0.071 A 
HETATM   16  C   UNL     1       4.454  33.493  57.599  1.00  0.00     0.054 A 
BRANCH  13  17
HETATM   17  O   UNL     1       5.351  33.182  61.664  1.00  0.00    -0.356 OA
HETATM   18  C   UNL     1       4.271  33.011  62.573  1.00  0.00     0.210 C 
ENDBRANCH  13  17
BRANCH  15  19
HETATM   19  O   UNL     1       3.488  35.711  58.045  1.00  0.00    -0.356 OA
HETATM   20  C   UNL     1       2.847  35.710  56.775  1.00  0.00     0.210 C 
ENDBRANCH  15  19
ENDBRANCH   8  11
ENDBRANCH   4   7
BRANCH   1  21
HETATM   21  C   UNL     1       7.294  24.875  56.258  1.00  0.00     0.180 A 
HETATM   22  N   UNL     1       7.807  23.910  57.002  1.00  0.00    -0.221 NA
HETATM   23  C   UNL     1       8.018  22.889  56.111  1.00  0.00     0.093 A 
HETATM   24  C   UNL     1       7.600  23.272  54.848  1.00  0.00     0.107 A 
HETATM   25  C   UNL     1       8.570  21.615  56.282  1.00  0.00     0.035 A 
HETATM   26  C   UNL     1       7.677  22.478  53.711  1.00  0.00     0.046 A 
HETATM   27  O   UNL     1       7.127  24.548  54.934  1.00  0.00    -0.289 OA
HETATM   28  C   UNL     1       8.224  21.195  53.889  1.00  0.00    -0.059 A 
HETATM   29  C   UNL     1       8.390  20.282  52.706  1.00  0.00     0.048 C 
HETATM   30  C   UNL     1       8.673  20.781  55.156  1.00  0.00     0.009 A 
ENDBRANCH   1  21
TORSDOF 5
ENDMDL
MODEL 6
REMARK VINA RESULT:      -8.8      2.422      3.274
REMARK  5 active torsions:
REMARK  status: ('A' for Active; 'I' for Inactive)
REMARK    1  A    between atoms: C_7  and  C_8 
REMARK    2  A    between atoms: C_11  and  N_12 
REMARK       I    between atoms: N_12  and  C_13 
REMARK    3  A    between atoms: C_13  and  C_14 
REMARK    4  A    between atoms: C_16  and  O_17 
REMARK    5  A    between atoms: C_20  and  O_21 
ROOT
HETATM    1  C   UNL     1       6.877  26.287  56.622  1.00  0.00     0.017 A 
HETATM    2  C   UNL     1       7.748  27.133  57.317  1.00  0.00     0.018 A 
HETATM    3  C   UNL     1       7.336  28.405  57.739  1.00  0.00     0.030 A 
HETATM    4  C   UNL     1       6.043  28.854  57.474  1.00  0.00     0.035 A 
HETATM    5  C   UNL     1       5.182  28.032  56.738  1.00  0.00     0.030 A 
HETATM    6  C   UNL     1       5.594  26.761  56.320  1.00  0.00     0.018 A 
ENDROOT
BRANCH   4   7
HETATM    7  N   UNL     1       5.520  30.079  57.939  1.00  0.00    -0.323 N 
HETATM    8  C   UNL     1       5.279  31.218  57.193  1.00  0.00     0.256 C 
HETATM    9  O   UNL     1       5.394  31.356  55.983  1.00  0.00    -0.267 OA
HETATM   10  H   UNL     1       5.449  30.168  58.945  1.00  0.00     0.169 HD
BRANCH   8  11
HETATM   11  C   UNL     1       4.908  32.405  58.004  1.00  0.00     0.037 A 
HETATM   12  C   UNL     1       4.486  33.555  57.330  1.00  0.00     0.054 A 
HETATM   13  C   UNL     1       4.190  34.715  58.043  1.00  0.00     0.071 A 
HETATM   14  C   UNL     1       4.292  34.704  59.435  1.00  0.00     0.073 A 
HETATM   15  C   UNL     1       4.686  33.546  60.118  1.00  0.00     0.071 A 
HETATM   16  C   UNL     1       4.998  32.391  59.403  1.00  0.00     0.054 A 
BRANCH  13  17
HETATM   17  O   UNL     1       3.823  35.781  57.269  1.00  0.00    -0.356 OA
HETATM   18  C   UNL     1       4.844  36.707  56.921  1.00  0.00     0.210 C 
ENDBRANCH  13  17
BRANCH  15  19
HETATM   19  O   UNL     1       4.733  33.683  61.480  1.00  0.00    -0.356 OA
HETATM   20  C   UNL     1       4.490  32.518  62.260  1.00  0.00     0.210 C 
ENDBRANCH  15  19
ENDBRANCH   8  11
ENDBRANCH   4   7
BRANCH   1  21
HETATM   21  C   UNL     1       7.246  24.923  56.249  1.00  0.00     0.180 A 
HETATM   22  N   UNL     1       7.772  23.973  57.003  1.00  0.00    -0.221 NA
HETATM   23  C   UNL     1       7.997  22.945  56.124  1.00  0.00     0.093 A 
HETATM   24  C   UNL     1       7.574  23.308  54.857  1.00  0.00     0.107 A 
HETATM   25  C   UNL     1       8.566  21.681  56.310  1.00  0.00     0.035 A 
HETATM   26  C   UNL     1       7.662  22.502  53.729  1.00  0.00     0.046 A 
HETATM   27  O   UNL     1       7.084  24.579  54.928  1.00  0.00    -0.289 OA
HETATM   28  C   UNL     1       8.226  21.229  53.921  1.00  0.00    -0.059 A 
HETATM   29  C   UNL     1       8.404  20.304  52.749  1.00  0.00     0.048 C 
HETATM   30  C   UNL     1       8.680  20.835  55.194  1.00  0.00     0.009 A 
ENDBRANCH   1  21
TORSDOF 5
ENDMDL
MODEL 7
REMARK VINA RESULT:      -8.4      4.344     10.954
REMARK  5 active torsions:
REMARK  status: ('A' for Active; 'I' for Inactive)
REMARK    1  A    between atoms: C_7  and  C_8 
REMARK    2  A    between atoms: C_11  and  N_12 
REMARK       I    between atoms: N_12  and  C_13 
REMARK    3  A    between atoms: C_13  and  C_14 
REMARK    4  A    between atoms: C_16  and  O_17 
REMARK    5  A    between atoms: C_20  and  O_21 
ROOT
HETATM    1  C   UNL     1       7.062  29.722  57.174  1.00  0.00     0.017 A 
HETATM    2  C   UNL     1       7.845  28.922  56.332  1.00  0.00     0.018 A 
HETATM    3  C   UNL     1       7.385  28.542  55.064  1.00  0.00     0.030 A 
HETATM    4  C   UNL     1       6.132  28.955  54.612  1.00  0.00     0.035 A 
HETATM    5  C   UNL     1       5.325  29.715  55.467  1.00  0.00     0.030 A 
HETATM    6  C   UNL     1       5.787  30.096  56.732  1.00  0.00     0.018 A 
ENDROOT
BRANCH   4   7
HETATM    7  N   UNL     1       5.632  28.693  53.320  1.00  0.00    -0.323 N 
HETATM    8  C   UNL     1       5.959  27.629  52.500  1.00  0.00     0.256 C 
HETATM    9  O   UNL     1       6.675  26.674  52.767  1.00  0.00    -0.267 OA
HETATM   10  H   UNL     1       5.085  29.438  52.906  1.00  0.00     0.169 HD
BRANCH   8  11
HETATM   11  C   UNL     1       5.410  27.734  51.124  1.00  0.00     0.037 A 
HETATM   12  C   UNL     1       4.771  26.614  50.585  1.00  0.00     0.054 A 
HETATM   13  C   UNL     1       4.298  26.641  49.275  1.00  0.00     0.071 A 
HETATM   14  C   UNL     1       4.446  27.806  48.521  1.00  0.00     0.073 A 
HETATM   15  C   UNL     1       5.060  28.942  49.066  1.00  0.00     0.071 A 
HETATM   16  C   UNL     1       5.547  28.908  50.371  1.00  0.00     0.054 A 
BRANCH  13  17
HETATM   17  O   UNL     1       3.723  25.474  48.851  1.00  0.00    -0.356 OA
HETATM   18  C   UNL     1       3.192  25.459  47.533  1.00  0.00     0.210 C 
ENDBRANCH  13  17
BRANCH  15  19
HETATM   19  O   UNL     1       5.127  30.011  48.213  1.00  0.00    -0.356 OA
HETATM   20  C   UNL     1       4.565  31.239  48.662  1.00  0.00     0.210 C 
ENDBRANCH  15  19
ENDBRANCH   8  11
ENDBRANCH   4   7
BRANCH   1  21
HETATM   21  C   UNL     1       7.550  30.210  58.462  1.00  0.00     0.180 A 
HETATM   22  N   UNL     1       8.603  29.807  59.154  1.00  0.00    -0.221 NA
HETATM   23  C   UNL     1       8.528  30.535  60.313  1.00  0.00     0.093 A 
HETATM   24  C   UNL     1       7.432  31.379  60.271  1.00  0.00     0.107 A 
HETATM   25  C   UNL     1       9.337  30.535  61.455  1.00  0.00     0.035 A 
HETATM   26  C   UNL     1       7.061  32.251  61.286  1.00  0.00     0.046 A 
HETATM   27  O   UNL     1       6.798  31.180  59.079  1.00  0.00    -0.289 OA
HETATM   28  C   UNL     1       7.880  32.255  62.428  1.00  0.00    -0.059 A 
HETATM   29  C   UNL     1       7.531  33.132  63.598  1.00  0.00     0.048 C 
HETATM   30  C   UNL     1       8.994  31.397  62.510  1.00  0.00     0.009 A 
ENDBRANCH   1  21
TORSDOF 5
ENDMDL
MODEL 8
REMARK VINA RESULT:      -8.4      2.050      3.821
REMARK  5 active torsions:
REMARK  status: ('A' for Active; 'I' for Inactive)
REMARK    1  A    between atoms: C_7  and  C_8 
REMARK    2  A    between atoms: C_11  and  N_12 
REMARK       I    between atoms: N_12  and  C_13 
REMARK    3  A    between atoms: C_13  and  C_14 
REMARK    4  A    between atoms: C_16  and  O_17 
REMARK    5  A    between atoms: C_20  and  O_21 
ROOT
HETATM    1  C   UNL     1       7.108  28.641  57.617  1.00  0.00     0.017 A 
HETATM    2  C   UNL     1       7.993  29.424  58.369  1.00  0.00     0.018 A 
HETATM    3  C   UNL     1       7.620  30.692  58.833  1.00  0.00     0.030 A 
HETATM    4  C   UNL     1       6.353  31.204  58.554  1.00  0.00     0.035 A 
HETATM    5  C   UNL     1       5.480  30.447  57.764  1.00  0.00     0.030 A 
HETATM    6  C   UNL     1       5.853  29.179  57.304  1.00  0.00     0.018 A 
ENDROOT
BRANCH   4   7
HETATM    7  N   UNL     1       5.866  32.428  59.056  1.00  0.00    -0.323 N 
HETATM    8  C   UNL     1       5.626  32.749  60.380  1.00  0.00     0.256 C 
HETATM    9  O   UNL     1       5.865  32.069  61.368  1.00  0.00    -0.267 OA
HETATM   10  H   UNL     1       5.531  33.082  58.360  1.00  0.00     0.169 HD
BRANCH   8  11
HETATM   11  C   UNL     1       4.935  34.049  60.571  1.00  0.00     0.037 A 
HETATM   12  C   UNL     1       5.079  34.695  61.803  1.00  0.00     0.054 A 
HETATM   13  C   UNL     1       4.397  35.883  62.055  1.00  0.00     0.071 A 
HETATM   14  C   UNL     1       3.594  36.433  61.055  1.00  0.00     0.073 A 
HETATM   15  C   UNL     1       3.468  35.806  59.807  1.00  0.00     0.071 A 
HETATM   16  C   UNL     1       4.138  34.608  59.563  1.00  0.00     0.054 A 
BRANCH  13  17
HETATM   17  O   UNL     1       4.593  36.400  63.306  1.00  0.00    -0.356 OA
HETATM   18  C   UNL     1       5.544  35.742  64.133  1.00  0.00     0.210 C 
ENDBRANCH  13  17
BRANCH  15  19
HETATM   19  O   UNL     1       2.654  36.464  58.925  1.00  0.00    -0.356 OA
HETATM   20  C   UNL     1       1.270  36.132  58.943  1.00  0.00     0.210 C 
ENDBRANCH  15  19
ENDBRANCH   8  11
ENDBRANCH   4   7
BRANCH   1  21
HETATM   21  C   UNL     1       7.434  27.280  57.197  1.00  0.00     0.180 A 
HETATM   22  N   UNL     1       8.037  26.325  57.884  1.00  0.00    -0.221 NA
HETATM   23  C   UNL     1       8.165  25.303  56.978  1.00  0.00     0.093 A 
HETATM   24  C   UNL     1       7.607  25.674  55.767  1.00  0.00     0.107 A 
HETATM   25  C   UNL     1       8.750  24.038  57.093  1.00  0.00     0.035 A 
HETATM   26  C   UNL     1       7.572  24.876  54.631  1.00  0.00     0.046 A 
HETATM   27  O   UNL     1       7.129  26.945  55.900  1.00  0.00    -0.289 OA
HETATM   28  C   UNL     1       8.152  23.601  54.753  1.00  0.00    -0.059 A 
HETATM   29  C   UNL     1       8.201  22.685  53.562  1.00  0.00     0.048 C 
HETATM   30  C   UNL     1       8.741  23.199  55.966  1.00  0.00     0.009 A 
ENDBRANCH   1  21
TORSDOF 5
ENDMDL
MODEL 9
REMARK VINA RESULT:      -8.2      2.258      2.918
REMARK  5 active torsions:
REMARK  status: ('A' for Active; 'I' for Inactive)
REMARK    1  A    between atoms: C_7  and  C_8 
REMARK    2  A    between atoms: C_11  and  N_12 
REMARK       I    between atoms: N_12  and  C_13 
REMARK    3  A    between atoms: C_13  and  C_14 
REMARK    4  A    between atoms: C_16  and  O_17 
REMARK    5  A    between atoms: C_20  and  O_21 
ROOT
HETATM    1  C   UNL     1       6.374  27.886  56.035  1.00  0.00     0.017 A 
HETATM    2  C   UNL     1       5.225  28.628  55.737  1.00  0.00     0.018 A 
HETATM    3  C   UNL     1       4.853  29.729  56.521  1.00  0.00     0.030 A 
HETATM    4  C   UNL     1       5.625  30.110  57.618  1.00  0.00     0.035 A 
HETATM    5  C   UNL     1       6.748  29.345  57.950  1.00  0.00     0.030 A 
HETATM    6  C   UNL     1       7.120  28.247  57.164  1.00  0.00     0.018 A 
ENDROOT
BRANCH   4   7
HETATM    7  N   UNL     1       5.373  31.254  58.403  1.00  0.00    -0.323 N 
HETATM    8  C   UNL     1       4.170  31.621  58.979  1.00  0.00     0.256 C 
HETATM    9  O   UNL     1       3.124  30.988  58.989  1.00  0.00    -0.267 OA
HETATM   10  H   UNL     1       6.117  31.940  58.425  1.00  0.00     0.169 HD
BRANCH   8  11
HETATM   11  C   UNL     1       4.178  32.977  59.585  1.00  0.00     0.037 A 
HETATM   12  C   UNL     1       3.442  33.982  58.952  1.00  0.00     0.054 A 
HETATM   13  C   UNL     1       3.471  35.286  59.444  1.00  0.00     0.071 A 
HETATM   14  C   UNL     1       4.218  35.566  60.588  1.00  0.00     0.073 A 
HETATM   15  C   UNL     1       4.936  34.556  61.244  1.00  0.00     0.071 A 
HETATM   16  C   UNL     1       4.919  33.256  60.742  1.00  0.00     0.054 A 
BRANCH  13  17
HETATM   17  O   UNL     1       2.738  36.185  58.719  1.00  0.00    -0.356 OA
HETATM   18  C   UNL     1       2.096  37.226  59.444  1.00  0.00     0.210 C 
ENDBRANCH  13  17
BRANCH  15  19
HETATM   19  O   UNL     1       5.615  34.977  62.356  1.00  0.00    -0.356 OA
HETATM   20  C   UNL     1       5.462  36.340  62.735  1.00  0.00     0.210 C 
ENDBRANCH  15  19
ENDBRANCH   8  11
ENDBRANCH   4   7
BRANCH   1  21
HETATM   21  C   UNL     1       6.837  26.791  55.186  1.00  0.00     0.180 A 
HETATM   22  N   UNL     1       7.177  26.822  53.909  1.00  0.00    -0.221 NA
HETATM   23  C   UNL     1       7.436  25.509  53.609  1.00  0.00     0.093 A 
HETATM   24  C   UNL     1       7.262  24.724  54.735  1.00  0.00     0.107 A 
HETATM   25  C   UNL     1       7.808  24.894  52.408  1.00  0.00     0.035 A 
HETATM   26  C   UNL     1       7.437  23.347  54.779  1.00  0.00     0.046 A 
HETATM   27  O   UNL     1       6.881  25.542  55.758  1.00  0.00    -0.289 OA
HETATM   28  C   UNL     1       7.821  22.734  53.574  1.00  0.00    -0.059 A 
HETATM   29  C   UNL     1       7.989  21.241  53.514  1.00  0.00     0.048 C 
HETATM   30  C   UNL     1       7.990  23.501  52.406  1.00  0.00     0.009 A 
ENDBRANCH   1  21
TORSDOF 5
ENDMDL
MODEL 10
REMARK VINA RESULT:      -8.2      4.574     11.127
REMARK  5 active torsions:
REMARK  status: ('A' for Active; 'I' for Inactive)
REMARK    1  A    between atoms: C_7  and  C_8 
REMARK    2  A    between atoms: C_11  and  N_12 
REMARK       I    between atoms: N_12  and  C_13 
REMARK    3  A    between atoms: C_13  and  C_14 
REMARK    4  A    between atoms: C_16  and  O_17 
REMARK    5  A    between atoms: C_20  and  O_21 
ROOT
HETATM    1  C   UNL     1       7.057  29.645  56.621  1.00  0.00     0.017 A 
HETATM    2  C   UNL     1       7.850  28.849  55.787  1.00  0.00     0.018 A 
HETATM    3  C   UNL     1       7.417  28.495  54.502  1.00  0.00     0.030 A 
HETATM    4  C   UNL     1       6.182  28.932  54.025  1.00  0.00     0.035 A 
HETATM    5  C   UNL     1       5.364  29.689  54.871  1.00  0.00     0.030 A 
HETATM    6  C   UNL     1       5.798  30.044  56.153  1.00  0.00     0.018 A 
ENDROOT
BRANCH   4   7
HETATM    7  N   UNL     1       5.711  28.698  52.717  1.00  0.00    -0.323 N 
HETATM    8  C   UNL     1       5.718  27.496  52.032  1.00  0.00     0.256 C 
HETATM    9  O   UNL     1       6.054  26.399  52.454  1.00  0.00    -0.267 OA
HETATM   10  H   UNL     1       5.476  29.526  52.184  1.00  0.00     0.169 HD
BRANCH   8  11
HETATM   11  C   UNL     1       5.331  27.612  50.603  1.00  0.00     0.037 A 
HETATM   12  C   UNL     1       5.324  28.886  50.026  1.00  0.00     0.054 A 
HETATM   13  C   UNL     1       4.905  29.055  48.708  1.00  0.00     0.071 A 
HETATM   14  C   UNL     1       4.521  27.938  47.966  1.00  0.00     0.073 A 
HETATM   15  C   UNL     1       4.552  26.654  48.530  1.00  0.00     0.071 A 
HETATM   16  C   UNL     1       4.956  26.489  49.854  1.00  0.00     0.054 A 
BRANCH  13  17
HETATM   17  O   UNL     1       4.911  30.351  48.269  1.00  0.00    -0.356 OA
HETATM   18  C   UNL     1       4.633  30.566  46.892  1.00  0.00     0.210 C 
ENDBRANCH  13  17
BRANCH  15  19
HETATM   19  O   UNL     1       4.155  25.656  47.682  1.00  0.00    -0.356 OA
HETATM   20  C   UNL     1       3.029  24.878  48.074  1.00  0.00     0.210 C 
ENDBRANCH  15  19
ENDBRANCH   8  11
ENDBRANCH   4   7
BRANCH   1  21
HETATM   21  C   UNL     1       7.518  30.106  57.929  1.00  0.00     0.180 A 
HETATM   22  N   UNL     1       8.515  29.643  58.664  1.00  0.00    -0.221 NA
HETATM   23  C   UNL     1       8.435  30.377  59.820  1.00  0.00     0.093 A 
HETATM   24  C   UNL     1       7.392  31.283  59.733  1.00  0.00     0.107 A 
HETATM   25  C   UNL     1       9.194  30.331  60.995  1.00  0.00     0.035 A 
HETATM   26  C   UNL     1       7.030  32.176  60.733  1.00  0.00     0.046 A 
HETATM   27  O   UNL     1       6.798  31.119  58.516  1.00  0.00    -0.289 OA
HETATM   28  C   UNL     1       7.800  32.133  61.908  1.00  0.00    -0.059 A 
HETATM   29  C   UNL     1       7.453  33.031  63.063  1.00  0.00     0.048 C 
HETATM   30  C   UNL     1       8.858  31.213  62.035  1.00  0.00     0.009 A 
ENDBRANCH   1  21
TORSDOF 5
ENDMDL
