MODEL 1
REMARK VINA RESULT:     -10.6      0.000      0.000
REMARK  5 active torsions:
REMARK  status: ('A' for Active; 'I' for Inactive)
REMARK    1  A    between atoms: C_2  and  C_3 
REMARK    2  A    between atoms: C_8  and  C_9 
REMARK       I    between atoms: C_9  and  N_10 
REMARK    3  A    between atoms: N_10  and  C_11 
REMARK    4  A    between atoms: C_11  and  C_12 
REMARK    5  A    between atoms: C_19  and  C_20 
ROOT
HETATM    1  C   UNL     1       6.090  24.987  55.794  1.00  0.00     0.118 C 
HETATM    2  N   UNL     1       6.940  25.651  56.775  1.00  0.00    -0.366 N 
HETATM    3  C   UNL     1       7.564  26.819  56.504  1.00  0.00     0.123 A 
HETATM    4  N   UNL     1       7.341  27.499  55.336  1.00  0.00    -0.240 N 
HETATM    5  N   UNL     1       8.101  28.597  55.201  1.00  0.00    -0.165 NA
HETATM    6  C   UNL     1       8.772  28.674  56.373  1.00  0.00     0.148 A 
HETATM    7  C   UNL     1       8.476  27.562  57.206  1.00  0.00     0.088 A 
HETATM    8  C   UNL     1       6.484  27.008  54.272  1.00  0.00     0.221 C 
HETATM    9  C   UNL     1       5.456  26.012  54.844  1.00  0.00     0.066 C 
HETATM   10  H   UNL     1       7.217  25.086  57.577  1.00  0.00     0.161 HD
ENDROOT
BRANCH   6  11
HETATM   11  C   UNL     1       9.673  29.796  56.686  1.00  0.00     0.272 C 
HETATM   12  N   UNL     1       9.454  30.338  57.932  1.00  0.00    -0.353 N 
HETATM   13  H   UNL     1       8.624  30.011  58.419  1.00  0.00     0.162 HD
HETATM   14  O   UNL     1      10.540  30.194  55.915  1.00  0.00    -0.266 OA
BRANCH  12  15
HETATM   15  C   UNL     1      10.198  31.465  58.451  1.00  0.00     0.155 C 
BRANCH  15  16
HETATM   16  C   UNL     1       9.703  31.914  59.827  1.00  0.00     0.139 C 
HETATM   17  O   UNL     1       8.539  32.758  59.699  1.00  0.00    -0.384 OA
HETATM   18  C   UNL     1       7.662  32.490  60.803  1.00  0.00     0.168 C 
HETATM   19  C   UNL     1       8.321  31.429  61.662  1.00  0.00     0.029 C 
HETATM   20  C   UNL     1       9.255  30.750  60.693  1.00  0.00     0.035 C 
ENDBRANCH  15  16
ENDBRANCH  12  15
ENDBRANCH   6  11
BRANCH   8  21
HETATM   21  C   UNL     1       5.758  28.129  53.559  1.00  0.00     0.409 C 
HETATM   22  F   UNL     1       6.468  28.676  52.550  1.00  0.00    -0.169 F 
HETATM   23  F   UNL     1       4.617  27.645  52.996  1.00  0.00    -0.169 F 
HETATM   24  F   UNL     1       5.379  29.118  54.399  1.00  0.00    -0.169 F 
ENDBRANCH   8  21
BRANCH   1  25
HETATM   25  C   UNL     1       6.812  23.861  55.066  1.00  0.00    -0.034 A 
HETATM   26  C   UNL     1       6.935  23.806  53.669  1.00  0.00     0.011 A 
HETATM   27  C   UNL     1       7.614  22.751  53.050  1.00  0.00     0.026 A 
HETATM   28  C   UNL     1       8.179  21.729  53.814  1.00  0.00     0.055 A 
HETATM   29  C   UNL     1       8.060  21.761  55.205  1.00  0.00     0.056 A 
HETATM   30 CL   UNL     1       9.009  20.465  52.981  1.00  0.00    -0.083 Cl
HETATM   31  C   UNL     1       7.379  22.818  55.822  1.00  0.00     0.034 A 
HETATM   32 CL   UNL     1       8.729  20.536  56.222  1.00  0.00    -0.083 Cl
ENDBRANCH   1  25
TORSDOF 5
ENDMDL
MODEL 2
REMARK VINA RESULT:      -9.4      5.517      8.998
REMARK  5 active torsions:
REMARK  status: ('A' for Active; 'I' for Inactive)
REMARK    1  A    between atoms: C_2  and  C_3 
REMARK    2  A    between atoms: C_8  and  C_9 
REMARK       I    between atoms: C_9  and  N_10 
REMARK    3  A    between atoms: N_10  and  C_11 
REMARK    4  A    between atoms: C_11  and  C_12 
REMARK    5  A    between atoms: C_19  and  C_20 
ROOT
HETATM    1  C   UNL     1       5.830  26.535  56.185  1.00  0.00     0.118 C 
HETATM    2  N   UNL     1       4.897  27.048  55.189  1.00  0.00    -0.366 N 
HETATM    3  C   UNL     1       5.138  26.939  53.863  1.00  0.00     0.123 A 
HETATM    4  N   UNL     1       6.213  26.238  53.384  1.00  0.00    -0.240 N 
HETATM    5  N   UNL     1       6.339  26.298  52.048  1.00  0.00    -0.165 NA
HETATM    6  C   UNL     1       5.248  26.988  51.649  1.00  0.00     0.148 A 
HETATM    7  C   UNL     1       4.482  27.425  52.763  1.00  0.00     0.088 A 
HETATM    8  C   UNL     1       7.212  25.618  54.235  1.00  0.00     0.221 C 
HETATM    9  C   UNL     1       6.614  25.339  55.627  1.00  0.00     0.066 C 
HETATM   10  H   UNL     1       4.181  27.685  55.538  1.00  0.00     0.161 HD
ENDROOT
BRANCH   6  11
HETATM   11  C   UNL     1       4.944  27.218  50.226  1.00  0.00     0.272 C 
HETATM   12  N   UNL     1       4.019  26.335  49.718  1.00  0.00    -0.353 N 
HETATM   13  H   UNL     1       3.770  25.555  50.322  1.00  0.00     0.162 HD
HETATM   14  O   UNL     1       5.457  28.118  49.568  1.00  0.00    -0.266 OA
BRANCH  12  15
HETATM   15  C   UNL     1       3.582  26.346  48.339  1.00  0.00     0.155 C 
BRANCH  15  16
HETATM   16  C   UNL     1       2.314  27.176  48.129  1.00  0.00     0.139 C 
HETATM   17  O   UNL     1       2.647  28.547  47.828  1.00  0.00    -0.384 OA
HETATM   18  C   UNL     1       1.686  29.050  46.888  1.00  0.00     0.168 C 
HETATM   19  C   UNL     1       0.705  27.933  46.597  1.00  0.00     0.029 C 
HETATM   20  C   UNL     1       1.495  26.698  46.943  1.00  0.00     0.035 C 
ENDBRANCH  15  16
ENDBRANCH  12  15
ENDBRANCH   6  11
BRANCH   8  21
HETATM   21  C   UNL     1       7.743  24.328  53.646  1.00  0.00     0.409 C 
HETATM   22  F   UNL     1       8.470  24.507  52.523  1.00  0.00    -0.169 F 
HETATM   23  F   UNL     1       8.577  23.731  54.541  1.00  0.00    -0.169 F 
HETATM   24  F   UNL     1       6.763  23.435  53.383  1.00  0.00    -0.169 F 
ENDBRANCH   8  21
BRANCH   1  25
HETATM   25  C   UNL     1       6.724  27.624  56.760  1.00  0.00    -0.034 A 
HETATM   26  C   UNL     1       8.120  27.500  56.852  1.00  0.00     0.011 A 
HETATM   27  C   UNL     1       8.897  28.534  57.385  1.00  0.00     0.026 A 
HETATM   28  C   UNL     1       8.297  29.709  57.839  1.00  0.00     0.055 A 
HETATM   29  C   UNL     1       6.909  29.847  57.764  1.00  0.00     0.056 A 
HETATM   30 CL   UNL     1       9.321  30.945  58.476  1.00  0.00    -0.083 Cl
HETATM   31  C   UNL     1       6.133  28.810  57.232  1.00  0.00     0.034 A 
HETATM   32 CL   UNL     1       6.087  31.267  58.306  1.00  0.00    -0.083 Cl
ENDBRANCH   1  25
TORSDOF 5
ENDMDL
MODEL 3
REMARK VINA RESULT:      -8.9      3.570      5.103
REMARK  5 active torsions:
REMARK  status: ('A' for Active; 'I' for Inactive)
REMARK    1  A    between atoms: C_2  and  C_3 
REMARK    2  A    between atoms: C_8  and  C_9 
REMARK       I    between atoms: C_9  and  N_10 
REMARK    3  A    between atoms: N_10  and  C_11 
REMARK    4  A    between atoms: C_11  and  C_12 
REMARK    5  A    between atoms: C_19  and  C_20 
ROOT
HETATM    1  C   UNL     1       7.939  28.699  55.091  1.00  0.00     0.118 C 
HETATM    2  N   UNL     1       6.666  29.407  55.144  1.00  0.00    -0.366 N 
HETATM    3  C   UNL     1       6.224  29.996  56.277  1.00  0.00     0.123 A 
HETATM    4  N   UNL     1       7.001  30.060  57.404  1.00  0.00    -0.240 N 
HETATM    5  N   UNL     1       6.375  30.612  58.456  1.00  0.00    -0.165 NA
HETATM    6  C   UNL     1       5.180  31.002  57.956  1.00  0.00     0.148 A 
HETATM    7  C   UNL     1       5.043  30.612  56.597  1.00  0.00     0.088 A 
HETATM    8  C   UNL     1       8.315  29.454  57.508  1.00  0.00     0.221 C 
HETATM    9  C   UNL     1       8.930  29.289  56.105  1.00  0.00     0.066 C 
HETATM   10  H   UNL     1       6.033  29.241  54.362  1.00  0.00     0.161 HD
ENDROOT
BRANCH   6  11
HETATM   11  C   UNL     1       4.196  31.739  58.766  1.00  0.00     0.272 C 
HETATM   12  N   UNL     1       4.457  31.692  60.116  1.00  0.00    -0.353 N 
HETATM   13  H   UNL     1       5.191  31.050  60.404  1.00  0.00     0.162 HD
HETATM   14  O   UNL     1       3.247  32.345  58.278  1.00  0.00    -0.266 OA
BRANCH  12  15
HETATM   15  C   UNL     1       3.616  32.319  61.112  1.00  0.00     0.155 C 
BRANCH  15  16
HETATM   16  C   UNL     1       4.402  33.217  62.068  1.00  0.00     0.139 C 
HETATM   17  O   UNL     1       4.430  32.648  63.393  1.00  0.00    -0.384 OA
HETATM   18  C   UNL     1       5.704  32.943  63.986  1.00  0.00     0.168 C 
HETATM   19  C   UNL     1       6.503  33.741  62.975  1.00  0.00     0.029 C 
HETATM   20  C   UNL     1       5.860  33.358  61.667  1.00  0.00     0.035 C 
ENDBRANCH  15  16
ENDBRANCH  12  15
ENDBRANCH   6  11
BRANCH   8  21
HETATM   21  C   UNL     1       9.252  30.267  58.377  1.00  0.00     0.409 C 
HETATM   22  F   UNL     1       9.093  30.044  59.698  1.00  0.00    -0.169 F 
HETATM   23  F   UNL     1      10.541  29.933  58.092  1.00  0.00    -0.169 F 
HETATM   24  F   UNL     1       9.144  31.596  58.152  1.00  0.00    -0.169 F 
ENDBRANCH   8  21
BRANCH   1  25
HETATM   25  C   UNL     1       7.773  27.192  55.223  1.00  0.00    -0.034 A 
HETATM   26  C   UNL     1       7.690  26.535  56.461  1.00  0.00     0.011 A 
HETATM   27  C   UNL     1       7.532  25.146  56.526  1.00  0.00     0.026 A 
HETATM   28  C   UNL     1       7.458  24.387  55.358  1.00  0.00     0.055 A 
HETATM   29  C   UNL     1       7.548  25.020  54.117  1.00  0.00     0.056 A 
HETATM   30 CL   UNL     1       7.254  22.679  55.517  1.00  0.00    -0.083 Cl
HETATM   31  C   UNL     1       7.707  26.411  54.054  1.00  0.00     0.034 A 
HETATM   32 CL   UNL     1       7.467  24.155  52.624  1.00  0.00    -0.083 Cl
ENDBRANCH   1  25
TORSDOF 5
ENDMDL
MODEL 4
REMARK VINA RESULT:      -8.9      4.852      8.955
REMARK  5 active torsions:
REMARK  status: ('A' for Active; 'I' for Inactive)
REMARK    1  A    between atoms: C_2  and  C_3 
REMARK    2  A    between atoms: C_8  and  C_9 
REMARK       I    between atoms: C_9  and  N_10 
REMARK    3  A    between atoms: N_10  and  C_11 
REMARK    4  A    between atoms: C_11  and  C_12 
REMARK    5  A    between atoms: C_19  and  C_20 
ROOT
HETATM    1  C   UNL     1       8.148  31.129  58.230  1.00  0.00     0.118 C 
HETATM    2  N   UNL     1       8.741  29.822  57.972  1.00  0.00    -0.366 N 
HETATM    3  C   UNL     1       7.985  28.736  57.699  1.00  0.00     0.123 A 
HETATM    4  N   UNL     1       6.628  28.829  57.535  1.00  0.00    -0.240 N 
HETATM    5  N   UNL     1       6.028  27.642  57.345  1.00  0.00    -0.165 NA
HETATM    6  C   UNL     1       7.055  26.764  57.293  1.00  0.00     0.148 A 
HETATM    7  C   UNL     1       8.296  27.412  57.533  1.00  0.00     0.088 A 
HETATM    8  C   UNL     1       5.881  30.062  57.702  1.00  0.00     0.221 C 
HETATM    9  C   UNL     1       6.811  31.272  57.488  1.00  0.00     0.066 C 
HETATM   10  H   UNL     1       9.723  29.722  58.231  1.00  0.00     0.161 HD
ENDROOT
BRANCH   6  11
HETATM   11  C   UNL     1       6.847  25.333  57.012  1.00  0.00     0.272 C 
HETATM   12  N   UNL     1       8.021  24.626  56.893  1.00  0.00    -0.353 N 
HETATM   13  H   UNL     1       8.873  25.181  56.864  1.00  0.00     0.162 HD
HETATM   14  O   UNL     1       5.735  24.826  56.910  1.00  0.00    -0.266 OA
BRANCH  12  15
HETATM   15  C   UNL     1       8.072  23.212  56.592  1.00  0.00     0.155 C 
BRANCH  15  16
HETATM   16  C   UNL     1       8.546  22.929  55.165  1.00  0.00     0.139 C 
HETATM   17  O   UNL     1       9.027  21.574  55.049  1.00  0.00    -0.384 OA
HETATM   18  C   UNL     1       8.680  21.081  53.746  1.00  0.00     0.168 C 
HETATM   19  C   UNL     1       7.952  22.193  53.017  1.00  0.00     0.029 C 
HETATM   20  C   UNL     1       7.426  23.041  54.146  1.00  0.00     0.035 C 
ENDBRANCH  15  16
ENDBRANCH  12  15
ENDBRANCH   6  11
BRANCH   8  21
HETATM   21  C   UNL     1       4.707  30.153  56.751  1.00  0.00     0.409 C 
HETATM   22  F   UNL     1       3.599  29.528  57.199  1.00  0.00    -0.169 F 
HETATM   23  F   UNL     1       4.360  31.459  56.583  1.00  0.00    -0.169 F 
HETATM   24  F   UNL     1       4.999  29.675  55.520  1.00  0.00    -0.169 F 
ENDBRANCH   8  21
BRANCH   1  25
HETATM   25  C   UNL     1       8.046  31.439  59.716  1.00  0.00    -0.034 A 
HETATM   26  C   UNL     1       8.764  30.737  60.697  1.00  0.00     0.011 A 
HETATM   27  C   UNL     1       8.638  31.065  62.051  1.00  0.00     0.026 A 
HETATM   28  C   UNL     1       7.789  32.098  62.452  1.00  0.00     0.055 A 
HETATM   29  C   UNL     1       7.059  32.802  61.492  1.00  0.00     0.056 A 
HETATM   30 CL   UNL     1       7.691  32.453  64.139  1.00  0.00    -0.083 Cl
HETATM   31  C   UNL     1       7.186  32.470  60.137  1.00  0.00     0.034 A 
HETATM   32 CL   UNL     1       5.985  34.092  61.904  1.00  0.00    -0.083 Cl
ENDBRANCH   1  25
TORSDOF 5
ENDMDL
MODEL 5
REMARK VINA RESULT:      -8.9      4.223      7.818
REMARK  5 active torsions:
REMARK  status: ('A' for Active; 'I' for Inactive)
REMARK    1  A    between atoms: C_2  and  C_3 
REMARK    2  A    between atoms: C_8  and  C_9 
REMARK       I    between atoms: C_9  and  N_10 
REMARK    3  A    between atoms: N_10  and  C_11 
REMARK    4  A    between atoms: C_11  and  C_12 
REMARK    5  A    between atoms: C_19  and  C_20 
ROOT
HETATM    1  C   UNL     1       4.138  28.996  56.339  1.00  0.00     0.118 C 
HETATM    2  N   UNL     1       4.266  27.555  56.524  1.00  0.00    -0.366 N 
HETATM    3  C   UNL     1       5.468  26.962  56.697  1.00  0.00     0.123 A 
HETATM    4  N   UNL     1       6.619  27.694  56.825  1.00  0.00    -0.240 N 
HETATM    5  N   UNL     1       7.727  26.941  56.913  1.00  0.00    -0.165 NA
HETATM    6  C   UNL     1       7.257  25.673  56.936  1.00  0.00     0.148 A 
HETATM    7  C   UNL     1       5.845  25.648  56.781  1.00  0.00     0.088 A 
HETATM    8  C   UNL     1       6.666  29.141  56.720  1.00  0.00     0.221 C 
HETATM    9  C   UNL     1       5.282  29.736  57.046  1.00  0.00     0.066 C 
HETATM   10  H   UNL     1       3.441  27.003  56.290  1.00  0.00     0.161 HD
ENDROOT
BRANCH   6  11
HETATM   11  C   UNL     1       8.146  24.513  57.111  1.00  0.00     0.272 C 
HETATM   12  N   UNL     1       7.695  23.380  56.473  1.00  0.00    -0.353 N 
HETATM   13  H   UNL     1       6.753  23.431  56.091  1.00  0.00     0.162 HD
HETATM   14  O   UNL     1       9.192  24.560  57.751  1.00  0.00    -0.266 OA
BRANCH  12  15
HETATM   15  C   UNL     1       8.385  22.110  56.523  1.00  0.00     0.155 C 
BRANCH  15  16
HETATM   16  C   UNL     1       8.786  21.602  55.136  1.00  0.00     0.139 C 
HETATM   17  O   UNL     1       8.028  20.425  54.787  1.00  0.00    -0.384 OA
HETATM   18  C   UNL     1       7.765  20.458  53.376  1.00  0.00     0.168 C 
HETATM   19  C   UNL     1       8.399  21.719  52.824  1.00  0.00     0.029 C 
HETATM   20  C   UNL     1       8.485  22.607  54.039  1.00  0.00     0.035 C 
ENDBRANCH  15  16
ENDBRANCH  12  15
ENDBRANCH   6  11
BRANCH   8  21
HETATM   21  C   UNL     1       7.705  29.748  57.638  1.00  0.00     0.409 C 
HETATM   22  F   UNL     1       8.938  29.806  57.094  1.00  0.00    -0.169 F 
HETATM   23  F   UNL     1       7.361  31.033  57.927  1.00  0.00    -0.169 F 
HETATM   24  F   UNL     1       7.792  29.100  58.822  1.00  0.00    -0.169 F 
ENDBRANCH   8  21
BRANCH   1  25
HETATM   25  C   UNL     1       3.987  29.384  54.875  1.00  0.00    -0.034 A 
HETATM   26  C   UNL     1       3.526  30.643  54.459  1.00  0.00     0.011 A 
HETATM   27  C   UNL     1       3.410  30.950  53.099  1.00  0.00     0.026 A 
HETATM   28  C   UNL     1       3.748  30.005  52.129  1.00  0.00     0.055 A 
HETATM   29  C   UNL     1       4.199  28.744  52.523  1.00  0.00     0.056 A 
HETATM   30 CL   UNL     1       3.587  30.459  50.471  1.00  0.00    -0.083 Cl
HETATM   31  C   UNL     1       4.313  28.438  53.885  1.00  0.00     0.034 A 
HETATM   32 CL   UNL     1       4.635  27.518  51.387  1.00  0.00    -0.083 Cl
ENDBRANCH   1  25
TORSDOF 5
ENDMDL
MODEL 6
REMARK VINA RESULT:      -8.9      4.279      7.415
REMARK  5 active torsions:
REMARK  status: ('A' for Active; 'I' for Inactive)
REMARK    1  A    between atoms: C_2  and  C_3 
REMARK    2  A    between atoms: C_8  and  C_9 
REMARK       I    between atoms: C_9  and  N_10 
REMARK    3  A    between atoms: N_10  and  C_11 
REMARK    4  A    between atoms: C_11  and  C_12 
REMARK    5  A    between atoms: C_19  and  C_20 
ROOT
HETATM    1  C   UNL     1       7.883  26.392  54.476  1.00  0.00     0.118 C 
HETATM    2  N   UNL     1       7.507  27.251  53.359  1.00  0.00    -0.366 N 
HETATM    3  C   UNL     1       6.256  27.747  53.231  1.00  0.00     0.123 A 
HETATM    4  N   UNL     1       5.308  27.566  54.202  1.00  0.00    -0.240 N 
HETATM    5  N   UNL     1       4.103  28.060  53.875  1.00  0.00    -0.165 NA
HETATM    6  C   UNL     1       4.312  28.664  52.683  1.00  0.00     0.148 A 
HETATM    7  C   UNL     1       5.647  28.469  52.238  1.00  0.00     0.088 A 
HETATM    8  C   UNL     1       5.529  26.783  55.404  1.00  0.00     0.221 C 
HETATM    9  C   UNL     1       7.037  26.715  55.716  1.00  0.00     0.066 C 
HETATM   10  H   UNL     1       8.159  27.269  52.575  1.00  0.00     0.161 HD
ENDROOT
BRANCH   6  11
HETATM   11  C   UNL     1       3.253  29.418  51.991  1.00  0.00     0.272 C 
HETATM   12  N   UNL     1       2.497  28.641  51.145  1.00  0.00    -0.353 N 
HETATM   13  H   UNL     1       2.838  27.696  50.984  1.00  0.00     0.162 HD
HETATM   14  O   UNL     1       3.061  30.617  52.167  1.00  0.00    -0.266 OA
BRANCH  12  15
HETATM   15  C   UNL     1       1.416  29.163  50.337  1.00  0.00     0.155 C 
BRANCH  15  16
HETATM   16  C   UNL     1       1.640  28.946  48.840  1.00  0.00     0.139 C 
HETATM   17  O   UNL     1       3.011  29.225  48.485  1.00  0.00    -0.384 OA
HETATM   18  C   UNL     1       3.406  28.309  47.453  1.00  0.00     0.168 C 
HETATM   19  C   UNL     1       2.216  27.421  47.150  1.00  0.00     0.029 C 
HETATM   20  C   UNL     1       1.408  27.506  48.419  1.00  0.00     0.035 C 
ENDBRANCH  15  16
ENDBRANCH  12  15
ENDBRANCH   6  11
BRANCH   8  21
HETATM   21  C   UNL     1       4.792  27.349  56.599  1.00  0.00     0.409 C 
HETATM   22  F   UNL     1       3.726  28.106  56.266  1.00  0.00    -0.169 F 
HETATM   23  F   UNL     1       4.306  26.329  57.358  1.00  0.00    -0.169 F 
HETATM   24  F   UNL     1       5.596  28.077  57.407  1.00  0.00    -0.169 F 
ENDBRANCH   8  21
BRANCH   1  25
HETATM   25  C   UNL     1       7.868  24.916  54.106  1.00  0.00    -0.034 A 
HETATM   26  C   UNL     1       7.832  24.458  52.780  1.00  0.00     0.011 A 
HETATM   27  C   UNL     1       7.824  23.089  52.494  1.00  0.00     0.026 A 
HETATM   28  C   UNL     1       7.847  22.150  53.526  1.00  0.00     0.055 A 
HETATM   29  C   UNL     1       7.873  22.586  54.853  1.00  0.00     0.056 A 
HETATM   30 CL   UNL     1       7.844  20.478  53.097  1.00  0.00    -0.083 Cl
HETATM   31  C   UNL     1       7.880  23.958  55.137  1.00  0.00     0.034 A 
HETATM   32 CL   UNL     1       7.902  21.491  56.189  1.00  0.00    -0.083 Cl
ENDBRANCH   1  25
TORSDOF 5
ENDMDL
MODEL 7
REMARK VINA RESULT:      -8.8      4.709      8.820
REMARK  5 active torsions:
REMARK  status: ('A' for Active; 'I' for Inactive)
REMARK    1  A    between atoms: C_2  and  C_3 
REMARK    2  A    between atoms: C_8  and  C_9 
REMARK       I    between atoms: C_9  and  N_10 
REMARK    3  A    between atoms: N_10  and  C_11 
REMARK    4  A    between atoms: C_11  and  C_12 
REMARK    5  A    between atoms: C_19  and  C_20 
ROOT
HETATM    1  C   UNL     1       6.624  31.997  58.424  1.00  0.00     0.118 C 
HETATM    2  N   UNL     1       7.644  30.960  58.317  1.00  0.00    -0.366 N 
HETATM    3  C   UNL     1       7.336  29.690  57.971  1.00  0.00     0.123 A 
HETATM    4  N   UNL     1       6.070  29.336  57.590  1.00  0.00    -0.240 N 
HETATM    5  N   UNL     1       5.928  28.021  57.355  1.00  0.00    -0.165 NA
HETATM    6  C   UNL     1       7.178  27.528  57.503  1.00  0.00     0.148 A 
HETATM    7  C   UNL     1       8.084  28.543  57.911  1.00  0.00     0.088 A 
HETATM    8  C   UNL     1       4.945  30.254  57.586  1.00  0.00     0.221 C 
HETATM    9  C   UNL     1       5.454  31.705  57.474  1.00  0.00     0.066 C 
HETATM   10  H   UNL     1       8.548  31.183  58.732  1.00  0.00     0.161 HD
ENDROOT
BRANCH   6  11
HETATM   11  C   UNL     1       7.496  26.112  57.251  1.00  0.00     0.272 C 
HETATM   12  N   UNL     1       6.743  25.557  56.241  1.00  0.00    -0.353 N 
HETATM   13  H   UNL     1       5.974  26.126  55.896  1.00  0.00     0.162 HD
HETATM   14  O   UNL     1       8.358  25.498  57.873  1.00  0.00    -0.266 OA
BRANCH  12  15
HETATM   15  C   UNL     1       6.858  24.174  55.832  1.00  0.00     0.155 C 
BRANCH  15  16
HETATM   16  C   UNL     1       6.769  23.999  54.315  1.00  0.00     0.139 C 
HETATM   17  O   UNL     1       5.676  24.772  53.777  1.00  0.00    -0.384 OA
HETATM   18  C   UNL     1       6.065  25.271  52.488  1.00  0.00     0.168 C 
HETATM   19  C   UNL     1       7.470  24.775  52.212  1.00  0.00     0.029 C 
HETATM   20  C   UNL     1       8.006  24.509  53.596  1.00  0.00     0.035 C 
ENDBRANCH  15  16
ENDBRANCH  12  15
ENDBRANCH   6  11
BRANCH   8  21
HETATM   21  C   UNL     1       3.978  29.969  56.457  1.00  0.00     0.409 C 
HETATM   22  F   UNL     1       3.366  28.771  56.560  1.00  0.00    -0.169 F 
HETATM   23  F   UNL     1       2.985  30.900  56.465  1.00  0.00    -0.169 F 
HETATM   24  F   UNL     1       4.564  30.046  55.241  1.00  0.00    -0.169 F 
ENDBRANCH   8  21
BRANCH   1  25
HETATM   25  C   UNL     1       6.185  32.236  59.861  1.00  0.00    -0.034 A 
HETATM   26  C   UNL     1       4.856  32.507  60.222  1.00  0.00     0.011 A 
HETATM   27  C   UNL     1       4.504  32.715  61.560  1.00  0.00     0.026 A 
HETATM   28  C   UNL     1       5.474  32.659  62.563  1.00  0.00     0.055 A 
HETATM   29  C   UNL     1       6.803  32.399  62.223  1.00  0.00     0.056 A 
HETATM   30 CL   UNL     1       4.964  32.916  64.192  1.00  0.00    -0.083 Cl
HETATM   31  C   UNL     1       7.152  32.193  60.882  1.00  0.00     0.034 A 
HETATM   32 CL   UNL     1       8.063  32.315  63.402  1.00  0.00    -0.083 Cl
ENDBRANCH   1  25
TORSDOF 5
ENDMDL
MODEL 8
REMARK VINA RESULT:      -8.5      4.340      7.487
REMARK  5 active torsions:
REMARK  status: ('A' for Active; 'I' for Inactive)
REMARK    1  A    between atoms: C_2  and  C_3 
REMARK    2  A    between atoms: C_8  and  C_9 
REMARK       I    between atoms: C_9  and  N_10 
REMARK    3  A    between atoms: N_10  and  C_11 
REMARK    4  A    between atoms: C_11  and  C_12 
REMARK    5  A    between atoms: C_19  and  C_20 
ROOT
HETATM    1  C   UNL     1       7.809  26.613  54.621  1.00  0.00     0.118 C 
HETATM    2  N   UNL     1       7.439  26.887  53.237  1.00  0.00    -0.366 N 
HETATM    3  C   UNL     1       6.204  27.319  52.901  1.00  0.00     0.123 A 
HETATM    4  N   UNL     1       5.269  27.633  53.852  1.00  0.00    -0.240 N 
HETATM    5  N   UNL     1       4.075  27.970  53.339  1.00  0.00    -0.165 NA
HETATM    6  C   UNL     1       4.280  27.962  52.003  1.00  0.00     0.148 A 
HETATM    7  C   UNL     1       5.599  27.536  51.691  1.00  0.00     0.088 A 
HETATM    8  C   UNL     1       5.488  27.470  55.278  1.00  0.00     0.221 C 
HETATM    9  C   UNL     1       6.998  27.493  55.582  1.00  0.00     0.066 C 
HETATM   10  H   UNL     1       8.076  26.524  52.528  1.00  0.00     0.161 HD
ENDROOT
BRANCH   6  11
HETATM   11  C   UNL     1       3.233  28.361  51.047  1.00  0.00     0.272 C 
HETATM   12  N   UNL     1       3.299  27.681  49.853  1.00  0.00    -0.353 N 
HETATM   13  H   UNL     1       4.127  27.107  49.714  1.00  0.00     0.162 HD
HETATM   14  O   UNL     1       2.380  29.206  51.303  1.00  0.00    -0.266 OA
BRANCH  12  15
HETATM   15  C   UNL     1       2.393  27.920  48.751  1.00  0.00     0.155 C 
BRANCH  15  16
HETATM   16  C   UNL     1       2.927  28.960  47.763  1.00  0.00     0.139 C 
HETATM   17  O   UNL     1       2.547  30.291  48.171  1.00  0.00    -0.384 OA
HETATM   18  C   UNL     1       3.616  31.189  47.838  1.00  0.00     0.168 C 
HETATM   19  C   UNL     1       4.712  30.370  47.184  1.00  0.00     0.029 C 
HETATM   20  C   UNL     1       4.444  28.981  47.704  1.00  0.00     0.035 C 
ENDBRANCH  15  16
ENDBRANCH  12  15
ENDBRANCH   6  11
BRANCH   8  21
HETATM   21  C   UNL     1       4.793  28.543  56.089  1.00  0.00     0.409 C 
HETATM   22  F   UNL     1       3.454  28.388  56.155  1.00  0.00    -0.169 F 
HETATM   23  F   UNL     1       5.239  28.501  57.374  1.00  0.00    -0.169 F 
HETATM   24  F   UNL     1       5.057  29.789  55.634  1.00  0.00    -0.169 F 
ENDBRANCH   8  21
BRANCH   1  25
HETATM   25  C   UNL     1       7.738  25.131  54.959  1.00  0.00    -0.034 A 
HETATM   26  C   UNL     1       7.622  24.649  56.272  1.00  0.00     0.011 A 
HETATM   27  C   UNL     1       7.556  23.275  56.529  1.00  0.00     0.026 A 
HETATM   28  C   UNL     1       7.607  22.356  55.480  1.00  0.00     0.055 A 
HETATM   29  C   UNL     1       7.731  22.815  54.167  1.00  0.00     0.056 A 
HETATM   30 CL   UNL     1       7.510  20.677  55.872  1.00  0.00    -0.083 Cl
HETATM   31  C   UNL     1       7.799  24.191  53.913  1.00  0.00     0.034 A 
HETATM   32 CL   UNL     1       7.803  21.746  52.812  1.00  0.00    -0.083 Cl
ENDBRANCH   1  25
TORSDOF 5
ENDMDL
MODEL 9
REMARK VINA RESULT:      -8.5      5.326      8.513
REMARK  5 active torsions:
REMARK  status: ('A' for Active; 'I' for Inactive)
REMARK    1  A    between atoms: C_2  and  C_3 
REMARK    2  A    between atoms: C_8  and  C_9 
REMARK       I    between atoms: C_9  and  N_10 
REMARK    3  A    between atoms: N_10  and  C_11 
REMARK    4  A    between atoms: C_11  and  C_12 
REMARK    5  A    between atoms: C_19  and  C_20 
ROOT
HETATM    1  C   UNL     1       4.038  29.107  55.584  1.00  0.00     0.118 C 
HETATM    2  N   UNL     1       4.048  27.979  54.660  1.00  0.00    -0.366 N 
HETATM    3  C   UNL     1       5.176  27.285  54.393  1.00  0.00     0.123 A 
HETATM    4  N   UNL     1       6.345  27.530  55.063  1.00  0.00    -0.240 N 
HETATM    5  N   UNL     1       7.382  26.802  54.617  1.00  0.00    -0.165 NA
HETATM    6  C   UNL     1       6.832  25.991  53.685  1.00  0.00     0.148 A 
HETATM    7  C   UNL     1       5.454  26.281  53.503  1.00  0.00     0.088 A 
HETATM    8  C   UNL     1       6.499  28.581  56.053  1.00  0.00     0.221 C 
HETATM    9  C   UNL     1       5.126  28.940  56.654  1.00  0.00     0.066 C 
HETATM   10  H   UNL     1       3.226  27.888  54.063  1.00  0.00     0.161 HD
ENDROOT
BRANCH   6  11
HETATM   11  C   UNL     1       7.614  24.954  52.991  1.00  0.00     0.272 C 
HETATM   12  N   UNL     1       7.428  23.693  53.508  1.00  0.00    -0.353 N 
HETATM   13  H   UNL     1       6.904  23.643  54.378  1.00  0.00     0.162 HD
HETATM   14  O   UNL     1       8.347  25.196  52.036  1.00  0.00    -0.266 OA
BRANCH  12  15
HETATM   15  C   UNL     1       8.109  22.519  53.008  1.00  0.00     0.155 C 
BRANCH  15  16
HETATM   16  C   UNL     1       8.748  21.689  54.122  1.00  0.00     0.139 C 
HETATM   17  O   UNL     1       8.814  22.447  55.348  1.00  0.00    -0.384 OA
HETATM   18  C   UNL     1       8.599  21.549  56.447  1.00  0.00     0.168 C 
HETATM   19  C   UNL     1       8.396  20.162  55.871  1.00  0.00     0.029 C 
HETATM   20  C   UNL     1       7.937  20.451  54.465  1.00  0.00     0.035 C 
ENDBRANCH  15  16
ENDBRANCH  12  15
ENDBRANCH   6  11
BRANCH   8  21
HETATM   21  C   UNL     1       7.448  28.185  57.164  1.00  0.00     0.409 C 
HETATM   22  F   UNL     1       7.264  26.924  57.607  1.00  0.00    -0.169 F 
HETATM   23  F   UNL     1       8.730  28.239  56.707  1.00  0.00    -0.169 F 
HETATM   24  F   UNL     1       7.385  29.023  58.223  1.00  0.00    -0.169 F 
ENDBRANCH   8  21
BRANCH   1  25
HETATM   25  C   UNL     1       4.103  30.448  54.866  1.00  0.00    -0.034 A 
HETATM   26  C   UNL     1       3.806  30.603  53.503  1.00  0.00     0.011 A 
HETATM   27  C   UNL     1       3.877  31.859  52.892  1.00  0.00     0.026 A 
HETATM   28  C   UNL     1       4.248  32.984  53.630  1.00  0.00     0.055 A 
HETATM   29  C   UNL     1       4.555  32.849  54.985  1.00  0.00     0.056 A 
HETATM   30 CL   UNL     1       4.304  34.504  52.811  1.00  0.00    -0.083 Cl
HETATM   31  C   UNL     1       4.485  31.590  55.594  1.00  0.00     0.034 A 
HETATM   32 CL   UNL     1       5.025  34.190  55.969  1.00  0.00    -0.083 Cl
ENDBRANCH   1  25
TORSDOF 5
ENDMDL
MODEL 10
REMARK VINA RESULT:      -8.4      5.196      8.739
REMARK  5 active torsions:
REMARK  status: ('A' for Active; 'I' for Inactive)
REMARK    1  A    between atoms: C_2  and  C_3 
REMARK    2  A    between atoms: C_8  and  C_9 
REMARK       I    between atoms: C_9  and  N_10 
REMARK    3  A    between atoms: N_10  and  C_11 
REMARK    4  A    between atoms: C_11  and  C_12 
REMARK    5  A    between atoms: C_19  and  C_20 
ROOT
HETATM    1  C   UNL     1       5.511  30.135  57.790  1.00  0.00     0.118 C 
HETATM    2  N   UNL     1       4.894  28.903  57.312  1.00  0.00    -0.366 N 
HETATM    3  C   UNL     1       5.518  28.087  56.434  1.00  0.00     0.123 A 
HETATM    4  N   UNL     1       6.809  28.312  56.036  1.00  0.00    -0.240 N 
HETATM    5  N   UNL     1       7.242  27.447  55.105  1.00  0.00    -0.165 NA
HETATM    6  C   UNL     1       6.217  26.576  54.969  1.00  0.00     0.148 A 
HETATM    7  C   UNL     1       5.110  26.959  55.772  1.00  0.00     0.088 A 
HETATM    8  C   UNL     1       7.590  29.461  56.456  1.00  0.00     0.221 C 
HETATM    9  C   UNL     1       7.041  30.010  57.788  1.00  0.00     0.066 C 
HETATM   10  H   UNL     1       3.895  28.809  57.492  1.00  0.00     0.161 HD
ENDROOT
BRANCH   6  11
HETATM   11  C   UNL     1       6.303  25.397  54.090  1.00  0.00     0.272 C 
HETATM   12  N   UNL     1       7.594  24.982  53.861  1.00  0.00    -0.353 N 
HETATM   13  H   UNL     1       8.326  25.605  54.192  1.00  0.00     0.162 HD
HETATM   14  O   UNL     1       5.316  24.837  53.623  1.00  0.00    -0.266 OA
BRANCH  12  15
HETATM   15  C   UNL     1       7.931  23.862  53.010  1.00  0.00     0.155 C 
BRANCH  15  16
HETATM   16  C   UNL     1       8.478  22.668  53.795  1.00  0.00     0.139 C 
HETATM   17  O   UNL     1       7.869  22.596  55.101  1.00  0.00    -0.384 OA
HETATM   18  C   UNL     1       7.704  21.213  55.448  1.00  0.00     0.168 C 
HETATM   19  C   UNL     1       8.243  20.387  54.298  1.00  0.00     0.029 C 
HETATM   20  C   UNL     1       8.154  21.339  53.134  1.00  0.00     0.035 C 
ENDBRANCH  15  16
ENDBRANCH  12  15
ENDBRANCH   6  11
BRANCH   8  21
HETATM   21  C   UNL     1       9.059  29.127  56.615  1.00  0.00     0.409 C 
HETATM   22  F   UNL     1       9.682  29.866  57.556  1.00  0.00    -0.169 F 
HETATM   23  F   UNL     1       9.189  27.830  57.009  1.00  0.00    -0.169 F 
HETATM   24  F   UNL     1       9.745  29.245  55.456  1.00  0.00    -0.169 F 
ENDBRANCH   8  21
BRANCH   1  25
HETATM   25  C   UNL     1       5.008  31.364  57.047  1.00  0.00    -0.034 A 
HETATM   26  C   UNL     1       5.230  32.676  57.497  1.00  0.00     0.011 A 
HETATM   27  C   UNL     1       4.750  33.772  56.773  1.00  0.00     0.026 A 
HETATM   28  C   UNL     1       4.036  33.581  55.589  1.00  0.00     0.055 A 
HETATM   29  C   UNL     1       3.797  32.284  55.131  1.00  0.00     0.056 A 
HETATM   30 CL   UNL     1       3.482  34.982  54.745  1.00  0.00    -0.083 Cl
HETATM   31  C   UNL     1       4.278  31.187  55.858  1.00  0.00     0.034 A 
HETATM   32 CL   UNL     1       2.921  31.959  53.677  1.00  0.00    -0.083 Cl
ENDBRANCH   1  25
TORSDOF 5
ENDMDL
