MODEL 1
REMARK VINA RESULT:      -9.2      0.000      0.000
REMARK  4 active torsions:
REMARK  status: ('A' for Active; 'I' for Inactive)
REMARK    1  A    between atoms: C_2  and  C_3 
REMARK    2  A    between atoms: C_4  and  C_5 
REMARK       I    between atoms: C_5  and  N_6 
REMARK    3  A    between atoms: N_6  and  C_7 
REMARK    4  A    between atoms: C_14  and  C_15 
REMARK       I    between atoms: C_15  and  N_16 
ROOT
HETATM    1  C   UNL     1       7.500  27.926  56.929  1.00  0.00     0.035 A 
HETATM    2  C   UNL     1       7.998  28.825  57.881  1.00  0.00     0.046 A 
HETATM    3  C   UNL     1       7.382  30.087  58.039  1.00  0.00     0.030 A 
HETATM    4  C   UNL     1       6.297  30.409  57.236  1.00  0.00     0.063 A 
HETATM    5  N   UNL     1       5.930  31.672  57.610  1.00  0.00    -0.277 N 
HETATM    6  H   UNL     1       5.172  32.229  57.232  1.00  0.00     0.189 HD
HETATM    7  N   UNL     1       6.678  32.201  58.591  1.00  0.00    -0.168 NA
HETATM    8  C   UNL     1       7.580  31.232  58.870  1.00  0.00     0.156 A 
HETATM    9  C   UNL     1       5.774  29.541  56.276  1.00  0.00     0.034 A 
HETATM   10  C   UNL     1       6.398  28.294  56.143  1.00  0.00     0.032 A 
ENDROOT
BRANCH   1  11
HETATM   11  N   UNL     1       8.042  26.643  56.703  1.00  0.00    -0.327 N 
HETATM   12  C   UNL     1       7.456  25.426  56.975  1.00  0.00     0.227 C 
HETATM   13  O   UNL     1       6.346  25.223  57.444  1.00  0.00    -0.273 OA
HETATM   14  H   UNL     1       8.966  26.616  56.298  1.00  0.00     0.169 HD
BRANCH  12  15
HETATM   15  C   UNL     1       8.267  24.239  56.581  1.00  0.00     0.087 A 
HETATM   16  C   UNL     1       8.362  23.788  55.131  1.00  0.00     0.032 A 
HETATM   17  C   UNL     1       7.712  22.903  56.172  1.00  0.00     0.025 A 
BRANCH  16  18
HETATM   18  C   UNL     1       7.502  24.347  54.019  1.00  0.00    -0.053 A 
HETATM   19  C   UNL     1       8.059  24.869  52.840  1.00  0.00     0.009 A 
HETATM   20  C   UNL     1       7.256  25.364  51.806  1.00  0.00     0.024 A 
HETATM   21  C   UNL     1       5.871  25.326  51.929  1.00  0.00     0.034 A 
HETATM   22  C   UNL     1       5.286  24.796  53.074  1.00  0.00     0.024 A 
HETATM   23 CL   UNL     1       4.878  25.927  50.660  1.00  0.00    -0.084 Cl
HETATM   24  C   UNL     1       6.097  24.309  54.104  1.00  0.00     0.009 A 
ENDBRANCH  16  18
ENDBRANCH  12  15
ENDBRANCH   1  11
BRANCH   8  25
HETATM   25  C   UNL     1       8.599  31.417  59.912  1.00  0.00     0.270 C 
HETATM   26  N   UNL     1       8.519  30.516  60.939  1.00  0.00    -0.365 N 
HETATM   27  H   UNL     1       7.791  29.813  60.912  1.00  0.00     0.159 HD
HETATM   28  H   UNL     1       9.176  30.569  61.701  1.00  0.00     0.159 HD
HETATM   29  O   UNL     1       9.462  32.287  59.901  1.00  0.00    -0.266 OA
ENDBRANCH   8  25
TORSDOF 4
ENDMDL
MODEL 2
REMARK VINA RESULT:      -9.2      2.449      3.685
REMARK  4 active torsions:
REMARK  status: ('A' for Active; 'I' for Inactive)
REMARK    1  A    between atoms: C_2  and  C_3 
REMARK    2  A    between atoms: C_4  and  C_5 
REMARK       I    between atoms: C_5  and  N_6 
REMARK    3  A    between atoms: N_6  and  C_7 
REMARK    4  A    between atoms: C_14  and  C_15 
REMARK       I    between atoms: C_15  and  N_16 
ROOT
HETATM    1  C   UNL     1       6.457  28.256  56.108  1.00  0.00     0.035 A 
HETATM    2  C   UNL     1       6.078  29.422  56.786  1.00  0.00     0.046 A 
HETATM    3  C   UNL     1       6.945  29.982  57.752  1.00  0.00     0.030 A 
HETATM    4  C   UNL     1       8.155  29.354  58.010  1.00  0.00     0.063 A 
HETATM    5  N   UNL     1       8.758  30.112  58.975  1.00  0.00    -0.277 N 
HETATM    6  H   UNL     1       9.660  29.949  59.409  1.00  0.00     0.189 HD
HETATM    7  N   UNL     1       8.048  31.182  59.367  1.00  0.00    -0.168 NA
HETATM    8  C   UNL     1       6.925  31.118  58.617  1.00  0.00     0.156 A 
HETATM    9  C   UNL     1       8.567  28.192  57.355  1.00  0.00     0.034 A 
HETATM   10  C   UNL     1       7.693  27.660  56.398  1.00  0.00     0.032 A 
ENDROOT
BRANCH   1  11
HETATM   11  N   UNL     1       5.664  27.628  55.123  1.00  0.00    -0.327 N 
HETATM   12  C   UNL     1       5.866  27.625  53.761  1.00  0.00     0.227 C 
HETATM   13  O   UNL     1       6.783  28.147  53.143  1.00  0.00    -0.273 OA
HETATM   14  H   UNL     1       4.856  27.127  55.459  1.00  0.00     0.169 HD
BRANCH  12  15
HETATM   15  C   UNL     1       4.873  26.831  52.983  1.00  0.00     0.087 A 
HETATM   16  C   UNL     1       4.950  25.313  52.913  1.00  0.00     0.032 A 
HETATM   17  C   UNL     1       5.140  26.152  51.669  1.00  0.00     0.025 A 
BRANCH  16  18
HETATM   18  C   UNL     1       6.122  24.506  53.427  1.00  0.00    -0.053 A 
HETATM   19  C   UNL     1       6.260  24.180  54.786  1.00  0.00     0.009 A 
HETATM   20  C   UNL     1       7.336  23.414  55.250  1.00  0.00     0.024 A 
HETATM   21  C   UNL     1       8.287  22.943  54.351  1.00  0.00     0.034 A 
HETATM   22  C   UNL     1       8.169  23.230  52.995  1.00  0.00     0.024 A 
HETATM   23 CL   UNL     1       9.608  21.997  54.914  1.00  0.00    -0.084 Cl
HETATM   24  C   UNL     1       7.093  24.001  52.542  1.00  0.00     0.009 A 
ENDBRANCH  16  18
ENDBRANCH  12  15
ENDBRANCH   1  11
BRANCH   8  25
HETATM   25  C   UNL     1       5.868  32.131  58.741  1.00  0.00     0.270 C 
HETATM   26  N   UNL     1       5.023  31.931  59.799  1.00  0.00    -0.365 N 
HETATM   27  H   UNL     1       5.177  31.128  60.398  1.00  0.00     0.159 HD
HETATM   28  H   UNL     1       4.265  32.575  59.962  1.00  0.00     0.159 HD
HETATM   29  O   UNL     1       5.722  33.087  57.988  1.00  0.00    -0.266 OA
ENDBRANCH   8  25
TORSDOF 4
ENDMDL
MODEL 3
REMARK VINA RESULT:      -9.1      4.954      7.601
REMARK  4 active torsions:
REMARK  status: ('A' for Active; 'I' for Inactive)
REMARK    1  A    between atoms: C_2  and  C_3 
REMARK    2  A    between atoms: C_4  and  C_5 
REMARK       I    between atoms: C_5  and  N_6 
REMARK    3  A    between atoms: N_6  and  C_7 
REMARK    4  A    between atoms: C_14  and  C_15 
REMARK       I    between atoms: C_15  and  N_16 
ROOT
HETATM    1  C   UNL     1       5.235  25.863  52.137  1.00  0.00     0.035 A 
HETATM    2  C   UNL     1       5.204  26.011  50.744  1.00  0.00     0.046 A 
HETATM    3  C   UNL     1       4.693  27.201  50.179  1.00  0.00     0.030 A 
HETATM    4  C   UNL     1       4.226  28.197  51.024  1.00  0.00     0.063 A 
HETATM    5  N   UNL     1       3.798  29.201  50.200  1.00  0.00    -0.277 N 
HETATM    6  H   UNL     1       3.391  30.088  50.473  1.00  0.00     0.189 HD
HETATM    7  N   UNL     1       3.950  28.948  48.890  1.00  0.00    -0.168 NA
HETATM    8  C   UNL     1       4.506  27.715  48.860  1.00  0.00     0.156 A 
HETATM    9  C   UNL     1       4.239  28.086  52.415  1.00  0.00     0.034 A 
HETATM   10  C   UNL     1       4.756  26.900  52.951  1.00  0.00     0.032 A 
ENDROOT
BRANCH   1  11
HETATM   11  N   UNL     1       5.732  24.717  52.794  1.00  0.00    -0.327 N 
HETATM   12  C   UNL     1       7.030  24.257  52.809  1.00  0.00     0.227 C 
HETATM   13  O   UNL     1       8.006  24.765  52.275  1.00  0.00    -0.273 OA
HETATM   14  H   UNL     1       5.057  24.173  53.309  1.00  0.00     0.169 HD
BRANCH  12  15
HETATM   15  C   UNL     1       7.252  23.035  53.634  1.00  0.00     0.087 A 
HETATM   16  C   UNL     1       7.288  23.099  55.153  1.00  0.00     0.032 A 
HETATM   17  C   UNL     1       8.519  22.700  54.369  1.00  0.00     0.025 A 
BRANCH  16  18
HETATM   18  C   UNL     1       7.320  24.390  55.941  1.00  0.00    -0.053 A 
HETATM   19  C   UNL     1       8.518  24.923  56.445  1.00  0.00     0.009 A 
HETATM   20  C   UNL     1       8.542  26.130  57.154  1.00  0.00     0.024 A 
HETATM   21  C   UNL     1       7.362  26.836  57.354  1.00  0.00     0.034 A 
HETATM   22  C   UNL     1       6.161  26.348  56.850  1.00  0.00     0.024 A 
HETATM   23 CL   UNL     1       7.386  28.323  58.219  1.00  0.00    -0.084 Cl
HETATM   24  C   UNL     1       6.146  25.139  56.148  1.00  0.00     0.009 A 
ENDBRANCH  16  18
ENDBRANCH  12  15
ENDBRANCH   1  11
BRANCH   8  25
HETATM   25  C   UNL     1       4.842  27.063  47.587  1.00  0.00     0.270 C 
HETATM   26  N   UNL     1       6.108  27.327  47.141  1.00  0.00    -0.365 N 
HETATM   27  H   UNL     1       6.702  27.931  47.695  1.00  0.00     0.159 HD
HETATM   28  H   UNL     1       6.425  26.924  46.273  1.00  0.00     0.159 HD
HETATM   29  O   UNL     1       4.085  26.338  46.951  1.00  0.00    -0.266 OA
ENDBRANCH   8  25
TORSDOF 4
ENDMDL
MODEL 4
REMARK VINA RESULT:      -8.5      5.531      8.413
REMARK  4 active torsions:
REMARK  status: ('A' for Active; 'I' for Inactive)
REMARK    1  A    between atoms: C_2  and  C_3 
REMARK    2  A    between atoms: C_4  and  C_5 
REMARK       I    between atoms: C_5  and  N_6 
REMARK    3  A    between atoms: N_6  and  C_7 
REMARK    4  A    between atoms: C_14  and  C_15 
REMARK       I    between atoms: C_15  and  N_16 
ROOT
HETATM    1  C   UNL     1       5.364  26.722  50.781  1.00  0.00     0.035 A 
HETATM    2  C   UNL     1       4.561  26.434  49.669  1.00  0.00     0.046 A 
HETATM    3  C   UNL     1       3.908  27.487  48.989  1.00  0.00     0.030 A 
HETATM    4  C   UNL     1       4.074  28.786  49.446  1.00  0.00     0.063 A 
HETATM    5  N   UNL     1       3.329  29.565  48.605  1.00  0.00    -0.277 N 
HETATM    6  H   UNL     1       3.214  30.571  48.642  1.00  0.00     0.189 HD
HETATM    7  N   UNL     1       2.694  28.888  47.635  1.00  0.00    -0.168 NA
HETATM    8  C   UNL     1       3.045  27.600  47.856  1.00  0.00     0.156 A 
HETATM    9  C   UNL     1       4.864  29.111  50.550  1.00  0.00     0.034 A 
HETATM   10  C   UNL     1       5.506  28.051  51.204  1.00  0.00     0.032 A 
ENDROOT
BRANCH   1  11
HETATM   11  N   UNL     1       6.061  25.741  51.519  1.00  0.00    -0.327 N 
HETATM   12  C   UNL     1       5.530  24.803  52.377  1.00  0.00     0.227 C 
HETATM   13  O   UNL     1       4.351  24.625  52.647  1.00  0.00    -0.273 OA
HETATM   14  H   UNL     1       7.063  25.730  51.406  1.00  0.00     0.169 HD
BRANCH  12  15
HETATM   15  C   UNL     1       6.526  23.871  52.979  1.00  0.00     0.087 A 
HETATM   16  C   UNL     1       7.048  24.073  54.393  1.00  0.00     0.032 A 
HETATM   17  C   UNL     1       7.979  24.179  53.205  1.00  0.00     0.025 A 
BRANCH  16  18
HETATM   18  C   UNL     1       6.785  25.313  55.218  1.00  0.00    -0.053 A 
HETATM   19  C   UNL     1       7.560  26.476  55.077  1.00  0.00     0.009 A 
HETATM   20  C   UNL     1       7.296  27.628  55.828  1.00  0.00     0.024 A 
HETATM   21  C   UNL     1       6.234  27.639  56.725  1.00  0.00     0.034 A 
HETATM   22  C   UNL     1       5.434  26.511  56.874  1.00  0.00     0.024 A 
HETATM   23 CL   UNL     1       5.901  29.052  57.647  1.00  0.00    -0.084 Cl
HETATM   24  C   UNL     1       5.708  25.363  56.123  1.00  0.00     0.009 A 
ENDBRANCH  16  18
ENDBRANCH  12  15
ENDBRANCH   1  11
BRANCH   8  25
HETATM   25  C   UNL     1       2.553  26.518  46.992  1.00  0.00     0.270 C 
HETATM   26  N   UNL     1       1.315  26.749  46.458  1.00  0.00    -0.365 N 
HETATM   27  H   UNL     1       0.840  27.613  46.688  1.00  0.00     0.159 HD
HETATM   28  H   UNL     1       0.895  26.059  45.854  1.00  0.00     0.159 HD
HETATM   29  O   UNL     1       3.167  25.487  46.743  1.00  0.00    -0.266 OA
ENDBRANCH   8  25
TORSDOF 4
ENDMDL
MODEL 5
REMARK VINA RESULT:      -8.4      4.440      7.139
REMARK  4 active torsions:
REMARK  status: ('A' for Active; 'I' for Inactive)
REMARK    1  A    between atoms: C_2  and  C_3 
REMARK    2  A    between atoms: C_4  and  C_5 
REMARK       I    between atoms: C_5  and  N_6 
REMARK    3  A    between atoms: N_6  and  C_7 
REMARK    4  A    between atoms: C_14  and  C_15 
REMARK       I    between atoms: C_15  and  N_16 
ROOT
HETATM    1  C   UNL     1       6.301  25.043  53.851  1.00  0.00     0.035 A 
HETATM    2  C   UNL     1       6.776  24.330  54.960  1.00  0.00     0.046 A 
HETATM    3  C   UNL     1       7.746  23.319  54.777  1.00  0.00     0.030 A 
HETATM    4  C   UNL     1       8.201  23.051  53.493  1.00  0.00     0.063 A 
HETATM    5  N   UNL     1       9.110  22.039  53.634  1.00  0.00    -0.277 N 
HETATM    6  H   UNL     1       9.642  21.586  52.901  1.00  0.00     0.189 HD
HETATM    7  N   UNL     1       9.291  21.626  54.899  1.00  0.00    -0.168 NA
HETATM    8  C   UNL     1       8.456  22.411  55.619  1.00  0.00     0.156 A 
HETATM    9  C   UNL     1       7.750  23.738  52.365  1.00  0.00     0.034 A 
HETATM   10  C   UNL     1       6.794  24.740  52.573  1.00  0.00     0.032 A 
ENDROOT
BRANCH   1  11
HETATM   11  N   UNL     1       5.341  26.074  53.934  1.00  0.00    -0.327 N 
HETATM   12  C   UNL     1       5.569  27.432  53.966  1.00  0.00     0.227 C 
HETATM   13  O   UNL     1       6.646  28.007  53.907  1.00  0.00    -0.273 OA
HETATM   14  H   UNL     1       4.377  25.779  53.977  1.00  0.00     0.169 HD
BRANCH  12  15
HETATM   15  C   UNL     1       4.339  28.273  54.012  1.00  0.00     0.087 A 
HETATM   16  C   UNL     1       3.617  28.693  52.741  1.00  0.00     0.032 A 
HETATM   17  C   UNL     1       4.264  29.726  53.637  1.00  0.00     0.025 A 
BRANCH  16  18
HETATM   18  C   UNL     1       4.176  28.490  51.350  1.00  0.00    -0.053 A 
HETATM   19  C   UNL     1       4.167  27.234  50.722  1.00  0.00     0.009 A 
HETATM   20  C   UNL     1       4.666  27.059  49.426  1.00  0.00     0.024 A 
HETATM   21  C   UNL     1       5.169  28.151  48.726  1.00  0.00     0.034 A 
HETATM   22  C   UNL     1       5.173  29.413  49.311  1.00  0.00     0.024 A 
HETATM   23 CL   UNL     1       5.778  27.944  47.132  1.00  0.00    -0.084 Cl
HETATM   24  C   UNL     1       4.677  29.577  50.608  1.00  0.00     0.009 A 
ENDBRANCH  16  18
ENDBRANCH  12  15
ENDBRANCH   1  11
BRANCH   8  25
HETATM   25  C   UNL     1       8.357  22.277  57.079  1.00  0.00     0.270 C 
HETATM   26  N   UNL     1       8.390  23.468  57.753  1.00  0.00    -0.365 N 
HETATM   27  H   UNL     1       8.481  24.324  57.220  1.00  0.00     0.159 HD
HETATM   28  H   UNL     1       8.331  23.473  58.759  1.00  0.00     0.159 HD
HETATM   29  O   UNL     1       8.250  21.214  57.679  1.00  0.00    -0.266 OA
ENDBRANCH   8  25
TORSDOF 4
ENDMDL
MODEL 6
REMARK VINA RESULT:      -8.4      1.973      3.057
REMARK  4 active torsions:
REMARK  status: ('A' for Active; 'I' for Inactive)
REMARK    1  A    between atoms: C_2  and  C_3 
REMARK    2  A    between atoms: C_4  and  C_5 
REMARK       I    between atoms: C_5  and  N_6 
REMARK    3  A    between atoms: N_6  and  C_7 
REMARK    4  A    between atoms: C_14  and  C_15 
REMARK       I    between atoms: C_15  and  N_16 
ROOT
HETATM    1  C   UNL     1       7.484  27.900  56.863  1.00  0.00     0.035 A 
HETATM    2  C   UNL     1       6.511  28.506  56.057  1.00  0.00     0.046 A 
HETATM    3  C   UNL     1       6.045  29.801  56.379  1.00  0.00     0.030 A 
HETATM    4  C   UNL     1       6.562  30.440  57.498  1.00  0.00     0.063 A 
HETATM    5  N   UNL     1       5.925  31.649  57.551  1.00  0.00    -0.277 N 
HETATM    6  H   UNL     1       6.052  32.379  58.242  1.00  0.00     0.189 HD
HETATM    7  N   UNL     1       5.040  31.856  56.562  1.00  0.00    -0.168 NA
HETATM    8  C   UNL     1       5.106  30.723  55.827  1.00  0.00     0.156 A 
HETATM    9  C   UNL     1       7.530  29.868  58.324  1.00  0.00     0.034 A 
HETATM   10  C   UNL     1       7.980  28.587  57.981  1.00  0.00     0.032 A 
ENDROOT
BRANCH   1  11
HETATM   11  N   UNL     1       8.016  26.616  56.618  1.00  0.00    -0.327 N 
HETATM   12  C   UNL     1       7.420  25.400  56.870  1.00  0.00     0.227 C 
HETATM   13  O   UNL     1       6.307  25.198  57.334  1.00  0.00    -0.273 OA
HETATM   14  H   UNL     1       8.940  26.588  56.215  1.00  0.00     0.169 HD
BRANCH  12  15
HETATM   15  C   UNL     1       8.222  24.212  56.459  1.00  0.00     0.087 A 
HETATM   16  C   UNL     1       8.312  23.781  55.003  1.00  0.00     0.032 A 
HETATM   17  C   UNL     1       7.657  22.886  56.032  1.00  0.00     0.025 A 
BRANCH  16  18
HETATM   18  C   UNL     1       7.455  24.361  53.899  1.00  0.00    -0.053 A 
HETATM   19  C   UNL     1       8.017  24.948  52.753  1.00  0.00     0.009 A 
HETATM   20  C   UNL     1       7.217  25.462  51.727  1.00  0.00     0.024 A 
HETATM   21  C   UNL     1       5.832  25.381  51.823  1.00  0.00     0.034 A 
HETATM   22  C   UNL     1       5.243  24.787  52.935  1.00  0.00     0.024 A 
HETATM   23 CL   UNL     1       4.844  26.006  50.562  1.00  0.00    -0.084 Cl
HETATM   24  C   UNL     1       6.051  24.280  53.958  1.00  0.00     0.009 A 
ENDBRANCH  16  18
ENDBRANCH  12  15
ENDBRANCH   1  11
BRANCH   8  25
HETATM   25  C   UNL     1       4.278  30.547  54.625  1.00  0.00     0.270 C 
HETATM   26  N   UNL     1       4.985  30.209  53.504  1.00  0.00    -0.365 N 
HETATM   27  H   UNL     1       5.990  30.110  53.575  1.00  0.00     0.159 HD
HETATM   28  H   UNL     1       4.500  30.071  52.631  1.00  0.00     0.159 HD
HETATM   29  O   UNL     1       3.060  30.680  54.588  1.00  0.00    -0.266 OA
ENDBRANCH   8  25
TORSDOF 4
ENDMDL
MODEL 7
REMARK VINA RESULT:      -8.4      4.972      7.280
REMARK  4 active torsions:
REMARK  status: ('A' for Active; 'I' for Inactive)
REMARK    1  A    between atoms: C_2  and  C_3 
REMARK    2  A    between atoms: C_4  and  C_5 
REMARK       I    between atoms: C_5  and  N_6 
REMARK    3  A    between atoms: N_6  and  C_7 
REMARK    4  A    between atoms: C_14  and  C_15 
REMARK       I    between atoms: C_15  and  N_16 
ROOT
HETATM    1  C   UNL     1       5.116  27.298  51.950  1.00  0.00     0.035 A 
HETATM    2  C   UNL     1       4.230  28.318  51.577  1.00  0.00     0.046 A 
HETATM    3  C   UNL     1       3.659  28.308  50.285  1.00  0.00     0.030 A 
HETATM    4  C   UNL     1       3.998  27.285  49.410  1.00  0.00     0.063 A 
HETATM    5  N   UNL     1       3.306  27.547  48.260  1.00  0.00    -0.277 N 
HETATM    6  H   UNL     1       3.314  27.007  47.402  1.00  0.00     0.189 HD
HETATM    7  N   UNL     1       2.541  28.649  48.309  1.00  0.00    -0.168 NA
HETATM    8  C   UNL     1       2.746  29.130  49.557  1.00  0.00     0.156 A 
HETATM    9  C   UNL     1       4.878  26.255  49.745  1.00  0.00     0.034 A 
HETATM   10  C   UNL     1       5.426  26.283  51.034  1.00  0.00     0.032 A 
ENDROOT
BRANCH   1  11
HETATM   11  N   UNL     1       5.730  27.218  53.219  1.00  0.00    -0.327 N 
HETATM   12  C   UNL     1       5.491  26.292  54.209  1.00  0.00     0.227 C 
HETATM   13  O   UNL     1       4.715  25.347  54.172  1.00  0.00    -0.273 OA
HETATM   14  H   UNL     1       6.422  27.924  53.422  1.00  0.00     0.169 HD
BRANCH  12  15
HETATM   15  C   UNL     1       6.335  26.445  55.428  1.00  0.00     0.087 A 
HETATM   16  C   UNL     1       7.465  25.476  55.738  1.00  0.00     0.032 A 
HETATM   17  C   UNL     1       6.263  25.574  56.651  1.00  0.00     0.025 A 
BRANCH  16  18
HETATM   18  C   UNL     1       7.696  24.184  54.984  1.00  0.00    -0.053 A 
HETATM   19  C   UNL     1       7.553  22.930  55.599  1.00  0.00     0.009 A 
HETATM   20  C   UNL     1       7.747  21.739  54.890  1.00  0.00     0.024 A 
HETATM   21  C   UNL     1       8.071  21.786  53.538  1.00  0.00     0.034 A 
HETATM   22  C   UNL     1       8.201  23.011  52.893  1.00  0.00     0.024 A 
HETATM   23 CL   UNL     1       8.305  20.326  52.659  1.00  0.00    -0.084 Cl
HETATM   24  C   UNL     1       8.010  24.195  53.612  1.00  0.00     0.009 A 
ENDBRANCH  16  18
ENDBRANCH  12  15
ENDBRANCH   1  11
BRANCH   8  25
HETATM   25  C   UNL     1       2.072  30.350  50.023  1.00  0.00     0.270 C 
HETATM   26  N   UNL     1       0.918  30.120  50.722  1.00  0.00    -0.365 N 
HETATM   27  H   UNL     1       0.619  29.163  50.862  1.00  0.00     0.159 HD
HETATM   28  H   UNL     1       0.387  30.899  51.077  1.00  0.00     0.159 HD
HETATM   29  O   UNL     1       2.475  31.491  49.826  1.00  0.00    -0.266 OA
ENDBRANCH   8  25
TORSDOF 4
ENDMDL
MODEL 8
REMARK VINA RESULT:      -8.4      3.763      7.611
REMARK  4 active torsions:
REMARK  status: ('A' for Active; 'I' for Inactive)
REMARK    1  A    between atoms: C_2  and  C_3 
REMARK    2  A    between atoms: C_4  and  C_5 
REMARK       I    between atoms: C_5  and  N_6 
REMARK    3  A    between atoms: N_6  and  C_7 
REMARK    4  A    between atoms: C_14  and  C_15 
REMARK       I    between atoms: C_15  and  N_16 
ROOT
HETATM    1  C   UNL     1       6.622  25.567  54.156  1.00  0.00     0.035 A 
HETATM    2  C   UNL     1       7.004  24.496  54.975  1.00  0.00     0.046 A 
HETATM    3  C   UNL     1       7.683  23.393  54.411  1.00  0.00     0.030 A 
HETATM    4  C   UNL     1       7.950  23.395  53.049  1.00  0.00     0.063 A 
HETATM    5  N   UNL     1       8.597  22.216  52.804  1.00  0.00    -0.277 N 
HETATM    6  H   UNL     1       8.941  21.879  51.912  1.00  0.00     0.189 HD
HETATM    7  N   UNL     1       8.780  21.445  53.888  1.00  0.00    -0.168 NA
HETATM    8  C   UNL     1       8.222  22.161  54.892  1.00  0.00     0.156 A 
HETATM    9  C   UNL     1       7.584  24.442  52.202  1.00  0.00     0.034 A 
HETATM   10  C   UNL     1       6.918  25.527  52.786  1.00  0.00     0.032 A 
ENDROOT
BRANCH   1  11
HETATM   11  N   UNL     1       5.948  26.714  54.628  1.00  0.00    -0.327 N 
HETATM   12  C   UNL     1       5.547  26.979  55.919  1.00  0.00     0.227 C 
HETATM   13  O   UNL     1       5.717  26.281  56.908  1.00  0.00    -0.273 OA
HETATM   14  H   UNL     1       5.735  27.418  53.938  1.00  0.00     0.169 HD
BRANCH  12  15
HETATM   15  C   UNL     1       4.893  28.304  56.112  1.00  0.00     0.087 A 
HETATM   16  C   UNL     1       5.710  29.571  56.315  1.00  0.00     0.032 A 
HETATM   17  C   UNL     1       4.808  29.051  57.413  1.00  0.00     0.025 A 
BRANCH  16  18
HETATM   18  C   UNL     1       7.204  29.579  56.550  1.00  0.00    -0.053 A 
HETATM   19  C   UNL     1       8.119  29.291  55.524  1.00  0.00     0.009 A 
HETATM   20  C   UNL     1       9.501  29.322  55.744  1.00  0.00     0.024 A 
HETATM   21  C   UNL     1       9.992  29.662  57.000  1.00  0.00     0.034 A 
HETATM   22  C   UNL     1       9.115  29.974  58.033  1.00  0.00     0.024 A 
HETATM   23 CL   UNL     1      11.689  29.708  57.275  1.00  0.00    -0.084 Cl
HETATM   24  C   UNL     1       7.735  29.935  57.804  1.00  0.00     0.009 A 
ENDBRANCH  16  18
ENDBRANCH  12  15
ENDBRANCH   1  11
BRANCH   8  25
HETATM   25  C   UNL     1       8.217  21.659  56.273  1.00  0.00     0.270 C 
HETATM   26  N   UNL     1       7.995  20.313  56.377  1.00  0.00    -0.365 N 
HETATM   27  H   UNL     1       7.853  19.777  55.529  1.00  0.00     0.159 HD
HETATM   28  H   UNL     1       7.971  19.880  57.287  1.00  0.00     0.159 HD
HETATM   29  O   UNL     1       8.394  22.349  57.270  1.00  0.00    -0.266 OA
ENDBRANCH   8  25
TORSDOF 4
ENDMDL
MODEL 9
REMARK VINA RESULT:      -8.2      2.586      3.641
REMARK  4 active torsions:
REMARK  status: ('A' for Active; 'I' for Inactive)
REMARK    1  A    between atoms: C_2  and  C_3 
REMARK    2  A    between atoms: C_4  and  C_5 
REMARK       I    between atoms: C_5  and  N_6 
REMARK    3  A    between atoms: N_6  and  C_7 
REMARK    4  A    between atoms: C_14  and  C_15 
REMARK       I    between atoms: C_15  and  N_16 
ROOT
HETATM    1  C   UNL     1       6.196  28.413  55.573  1.00  0.00     0.035 A 
HETATM    2  C   UNL     1       7.463  28.899  55.924  1.00  0.00     0.046 A 
HETATM    3  C   UNL     1       7.621  29.633  57.121  1.00  0.00     0.030 A 
HETATM    4  C   UNL     1       6.510  29.862  57.919  1.00  0.00     0.063 A 
HETATM    5  N   UNL     1       6.970  30.590  58.981  1.00  0.00    -0.277 N 
HETATM    6  H   UNL     1       6.431  30.939  59.766  1.00  0.00     0.189 HD
HETATM    7  N   UNL     1       8.286  30.853  58.948  1.00  0.00    -0.168 NA
HETATM    8  C   UNL     1       8.705  30.265  57.804  1.00  0.00     0.156 A 
HETATM    9  C   UNL     1       5.233  29.395  57.602  1.00  0.00     0.034 A 
HETATM   10  C   UNL     1       5.103  28.665  56.413  1.00  0.00     0.032 A 
ENDROOT
BRANCH   1  11
HETATM   11  N   UNL     1       5.940  27.664  54.404  1.00  0.00    -0.327 N 
HETATM   12  C   UNL     1       6.863  27.107  53.547  1.00  0.00     0.227 C 
HETATM   13  O   UNL     1       8.081  27.135  53.644  1.00  0.00    -0.273 OA
HETATM   14  H   UNL     1       4.969  27.524  54.171  1.00  0.00     0.169 HD
BRANCH  12  15
HETATM   15  C   UNL     1       6.278  26.331  52.415  1.00  0.00     0.087 A 
HETATM   16  C   UNL     1       6.153  24.817  52.472  1.00  0.00     0.032 A 
HETATM   17  C   UNL     1       7.055  25.478  51.452  1.00  0.00     0.025 A 
BRANCH  16  18
HETATM   18  C   UNL     1       6.785  23.960  53.547  1.00  0.00    -0.053 A 
HETATM   19  C   UNL     1       6.565  24.202  54.914  1.00  0.00     0.009 A 
HETATM   20  C   UNL     1       7.135  23.392  55.902  1.00  0.00     0.024 A 
HETATM   21  C   UNL     1       7.926  22.308  55.535  1.00  0.00     0.034 A 
HETATM   22  C   UNL     1       8.147  22.028  54.191  1.00  0.00     0.024 A 
HETATM   23 CL   UNL     1       8.625  21.305  56.745  1.00  0.00    -0.084 Cl
HETATM   24  C   UNL     1       7.577  22.846  53.211  1.00  0.00     0.009 A 
ENDBRANCH  16  18
ENDBRANCH  12  15
ENDBRANCH   1  11
BRANCH   8  25
HETATM   25  C   UNL     1      10.115  30.318  57.393  1.00  0.00     0.270 C 
HETATM   26  N   UNL     1      10.582  29.154  56.846  1.00  0.00    -0.365 N 
HETATM   27  H   UNL     1       9.951  28.366  56.768  1.00  0.00     0.159 HD
HETATM   28  H   UNL     1      11.540  29.097  56.538  1.00  0.00     0.159 HD
HETATM   29  O   UNL     1      10.841  31.298  57.510  1.00  0.00    -0.266 OA
ENDBRANCH   8  25
TORSDOF 4
ENDMDL
MODEL 10
REMARK VINA RESULT:      -8.1      1.580      2.066
REMARK  4 active torsions:
REMARK  status: ('A' for Active; 'I' for Inactive)
REMARK    1  A    between atoms: C_2  and  C_3 
REMARK    2  A    between atoms: C_4  and  C_5 
REMARK       I    between atoms: C_5  and  N_6 
REMARK    3  A    between atoms: N_6  and  C_7 
REMARK    4  A    between atoms: C_14  and  C_15 
REMARK       I    between atoms: C_15  and  N_16 
ROOT
HETATM    1  C   UNL     1       7.016  26.174  56.364  1.00  0.00     0.035 A 
HETATM    2  C   UNL     1       7.868  27.177  56.844  1.00  0.00     0.046 A 
HETATM    3  C   UNL     1       7.319  28.377  57.350  1.00  0.00     0.030 A 
HETATM    4  C   UNL     1       5.940  28.534  57.354  1.00  0.00     0.063 A 
HETATM    5  N   UNL     1       5.717  29.773  57.887  1.00  0.00    -0.277 N 
HETATM    6  H   UNL     1       4.822  30.224  58.039  1.00  0.00     0.189 HD
HETATM    7  N   UNL     1       6.830  30.437  58.236  1.00  0.00    -0.168 NA
HETATM    8  C   UNL     1       7.830  29.585  57.913  1.00  0.00     0.156 A 
HETATM    9  C   UNL     1       5.060  27.558  56.883  1.00  0.00     0.034 A 
HETATM   10  C   UNL     1       5.628  26.375  56.392  1.00  0.00     0.032 A 
ENDROOT
BRANCH   1  11
HETATM   11  N   UNL     1       7.469  24.941  55.847  1.00  0.00    -0.327 N 
HETATM   12  C   UNL     1       8.535  24.189  56.286  1.00  0.00     0.227 C 
HETATM   13  O   UNL     1       9.281  24.433  57.223  1.00  0.00    -0.273 OA
HETATM   14  H   UNL     1       6.951  24.572  55.063  1.00  0.00     0.169 HD
BRANCH  12  15
HETATM   15  C   UNL     1       8.737  22.903  55.559  1.00  0.00     0.087 A 
HETATM   16  C   UNL     1       8.339  22.747  54.099  1.00  0.00     0.032 A 
HETATM   17  C   UNL     1       7.648  21.940  55.177  1.00  0.00     0.025 A 
BRANCH  16  18
HETATM   18  C   UNL     1       7.530  23.771  53.333  1.00  0.00    -0.053 A 
HETATM   19  C   UNL     1       6.126  23.766  53.344  1.00  0.00     0.009 A 
HETATM   20  C   UNL     1       5.384  24.730  52.651  1.00  0.00     0.024 A 
HETATM   21  C   UNL     1       6.043  25.731  51.945  1.00  0.00     0.034 A 
HETATM   22  C   UNL     1       7.433  25.777  51.931  1.00  0.00     0.024 A 
HETATM   23 CL   UNL     1       5.138  26.922  51.096  1.00  0.00    -0.084 Cl
HETATM   24  C   UNL     1       8.165  24.807  52.622  1.00  0.00     0.009 A 
ENDBRANCH  16  18
ENDBRANCH  12  15
ENDBRANCH   1  11
BRANCH   8  25
HETATM   25  C   UNL     1       9.237  29.940  58.147  1.00  0.00     0.270 C 
HETATM   26  N   UNL     1       9.446  30.685  59.276  1.00  0.00    -0.365 N 
HETATM   27  H   UNL     1       8.648  30.933  59.848  1.00  0.00     0.159 HD
HETATM   28  H   UNL     1      10.380  30.978  59.515  1.00  0.00     0.159 HD
HETATM   29  O   UNL     1      10.171  29.616  57.422  1.00  0.00    -0.266 OA
ENDBRANCH   8  25
TORSDOF 4
ENDMDL
