MODEL 1
REMARK VINA RESULT:     -11.4      0.000      0.000
REMARK  6 active torsions:
REMARK  status: ('A' for Active; 'I' for Inactive)
REMARK    1  A    between atoms: C_8  and  C_9 
REMARK       I    between atoms: C_9  and  N_10 
REMARK    2  A    between atoms: N_10  and  N_11 
REMARK       I    between atoms: N_11  and  C_12 
REMARK    3  A    between atoms: C_12  and  C_13 
REMARK    4  A    between atoms: C_13  and  C_14 
REMARK    5  A    between atoms: C_14  and  N_15 
REMARK    6  A    between atoms: C_28  and  O_29 
ROOT
HETATM    1  N   UNL     1       7.434  29.775  57.473  1.00  0.00    -0.267 N 
HETATM    2  C   UNL     1       7.732  28.447  57.252  1.00  0.00     0.237 C 
HETATM    3  O   UNL     1       7.959  27.663  58.172  1.00  0.00    -0.272 OA
HETATM    4  H   UNL     1       7.090  30.409  56.752  1.00  0.00     0.190 HD
ENDROOT
BRANCH   1   5
HETATM    5  N   UNL     1       7.303  30.198  58.800  1.00  0.00    -0.263 N 
HETATM    6  C   UNL     1       8.089  31.243  59.236  1.00  0.00     0.272 C 
HETATM    7  O   UNL     1       8.933  31.778  58.515  1.00  0.00    -0.266 OA
HETATM    8  H   UNL     1       6.467  29.869  59.280  1.00  0.00     0.190 HD
BRANCH   6   9
HETATM    9  C   UNL     1       7.867  31.749  60.622  1.00  0.00     0.067 A 
HETATM   10  C   UNL     1       7.118  32.909  60.874  1.00  0.00     0.032 A 
HETATM   11  C   UNL     1       6.927  33.378  62.188  1.00  0.00    -0.025 A 
HETATM   12  C   UNL     1       6.189  34.544  62.447  1.00  0.00     0.012 A 
HETATM   13  C   UNL     1       7.487  32.662  63.270  1.00  0.00    -0.023 A 
HETATM   14  C   UNL     1       6.006  34.998  63.754  1.00  0.00     0.001 A 
HETATM   15  C   UNL     1       6.557  34.293  64.820  1.00  0.00     0.001 A 
HETATM   16  C   UNL     1       7.293  33.131  64.580  1.00  0.00     0.012 A 
HETATM   17  C   UNL     1       8.219  31.494  63.015  1.00  0.00     0.049 A 
HETATM   18  C   UNL     1       8.400  31.042  61.708  1.00  0.00     0.082 A 
BRANCH  18  19
HETATM   19  O   UNL     1       9.120  29.883  61.573  1.00  0.00    -0.360 OA
HETATM   20  H   UNL     1       8.506  29.174  61.279  1.00  0.00     0.217 HD
ENDBRANCH  18  19
ENDBRANCH   6   9
ENDBRANCH   1   5
BRANCH   2  21
HETATM   21  C   UNL     1       7.762  28.068  55.792  1.00  0.00     0.125 C 
BRANCH  21  22
HETATM   22  C   UNL     1       6.533  27.240  55.431  1.00  0.00     0.145 C 
BRANCH  22  23
HETATM   23  N   UNL     1       6.886  25.890  55.036  1.00  0.00    -0.279 N 
HETATM   24  C   UNL     1       6.907  24.823  55.892  1.00  0.00     0.261 A 
HETATM   25  O   UNL     1       6.636  24.787  57.077  1.00  0.00    -0.267 OA
HETATM   26  C   UNL     1       7.313  23.664  55.101  1.00  0.00     0.048 A 
HETATM   27  C   UNL     1       7.478  24.086  53.794  1.00  0.00     0.048 A 
HETATM   28  C   UNL     1       7.523  22.351  55.477  1.00  0.00     0.018 A 
HETATM   29  C   UNL     1       7.175  25.516  53.751  1.00  0.00     0.261 A 
HETATM   30  C   UNL     1       7.863  23.222  52.788  1.00  0.00     0.018 A 
HETATM   31  O   UNL     1       7.176  26.188  52.739  1.00  0.00    -0.267 OA
HETATM   32  C   UNL     1       8.086  21.888  53.144  1.00  0.00     0.001 A 
HETATM   33  C   UNL     1       7.917  21.456  54.477  1.00  0.00     0.001 A 
ENDBRANCH  22  23
ENDBRANCH  21  22
ENDBRANCH   2  21
TORSDOF 6
ENDMDL
MODEL 2
REMARK VINA RESULT:     -11.4      0.436      1.654
REMARK  6 active torsions:
REMARK  status: ('A' for Active; 'I' for Inactive)
REMARK    1  A    between atoms: C_8  and  C_9 
REMARK       I    between atoms: C_9  and  N_10 
REMARK    2  A    between atoms: N_10  and  N_11 
REMARK       I    between atoms: N_11  and  C_12 
REMARK    3  A    between atoms: C_12  and  C_13 
REMARK    4  A    between atoms: C_13  and  C_14 
REMARK    5  A    between atoms: C_14  and  N_15 
REMARK    6  A    between atoms: C_28  and  O_29 
ROOT
HETATM    1  N   UNL     1       7.675  29.625  57.481  1.00  0.00    -0.267 N 
HETATM    2  C   UNL     1       7.746  28.252  57.374  1.00  0.00     0.237 C 
HETATM    3  O   UNL     1       7.664  27.512  58.353  1.00  0.00    -0.272 OA
HETATM    4  H   UNL     1       7.583  30.254  56.684  1.00  0.00     0.190 HD
ENDROOT
BRANCH   1   5
HETATM    5  N   UNL     1       7.409  30.163  58.745  1.00  0.00    -0.263 N 
HETATM    6  C   UNL     1       8.461  30.677  59.473  1.00  0.00     0.272 C 
HETATM    7  O   UNL     1       9.626  30.630  59.072  1.00  0.00    -0.266 OA
HETATM    8  H   UNL     1       6.429  30.361  58.935  1.00  0.00     0.190 HD
BRANCH   6   9
HETATM    9  C   UNL     1       8.149  31.339  60.773  1.00  0.00     0.067 A 
HETATM   10  C   UNL     1       7.358  32.496  60.843  1.00  0.00     0.032 A 
HETATM   11  C   UNL     1       7.082  33.113  62.078  1.00  0.00    -0.025 A 
HETATM   12  C   UNL     1       6.301  34.278  62.154  1.00  0.00     0.012 A 
HETATM   13  C   UNL     1       7.599  32.551  63.267  1.00  0.00    -0.023 A 
HETATM   14  C   UNL     1       6.034  34.880  63.384  1.00  0.00     0.001 A 
HETATM   15  C   UNL     1       6.543  34.325  64.556  1.00  0.00     0.001 A 
HETATM   16  C   UNL     1       7.321  33.168  64.498  1.00  0.00     0.012 A 
HETATM   17  C   UNL     1       8.373  31.385  63.194  1.00  0.00     0.049 A 
HETATM   18  C   UNL     1       8.639  30.785  61.964  1.00  0.00     0.082 A 
BRANCH  18  19
HETATM   19  O   UNL     1       9.395  29.642  62.009  1.00  0.00    -0.360 OA
HETATM   20  H   UNL     1      10.338  29.894  61.891  1.00  0.00     0.217 HD
ENDBRANCH  18  19
ENDBRANCH   6   9
ENDBRANCH   1   5
BRANCH   2  21
HETATM   21  C   UNL     1       7.945  27.764  55.960  1.00  0.00     0.125 C 
BRANCH  21  22
HETATM   22  C   UNL     1       6.711  27.008  55.479  1.00  0.00     0.145 C 
BRANCH  22  23
HETATM   23  N   UNL     1       7.030  25.654  55.069  1.00  0.00    -0.279 N 
HETATM   24  C   UNL     1       7.380  25.304  53.794  1.00  0.00     0.261 A 
HETATM   25  O   UNL     1       7.505  26.011  52.813  1.00  0.00    -0.267 OA
HETATM   26  C   UNL     1       7.613  23.861  53.809  1.00  0.00     0.048 A 
HETATM   27  C   UNL     1       7.429  23.421  55.108  1.00  0.00     0.048 A 
HETATM   28  C   UNL     1       7.957  22.998  52.786  1.00  0.00     0.018 A 
HETATM   29  C   UNL     1       7.080  24.584  55.922  1.00  0.00     0.261 A 
HETATM   30  C   UNL     1       7.575  22.094  55.459  1.00  0.00     0.018 A 
HETATM   31  O   UNL     1       6.900  24.553  57.123  1.00  0.00    -0.267 OA
HETATM   32  C   UNL     1       7.919  21.199  54.440  1.00  0.00     0.001 A 
HETATM   33  C   UNL     1       8.109  21.647  53.116  1.00  0.00     0.001 A 
ENDBRANCH  22  23
ENDBRANCH  21  22
ENDBRANCH   2  21
TORSDOF 6
ENDMDL
MODEL 3
REMARK VINA RESULT:     -11.4      1.418     10.811
REMARK  6 active torsions:
REMARK  status: ('A' for Active; 'I' for Inactive)
REMARK    1  A    between atoms: C_8  and  C_9 
REMARK       I    between atoms: C_9  and  N_10 
REMARK    2  A    between atoms: N_10  and  N_11 
REMARK       I    between atoms: N_11  and  C_12 
REMARK    3  A    between atoms: C_12  and  C_13 
REMARK    4  A    between atoms: C_13  and  C_14 
REMARK    5  A    between atoms: C_14  and  N_15 
REMARK    6  A    between atoms: C_28  and  O_29 
ROOT
HETATM    1  N   UNL     1       6.152  27.815  56.900  1.00  0.00    -0.267 N 
HETATM    2  C   UNL     1       6.994  28.573  57.687  1.00  0.00     0.237 C 
HETATM    3  O   UNL     1       7.942  28.083  58.297  1.00  0.00    -0.272 OA
HETATM    4  H   UNL     1       5.460  28.208  56.263  1.00  0.00     0.190 HD
ENDROOT
BRANCH   1   5
HETATM    5  N   UNL     1       6.465  26.461  56.737  1.00  0.00    -0.263 N 
HETATM    6  C   UNL     1       7.198  26.086  55.631  1.00  0.00     0.272 C 
HETATM    7  O   UNL     1       7.539  26.892  54.763  1.00  0.00    -0.266 OA
HETATM    8  H   UNL     1       6.341  25.884  57.566  1.00  0.00     0.190 HD
BRANCH   6   9
HETATM    9  C   UNL     1       7.610  24.656  55.522  1.00  0.00     0.067 A 
HETATM   10  C   UNL     1       7.553  23.961  54.304  1.00  0.00     0.032 A 
HETATM   11  C   UNL     1       7.937  22.609  54.221  1.00  0.00    -0.025 A 
HETATM   12  C   UNL     1       7.872  21.904  53.009  1.00  0.00     0.012 A 
HETATM   13  C   UNL     1       8.400  21.946  55.381  1.00  0.00    -0.023 A 
HETATM   14  C   UNL     1       8.256  20.565  52.940  1.00  0.00     0.001 A 
HETATM   15  C   UNL     1       8.712  19.911  54.082  1.00  0.00     0.001 A 
HETATM   16  C   UNL     1       8.783  20.597  55.295  1.00  0.00     0.012 A 
HETATM   17  C   UNL     1       8.471  22.649  56.591  1.00  0.00     0.049 A 
HETATM   18  C   UNL     1       8.087  23.988  56.658  1.00  0.00     0.082 A 
BRANCH  18  19
HETATM   19  O   UNL     1       8.211  24.583  57.887  1.00  0.00    -0.360 OA
HETATM   20  H   UNL     1       7.997  23.912  58.574  1.00  0.00     0.217 HD
ENDBRANCH  18  19
ENDBRANCH   6   9
ENDBRANCH   1   5
BRANCH   2  21
HETATM   21  C   UNL     1       6.628  30.037  57.729  1.00  0.00     0.125 C 
BRANCH  21  22
HETATM   22  C   UNL     1       7.831  30.875  58.143  1.00  0.00     0.145 C 
BRANCH  22  23
HETATM   23  N   UNL     1       7.654  31.466  59.456  1.00  0.00    -0.279 N 
HETATM   24  C   UNL     1       6.752  32.455  59.735  1.00  0.00     0.261 A 
HETATM   25  O   UNL     1       5.953  32.993  58.994  1.00  0.00    -0.267 OA
HETATM   26  C   UNL     1       6.898  32.762  61.156  1.00  0.00     0.048 A 
HETATM   27  C   UNL     1       7.859  31.910  61.672  1.00  0.00     0.048 A 
HETATM   28  C   UNL     1       6.255  33.699  61.942  1.00  0.00     0.018 A 
HETATM   29  C   UNL     1       8.324  31.058  60.579  1.00  0.00     0.261 A 
HETATM   30  C   UNL     1       8.233  31.947  63.000  1.00  0.00     0.018 A 
HETATM   31  O   UNL     1       9.136  30.162  60.704  1.00  0.00    -0.267 OA
HETATM   32  C   UNL     1       7.599  32.890  63.816  1.00  0.00     0.001 A 
HETATM   33  C   UNL     1       6.618  33.758  63.291  1.00  0.00     0.001 A 
ENDBRANCH  22  23
ENDBRANCH  21  22
ENDBRANCH   2  21
TORSDOF 6
ENDMDL
MODEL 4
REMARK VINA RESULT:     -11.4      1.322     11.077
REMARK  6 active torsions:
REMARK  status: ('A' for Active; 'I' for Inactive)
REMARK    1  A    between atoms: C_8  and  C_9 
REMARK       I    between atoms: C_9  and  N_10 
REMARK    2  A    between atoms: N_10  and  N_11 
REMARK       I    between atoms: N_11  and  C_12 
REMARK    3  A    between atoms: C_12  and  C_13 
REMARK    4  A    between atoms: C_13  and  C_14 
REMARK    5  A    between atoms: C_14  and  N_15 
REMARK    6  A    between atoms: C_28  and  O_29 
ROOT
HETATM    1  N   UNL     1       6.639  27.918  56.457  1.00  0.00    -0.267 N 
HETATM    2  C   UNL     1       7.221  28.485  57.572  1.00  0.00     0.237 C 
HETATM    3  O   UNL     1       8.023  27.874  58.276  1.00  0.00    -0.272 OA
HETATM    4  H   UNL     1       6.098  28.441  55.769  1.00  0.00     0.190 HD
ENDROOT
BRANCH   1   5
HETATM    5  N   UNL     1       7.061  26.636  56.087  1.00  0.00    -0.263 N 
HETATM    6  C   UNL     1       6.491  26.053  54.976  1.00  0.00     0.272 C 
HETATM    7  O   UNL     1       5.591  26.599  54.334  1.00  0.00    -0.266 OA
HETATM    8  H   UNL     1       7.930  26.324  56.517  1.00  0.00     0.190 HD
BRANCH   6   9
HETATM    9  C   UNL     1       7.022  24.731  54.534  1.00  0.00     0.067 A 
HETATM   10  C   UNL     1       7.193  23.665  55.431  1.00  0.00     0.032 A 
HETATM   11  C   UNL     1       7.705  22.427  54.999  1.00  0.00    -0.025 A 
HETATM   12  C   UNL     1       7.890  21.361  55.893  1.00  0.00     0.012 A 
HETATM   13  C   UNL     1       8.039  22.251  53.636  1.00  0.00    -0.023 A 
HETATM   14  C   UNL     1       8.397  20.138  55.451  1.00  0.00     0.001 A 
HETATM   15  C   UNL     1       8.726  19.964  54.110  1.00  0.00     0.001 A 
HETATM   16  C   UNL     1       8.547  21.014  53.207  1.00  0.00     0.012 A 
HETATM   17  C   UNL     1       7.849  23.312  52.740  1.00  0.00     0.049 A 
HETATM   18  C   UNL     1       7.341  24.533  53.184  1.00  0.00     0.082 A 
BRANCH  18  19
HETATM   19  O   UNL     1       7.183  25.497  52.221  1.00  0.00    -0.360 OA
HETATM   20  H   UNL     1       6.303  25.368  51.802  1.00  0.00     0.217 HD
ENDBRANCH  18  19
ENDBRANCH   6   9
ENDBRANCH   1   5
BRANCH   2  21
HETATM   21  C   UNL     1       6.770  29.900  57.837  1.00  0.00     0.125 C 
BRANCH  21  22
HETATM   22  C   UNL     1       7.952  30.766  58.258  1.00  0.00     0.145 C 
BRANCH  22  23
HETATM   23  N   UNL     1       7.729  31.401  59.542  1.00  0.00    -0.279 N 
HETATM   24  C   UNL     1       6.809  32.391  59.757  1.00  0.00     0.261 A 
HETATM   25  O   UNL     1       6.030  32.894  58.972  1.00  0.00    -0.267 OA
HETATM   26  C   UNL     1       6.909  32.749  61.170  1.00  0.00     0.048 A 
HETATM   27  C   UNL     1       7.860  31.926  61.745  1.00  0.00     0.048 A 
HETATM   28  C   UNL     1       6.233  33.708  61.901  1.00  0.00     0.018 A 
HETATM   29  C   UNL     1       8.367  31.040  60.699  1.00  0.00     0.261 A 
HETATM   30  C   UNL     1       8.192  32.013  63.083  1.00  0.00     0.018 A 
HETATM   31  O   UNL     1       9.181  30.157  60.881  1.00  0.00    -0.267 OA
HETATM   32  C   UNL     1       7.524  32.979  63.844  1.00  0.00     0.001 A 
HETATM   33  C   UNL     1       6.553  33.818  63.258  1.00  0.00     0.001 A 
ENDBRANCH  22  23
ENDBRANCH  21  22
ENDBRANCH   2  21
TORSDOF 6
ENDMDL
MODEL 5
REMARK VINA RESULT:     -11.3      1.338     10.895
REMARK  6 active torsions:
REMARK  status: ('A' for Active; 'I' for Inactive)
REMARK    1  A    between atoms: C_8  and  C_9 
REMARK       I    between atoms: C_9  and  N_10 
REMARK    2  A    between atoms: N_10  and  N_11 
REMARK       I    between atoms: N_11  and  C_12 
REMARK    3  A    between atoms: C_12  and  C_13 
REMARK    4  A    between atoms: C_13  and  C_14 
REMARK    5  A    between atoms: C_14  and  N_15 
REMARK    6  A    between atoms: C_28  and  O_29 
ROOT
HETATM    1  N   UNL     1       6.142  27.866  56.430  1.00  0.00    -0.267 N 
HETATM    2  C   UNL     1       6.895  28.342  57.483  1.00  0.00     0.237 C 
HETATM    3  O   UNL     1       7.696  27.634  58.091  1.00  0.00    -0.272 OA
HETATM    4  H   UNL     1       5.591  28.459  55.810  1.00  0.00     0.190 HD
ENDROOT
BRANCH   1   5
HETATM    5  N   UNL     1       6.383  26.556  56.002  1.00  0.00    -0.263 N 
HETATM    6  C   UNL     1       7.151  26.366  54.873  1.00  0.00     0.272 C 
HETATM    7  O   UNL     1       7.584  27.307  54.204  1.00  0.00    -0.266 OA
HETATM    8  H   UNL     1       6.182  25.831  56.688  1.00  0.00     0.190 HD
BRANCH   6   9
HETATM    9  C   UNL     1       7.484  24.964  54.486  1.00  0.00     0.067 A 
HETATM   10  C   UNL     1       7.623  23.946  55.442  1.00  0.00     0.032 A 
HETATM   11  C   UNL     1       7.948  22.631  55.060  1.00  0.00    -0.025 A 
HETATM   12  C   UNL     1       8.100  21.610  56.012  1.00  0.00     0.012 A 
HETATM   13  C   UNL     1       8.123  22.328  53.690  1.00  0.00    -0.023 A 
HETATM   14  C   UNL     1       8.422  20.310  55.620  1.00  0.00     0.001 A 
HETATM   15  C   UNL     1       8.594  20.012  54.272  1.00  0.00     0.001 A 
HETATM   16  C   UNL     1       8.446  21.015  53.312  1.00  0.00     0.012 A 
HETATM   17  C   UNL     1       7.966  23.344  52.738  1.00  0.00     0.049 A 
HETATM   18  C   UNL     1       7.645  24.643  53.131  1.00  0.00     0.082 A 
BRANCH  18  19
HETATM   19  O   UNL     1       7.501  25.554  52.117  1.00  0.00    -0.360 OA
HETATM   20  H   UNL     1       8.280  26.153  52.132  1.00  0.00     0.217 HD
ENDBRANCH  18  19
ENDBRANCH   6   9
ENDBRANCH   1   5
BRANCH   2  21
HETATM   21  C   UNL     1       6.629  29.791  57.812  1.00  0.00     0.125 C 
BRANCH  21  22
HETATM   22  C   UNL     1       7.907  30.474  58.284  1.00  0.00     0.145 C 
BRANCH  22  23
HETATM   23  N   UNL     1       7.713  31.184  59.534  1.00  0.00    -0.279 N 
HETATM   24  C   UNL     1       8.400  30.910  60.684  1.00  0.00     0.261 A 
HETATM   25  O   UNL     1       9.270  30.083  60.877  1.00  0.00    -0.267 OA
HETATM   26  C   UNL     1       7.905  31.841  61.695  1.00  0.00     0.048 A 
HETATM   27  C   UNL     1       6.968  32.658  61.088  1.00  0.00     0.048 A 
HETATM   28  C   UNL     1       8.235  31.973  63.031  1.00  0.00     0.018 A 
HETATM   29  C   UNL     1       6.867  32.249  59.688  1.00  0.00     0.261 A 
HETATM   30  C   UNL     1       6.306  33.653  61.780  1.00  0.00     0.018 A 
HETATM   31  O   UNL     1       6.167  32.798  58.861  1.00  0.00    -0.267 OA
HETATM   32  C   UNL     1       6.620  33.805  63.135  1.00  0.00     0.001 A 
HETATM   33  C   UNL     1       7.577  32.973  63.755  1.00  0.00     0.001 A 
ENDBRANCH  22  23
ENDBRANCH  21  22
ENDBRANCH   2  21
TORSDOF 6
ENDMDL
MODEL 6
REMARK VINA RESULT:     -11.0      1.760     10.394
REMARK  6 active torsions:
REMARK  status: ('A' for Active; 'I' for Inactive)
REMARK    1  A    between atoms: C_8  and  C_9 
REMARK       I    between atoms: C_9  and  N_10 
REMARK    2  A    between atoms: N_10  and  N_11 
REMARK       I    between atoms: N_11  and  C_12 
REMARK    3  A    between atoms: C_12  and  C_13 
REMARK    4  A    between atoms: C_13  and  C_14 
REMARK    5  A    between atoms: C_14  and  N_15 
REMARK    6  A    between atoms: C_28  and  O_29 
ROOT
HETATM    1  N   UNL     1       6.290  28.512  56.163  1.00  0.00    -0.267 N 
HETATM    2  C   UNL     1       4.982  28.827  56.465  1.00  0.00     0.237 C 
HETATM    3  O   UNL     1       4.033  28.179  56.029  1.00  0.00    -0.272 OA
HETATM    4  H   UNL     1       7.098  28.926  56.627  1.00  0.00     0.190 HD
ENDROOT
BRANCH   1   5
HETATM    5  N   UNL     1       6.520  27.357  55.406  1.00  0.00    -0.263 N 
HETATM    6  C   UNL     1       7.434  26.438  55.874  1.00  0.00     0.272 C 
HETATM    7  O   UNL     1       8.089  26.624  56.902  1.00  0.00    -0.266 OA
HETATM    8  H   UNL     1       5.821  27.160  54.693  1.00  0.00     0.190 HD
BRANCH   6   9
HETATM    9  C   UNL     1       7.594  25.166  55.111  1.00  0.00     0.067 A 
HETATM   10  C   UNL     1       7.614  23.917  55.751  1.00  0.00     0.032 A 
HETATM   11  C   UNL     1       7.776  22.727  55.017  1.00  0.00    -0.025 A 
HETATM   12  C   UNL     1       7.809  21.475  55.651  1.00  0.00     0.012 A 
HETATM   13  C   UNL     1       7.908  22.791  53.610  1.00  0.00    -0.023 A 
HETATM   14  C   UNL     1       7.969  20.303  54.911  1.00  0.00     0.001 A 
HETATM   15  C   UNL     1       8.098  20.366  53.527  1.00  0.00     0.001 A 
HETATM   16  C   UNL     1       8.068  21.602  52.879  1.00  0.00     0.012 A 
HETATM   17  C   UNL     1       7.870  24.039  52.974  1.00  0.00     0.049 A 
HETATM   18  C   UNL     1       7.709  25.209  53.715  1.00  0.00     0.082 A 
BRANCH  18  19
HETATM   19  O   UNL     1       7.671  26.373  52.990  1.00  0.00    -0.360 OA
HETATM   20  H   UNL     1       7.565  27.121  53.619  1.00  0.00     0.217 HD
ENDBRANCH  18  19
ENDBRANCH   6   9
ENDBRANCH   1   5
BRANCH   2  21
HETATM   21  C   UNL     1       4.842  30.034  57.359  1.00  0.00     0.125 C 
BRANCH  21  22
HETATM   22  C   UNL     1       6.059  30.943  57.223  1.00  0.00     0.145 C 
BRANCH  22  23
HETATM   23  N   UNL     1       6.716  31.164  58.497  1.00  0.00    -0.279 N 
HETATM   24  C   UNL     1       6.369  32.153  59.375  1.00  0.00     0.261 A 
HETATM   25  O   UNL     1       5.486  32.984  59.283  1.00  0.00    -0.267 OA
HETATM   26  C   UNL     1       7.272  32.029  60.518  1.00  0.00     0.048 A 
HETATM   27  C   UNL     1       8.094  30.941  60.285  1.00  0.00     0.048 A 
HETATM   28  C   UNL     1       7.376  32.792  61.665  1.00  0.00     0.018 A 
HETATM   29  C   UNL     1       7.714  30.369  58.994  1.00  0.00     0.261 A 
HETATM   30  C   UNL     1       9.068  30.553  61.184  1.00  0.00     0.018 A 
HETATM   31  O   UNL     1       8.209  29.369  58.513  1.00  0.00    -0.267 OA
HETATM   32  C   UNL     1       9.196  31.313  62.352  1.00  0.00     0.001 A 
HETATM   33  C   UNL     1       8.357  32.422  62.591  1.00  0.00     0.001 A 
ENDBRANCH  22  23
ENDBRANCH  21  22
ENDBRANCH   2  21
TORSDOF 6
ENDMDL
MODEL 7
REMARK VINA RESULT:     -10.9      2.243     10.309
REMARK  6 active torsions:
REMARK  status: ('A' for Active; 'I' for Inactive)
REMARK    1  A    between atoms: C_8  and  C_9 
REMARK       I    between atoms: C_9  and  N_10 
REMARK    2  A    between atoms: N_10  and  N_11 
REMARK       I    between atoms: N_11  and  C_12 
REMARK    3  A    between atoms: C_12  and  C_13 
REMARK    4  A    between atoms: C_13  and  C_14 
REMARK    5  A    between atoms: C_14  and  N_15 
REMARK    6  A    between atoms: C_28  and  O_29 
ROOT
HETATM    1  N   UNL     1       5.519  29.608  58.012  1.00  0.00    -0.267 N 
HETATM    2  C   UNL     1       4.412  30.344  57.643  1.00  0.00     0.237 C 
HETATM    3  O   UNL     1       3.778  30.107  56.616  1.00  0.00    -0.272 OA
HETATM    4  H   UNL     1       5.969  29.675  58.924  1.00  0.00     0.190 HD
ENDROOT
BRANCH   1   5
HETATM    5  N   UNL     1       5.856  28.504  57.221  1.00  0.00    -0.263 N 
HETATM    6  C   UNL     1       7.079  27.901  57.423  1.00  0.00     0.272 C 
HETATM    7  O   UNL     1       7.900  28.333  58.235  1.00  0.00    -0.266 OA
HETATM    8  H   UNL     1       5.078  28.073  56.724  1.00  0.00     0.190 HD
BRANCH   6   9
HETATM    9  C   UNL     1       7.382  26.665  56.645  1.00  0.00     0.067 A 
HETATM   10  C   UNL     1       7.281  26.628  55.245  1.00  0.00     0.032 A 
HETATM   11  C   UNL     1       7.562  25.450  54.528  1.00  0.00    -0.025 A 
HETATM   12  C   UNL     1       7.451  25.402  53.129  1.00  0.00     0.012 A 
HETATM   13  C   UNL     1       7.964  24.289  55.228  1.00  0.00    -0.023 A 
HETATM   14  C   UNL     1       7.733  24.228  52.430  1.00  0.00     0.001 A 
HETATM   15  C   UNL     1       8.130  23.085  53.119  1.00  0.00     0.001 A 
HETATM   16  C   UNL     1       8.245  23.115  54.510  1.00  0.00     0.012 A 
HETATM   17  C   UNL     1       8.081  24.336  56.624  1.00  0.00     0.049 A 
HETATM   18  C   UNL     1       7.799  25.510  57.321  1.00  0.00     0.082 A 
BRANCH  18  19
HETATM   19  O   UNL     1       7.959  25.448  58.681  1.00  0.00    -0.360 OA
HETATM   20  H   UNL     1       7.457  26.192  59.082  1.00  0.00     0.217 HD
ENDBRANCH  18  19
ENDBRANCH   6   9
ENDBRANCH   1   5
BRANCH   2  21
HETATM   21  C   UNL     1       4.076  31.456  58.606  1.00  0.00     0.125 C 
BRANCH  21  22
HETATM   22  C   UNL     1       5.177  32.511  58.607  1.00  0.00     0.145 C 
BRANCH  22  23
HETATM   23  N   UNL     1       5.727  32.719  59.933  1.00  0.00    -0.279 N 
HETATM   24  C   UNL     1       6.833  32.072  60.413  1.00  0.00     0.261 A 
HETATM   25  O   UNL     1       7.545  31.259  59.857  1.00  0.00    -0.267 OA
HETATM   26  C   UNL     1       7.043  32.564  61.773  1.00  0.00     0.048 A 
HETATM   27  C   UNL     1       6.071  33.515  62.029  1.00  0.00     0.048 A 
HETATM   28  C   UNL     1       7.995  32.219  62.713  1.00  0.00     0.018 A 
HETATM   29  C   UNL     1       5.242  33.632  60.831  1.00  0.00     0.261 A 
HETATM   30  C   UNL     1       5.994  34.175  63.239  1.00  0.00     0.018 A 
HETATM   31  O   UNL     1       4.325  34.418  60.704  1.00  0.00    -0.267 OA
HETATM   32  C   UNL     1       6.944  33.840  64.210  1.00  0.00     0.001 A 
HETATM   33  C   UNL     1       7.937  32.871  63.949  1.00  0.00     0.001 A 
ENDBRANCH  22  23
ENDBRANCH  21  22
ENDBRANCH   2  21
TORSDOF 6
ENDMDL
MODEL 8
REMARK VINA RESULT:     -10.9      1.894     10.372
REMARK  6 active torsions:
REMARK  status: ('A' for Active; 'I' for Inactive)
REMARK    1  A    between atoms: C_8  and  C_9 
REMARK       I    between atoms: C_9  and  N_10 
REMARK    2  A    between atoms: N_10  and  N_11 
REMARK       I    between atoms: N_11  and  C_12 
REMARK    3  A    between atoms: C_12  and  C_13 
REMARK    4  A    between atoms: C_13  and  C_14 
REMARK    5  A    between atoms: C_14  and  N_15 
REMARK    6  A    between atoms: C_28  and  O_29 
ROOT
HETATM    1  N   UNL     1       5.636  27.795  57.009  1.00  0.00    -0.267 N 
HETATM    2  C   UNL     1       4.783  28.732  56.464  1.00  0.00     0.237 C 
HETATM    3  O   UNL     1       4.275  28.591  55.354  1.00  0.00    -0.272 OA
HETATM    4  H   UNL     1       5.948  27.804  57.980  1.00  0.00     0.190 HD
ENDROOT
BRANCH   1   5
HETATM    5  N   UNL     1       5.841  26.611  56.291  1.00  0.00    -0.263 N 
HETATM    6  C   UNL     1       7.006  26.477  55.567  1.00  0.00     0.272 C 
HETATM    7  O   UNL     1       7.842  27.380  55.489  1.00  0.00    -0.266 OA
HETATM    8  H   UNL     1       5.233  25.837  56.550  1.00  0.00     0.190 HD
BRANCH   6   9
HETATM    9  C   UNL     1       7.257  25.171  54.890  1.00  0.00     0.067 A 
HETATM   10  C   UNL     1       7.371  23.973  55.612  1.00  0.00     0.032 A 
HETATM   11  C   UNL     1       7.618  22.752  54.958  1.00  0.00    -0.025 A 
HETATM   12  C   UNL     1       7.744  21.551  55.675  1.00  0.00     0.012 A 
HETATM   13  C   UNL     1       7.741  22.730  53.549  1.00  0.00    -0.023 A 
HETATM   14  C   UNL     1       7.988  20.347  55.014  1.00  0.00     0.001 A 
HETATM   15  C   UNL     1       8.110  20.325  53.628  1.00  0.00     0.001 A 
HETATM   16  C   UNL     1       7.986  21.510  52.899  1.00  0.00     0.012 A 
HETATM   17  C   UNL     1       7.610  23.926  52.831  1.00  0.00     0.049 A 
HETATM   18  C   UNL     1       7.365  25.129  53.493  1.00  0.00     0.082 A 
BRANCH  18  19
HETATM   19  O   UNL     1       7.240  26.235  52.692  1.00  0.00    -0.360 OA
HETATM   20  H   UNL     1       6.320  26.571  52.777  1.00  0.00     0.217 HD
ENDBRANCH  18  19
ENDBRANCH   6   9
ENDBRANCH   1   5
BRANCH   2  21
HETATM   21  C   UNL     1       4.555  29.931  57.352  1.00  0.00     0.125 C 
BRANCH  21  22
HETATM   22  C   UNL     1       5.656  30.964  57.146  1.00  0.00     0.145 C 
BRANCH  22  23
HETATM   23  N   UNL     1       6.455  31.153  58.342  1.00  0.00    -0.279 N 
HETATM   24  C   UNL     1       7.548  30.394  58.660  1.00  0.00     0.261 A 
HETATM   25  O   UNL     1       8.051  29.479  58.037  1.00  0.00    -0.267 OA
HETATM   26  C   UNL     1       8.052  30.905  59.932  1.00  0.00     0.048 A 
HETATM   27  C   UNL     1       7.256  31.977  60.297  1.00  0.00     0.048 A 
HETATM   28  C   UNL     1       9.111  30.481  60.712  1.00  0.00     0.018 A 
HETATM   29  C   UNL     1       6.245  32.150  59.256  1.00  0.00     0.261 A 
HETATM   30  C   UNL     1       7.473  32.685  61.463  1.00  0.00     0.018 A 
HETATM   31  O   UNL     1       5.416  33.038  59.245  1.00  0.00    -0.267 OA
HETATM   32  C   UNL     1       8.537  32.273  62.272  1.00  0.00     0.001 A 
HETATM   33  C   UNL     1       9.350  31.181  61.899  1.00  0.00     0.001 A 
ENDBRANCH  22  23
ENDBRANCH  21  22
ENDBRANCH   2  21
TORSDOF 6
ENDMDL
MODEL 9
REMARK VINA RESULT:     -10.8      1.953     10.140
REMARK  6 active torsions:
REMARK  status: ('A' for Active; 'I' for Inactive)
REMARK    1  A    between atoms: C_8  and  C_9 
REMARK       I    between atoms: C_9  and  N_10 
REMARK    2  A    between atoms: N_10  and  N_11 
REMARK       I    between atoms: N_11  and  C_12 
REMARK    3  A    between atoms: C_12  and  C_13 
REMARK    4  A    between atoms: C_13  and  C_14 
REMARK    5  A    between atoms: C_14  and  N_15 
REMARK    6  A    between atoms: C_28  and  O_29 
ROOT
HETATM    1  N   UNL     1       5.891  28.146  57.439  1.00  0.00    -0.267 N 
HETATM    2  C   UNL     1       4.895  28.800  56.744  1.00  0.00     0.237 C 
HETATM    3  O   UNL     1       4.319  28.289  55.786  1.00  0.00    -0.272 OA
HETATM    4  H   UNL     1       6.276  28.473  58.325  1.00  0.00     0.190 HD
ENDROOT
BRANCH   1   5
HETATM    5  N   UNL     1       6.173  26.825  57.077  1.00  0.00    -0.263 N 
HETATM    6  C   UNL     1       7.275  26.583  56.284  1.00  0.00     0.272 C 
HETATM    7  O   UNL     1       7.983  27.492  55.844  1.00  0.00    -0.266 OA
HETATM    8  H   UNL     1       5.691  26.113  57.622  1.00  0.00     0.190 HD
BRANCH   6   9
HETATM    9  C   UNL     1       7.622  25.162  55.990  1.00  0.00     0.067 A 
HETATM   10  C   UNL     1       7.466  24.612  54.708  1.00  0.00     0.032 A 
HETATM   11  C   UNL     1       7.789  23.267  54.450  1.00  0.00    -0.025 A 
HETATM   12  C   UNL     1       7.625  22.707  53.174  1.00  0.00     0.012 A 
HETATM   13  C   UNL     1       8.292  22.460  55.497  1.00  0.00    -0.023 A 
HETATM   14  C   UNL     1       7.950  21.372  52.931  1.00  0.00     0.001 A 
HETATM   15  C   UNL     1       8.445  20.578  53.962  1.00  0.00     0.001 A 
HETATM   16  C   UNL     1       8.615  21.118  55.238  1.00  0.00     0.012 A 
HETATM   17  C   UNL     1       8.462  23.018  56.772  1.00  0.00     0.049 A 
HETATM   18  C   UNL     1       8.137  24.353  57.012  1.00  0.00     0.082 A 
BRANCH  18  19
HETATM   19  O   UNL     1       8.357  24.799  58.290  1.00  0.00    -0.360 OA
HETATM   20  H   UNL     1       9.056  25.489  58.256  1.00  0.00     0.217 HD
ENDBRANCH  18  19
ENDBRANCH   6   9
ENDBRANCH   1   5
BRANCH   2  21
HETATM   21  C   UNL     1       4.601  30.185  57.266  1.00  0.00     0.125 C 
BRANCH  21  22
HETATM   22  C   UNL     1       5.836  31.071  57.151  1.00  0.00     0.145 C 
BRANCH  22  23
HETATM   23  N   UNL     1       6.414  31.369  58.447  1.00  0.00    -0.279 N 
HETATM   24  C   UNL     1       7.492  30.712  58.974  1.00  0.00     0.261 A 
HETATM   25  O   UNL     1       8.155  29.818  58.487  1.00  0.00    -0.267 OA
HETATM   26  C   UNL     1       7.744  31.312  60.282  1.00  0.00     0.048 A 
HETATM   27  C   UNL     1       6.824  32.329  60.461  1.00  0.00     0.048 A 
HETATM   28  C   UNL     1       8.691  31.004  61.241  1.00  0.00     0.018 A 
HETATM   29  C   UNL     1       5.986  32.381  59.264  1.00  0.00     0.261 A 
HETATM   30  C   UNL     1       6.796  33.098  61.608  1.00  0.00     0.018 A 
HETATM   31  O   UNL     1       5.108  33.199  59.076  1.00  0.00    -0.267 OA
HETATM   32  C   UNL     1       7.742  32.804  62.596  1.00  0.00     0.001 A 
HETATM   33  C   UNL     1       8.681  31.767  62.414  1.00  0.00     0.001 A 
ENDBRANCH  22  23
ENDBRANCH  21  22
ENDBRANCH   2  21
TORSDOF 6
ENDMDL
MODEL 10
REMARK VINA RESULT:     -10.4      7.097     10.184
REMARK  6 active torsions:
REMARK  status: ('A' for Active; 'I' for Inactive)
REMARK    1  A    between atoms: C_8  and  C_9 
REMARK       I    between atoms: C_9  and  N_10 
REMARK    2  A    between atoms: N_10  and  N_11 
REMARK       I    between atoms: N_11  and  C_12 
REMARK    3  A    between atoms: C_12  and  C_13 
REMARK    4  A    between atoms: C_13  and  C_14 
REMARK    5  A    between atoms: C_14  and  N_15 
REMARK    6  A    between atoms: C_28  and  O_29 
ROOT
HETATM    1  N   UNL     1       3.808  26.946  53.089  1.00  0.00    -0.267 N 
HETATM    2  C   UNL     1       4.010  28.187  53.656  1.00  0.00     0.237 C 
HETATM    3  O   UNL     1       4.677  28.342  54.678  1.00  0.00    -0.272 OA
HETATM    4  H   UNL     1       3.398  26.802  52.166  1.00  0.00     0.190 HD
ENDROOT
BRANCH   1   5
HETATM    5  N   UNL     1       4.469  25.856  53.665  1.00  0.00    -0.263 N 
HETATM    6  C   UNL     1       5.727  25.533  53.203  1.00  0.00     0.272 C 
HETATM    7  O   UNL     1       6.263  26.138  52.272  1.00  0.00    -0.266 OA
HETATM    8  H   UNL     1       4.079  25.529  54.547  1.00  0.00     0.190 HD
BRANCH   6   9
HETATM    9  C   UNL     1       6.461  24.433  53.894  1.00  0.00     0.067 A 
HETATM   10  C   UNL     1       6.959  23.323  53.195  1.00  0.00     0.032 A 
HETATM   11  C   UNL     1       7.641  22.290  53.865  1.00  0.00    -0.025 A 
HETATM   12  C   UNL     1       8.132  21.171  53.173  1.00  0.00     0.012 A 
HETATM   13  C   UNL     1       7.837  22.378  55.262  1.00  0.00    -0.023 A 
HETATM   14  C   UNL     1       8.807  20.153  53.849  1.00  0.00     0.001 A 
HETATM   15  C   UNL     1       9.000  20.240  55.225  1.00  0.00     0.001 A 
HETATM   16  C   UNL     1       8.518  21.346  55.928  1.00  0.00     0.012 A 
HETATM   17  C   UNL     1       7.352  23.496  55.954  1.00  0.00     0.049 A 
HETATM   18  C   UNL     1       6.679  24.513  55.276  1.00  0.00     0.082 A 
BRANCH  18  19
HETATM   19  O   UNL     1       6.260  25.566  56.048  1.00  0.00    -0.360 OA
HETATM   20  H   UNL     1       6.488  26.399  55.577  1.00  0.00     0.217 HD
ENDBRANCH  18  19
ENDBRANCH   6   9
ENDBRANCH   1   5
BRANCH   2  21
HETATM   21  C   UNL     1       3.331  29.311  52.912  1.00  0.00     0.125 C 
BRANCH  21  22
HETATM   22  C   UNL     1       4.081  29.626  51.622  1.00  0.00     0.145 C 
BRANCH  22  23
HETATM   23  N   UNL     1       3.574  28.861  50.499  1.00  0.00    -0.279 N 
HETATM   24  C   UNL     1       2.291  28.946  50.033  1.00  0.00     0.261 A 
HETATM   25  O   UNL     1       1.379  29.647  50.426  1.00  0.00    -0.267 OA
HETATM   26  C   UNL     1       2.196  28.019  48.907  1.00  0.00     0.048 A 
HETATM   27  C   UNL     1       3.444  27.450  48.728  1.00  0.00     0.048 A 
HETATM   28  C   UNL     1       1.121  27.694  48.103  1.00  0.00     0.018 A 
HETATM   29  C   UNL     1       4.336  28.016  49.738  1.00  0.00     0.261 A 
HETATM   30  C   UNL     1       3.689  26.522  47.736  1.00  0.00     0.018 A 
HETATM   31  O   UNL     1       5.521  27.763  49.827  1.00  0.00    -0.267 OA
HETATM   32  C   UNL     1       2.615  26.172  46.909  1.00  0.00     0.001 A 
HETATM   33  C   UNL     1       1.343  26.754  47.091  1.00  0.00     0.001 A 
ENDBRANCH  22  23
ENDBRANCH  21  22
ENDBRANCH   2  21
TORSDOF 6
ENDMDL
