MODEL 1
REMARK VINA RESULT:      -9.9      0.000      0.000
REMARK  10 active torsions:
REMARK  status: ('A' for Active; 'I' for Inactive)
REMARK    1  A    between atoms: N_2  and  C_4 
REMARK    2  A    between atoms: C_4  and  C_5 
REMARK    3  A    between atoms: N_6  and  C_7 
REMARK    4  A    between atoms: C_11  and  N_12 
REMARK    5  A    between atoms: C_15  and  C_16 
REMARK       I    between atoms: C_16  and  N_17 
REMARK    6  A    between atoms: N_17  and  N_18 
REMARK    7  A    between atoms: C_19  and  C_20 
REMARK    8  A    between atoms: C_21  and  O_22 
REMARK    9  A    between atoms: O_22  and  C_23 
REMARK   10  A    between atoms: C_23  and  C_24 
ROOT
HETATM    1  C   UNL     1       5.262  30.051  56.325  1.00  0.00     0.293 C 
HETATM    2  N   UNL     1       6.015  29.905  55.173  1.00  0.00    -0.242 N 
HETATM    3  O   UNL     1       4.178  29.509  56.534  1.00  0.00    -0.264 OA
HETATM    4  H   UNL     1       6.950  30.299  55.101  1.00  0.00     0.192 HD
ENDROOT
BRANCH   1   5
HETATM    5  C   UNL     1       5.881  30.860  57.362  1.00  0.00     0.170 A 
HETATM    6  C   UNL     1       6.926  30.479  58.192  1.00  0.00     0.096 A 
HETATM    7  N   UNL     1       7.194  31.614  58.952  1.00  0.00    -0.215 N 
HETATM    8  N   UNL     1       6.286  32.575  58.634  1.00  0.00     0.012 NA
HETATM    9  N   UNL     1       5.515  32.140  57.651  1.00  0.00    -0.152 NA
BRANCH   6  10
HETATM   10  C   UNL     1       7.590  29.162  58.350  1.00  0.00     0.295 C 
BRANCH  10  11
HETATM   11  N   UNL     1       8.408  28.718  57.160  1.00  0.00    -0.073 N 
HETATM   12  C   UNL     1       8.459  27.224  56.984  1.00  0.00     0.269 C 
HETATM   13  H   UNL     1       7.969  29.130  56.324  1.00  0.00     0.279 HD
HETATM   14  C   UNL     1       9.799  29.291  57.218  1.00  0.00     0.269 C 
ENDBRANCH  10  11
ENDBRANCH   6  10
BRANCH   7  15
HETATM   15  C   UNL     1       8.247  31.835  59.871  1.00  0.00     0.225 A 
HETATM   16  N   UNL     1       9.368  32.438  59.467  1.00  0.00    -0.081 NA
HETATM   17  O   UNL     1      10.148  32.492  60.628  1.00  0.00    -0.103 OA
HETATM   18  N   UNL     1       9.473  31.950  61.712  1.00  0.00    -0.083 NA
HETATM   19  C   UNL     1       8.294  31.544  61.245  1.00  0.00     0.201 A 
BRANCH  19  20
HETATM   20  N   UNL     1       7.342  30.956  61.985  1.00  0.00    -0.379 N 
HETATM   21  H   UNL     1       6.359  31.105  61.772  1.00  0.00     0.158 HD
HETATM   22  H   UNL     1       7.525  30.229  62.675  1.00  0.00     0.158 HD
ENDBRANCH  19  20
ENDBRANCH   7  15
ENDBRANCH   1   5
BRANCH   2  23
HETATM   23  N   UNL     1       5.523  29.104  54.197  1.00  0.00    -0.183 NA
HETATM   24  C   UNL     1       6.232  28.091  53.827  1.00  0.00     0.153 C 
BRANCH  24  25
HETATM   25  C   UNL     1       5.736  27.179  52.782  1.00  0.00     0.016 A 
HETATM   26  C   UNL     1       5.580  25.787  52.918  1.00  0.00     0.080 A 
HETATM   27  C   UNL     1       5.125  25.054  51.813  1.00  0.00     0.037 A 
HETATM   28  C   UNL     1       4.808  25.684  50.606  1.00  0.00     0.003 A 
HETATM   29  C   UNL     1       4.968  27.059  50.479  1.00  0.00     0.001 A 
HETATM   30  C   UNL     1       5.438  27.806  51.560  1.00  0.00     0.016 A 
BRANCH  26  31
HETATM   31  O   UNL     1       5.969  24.994  53.966  1.00  0.00    -0.346 OA
BRANCH  31  32
HETATM   32  C   UNL     1       7.371  24.789  54.125  1.00  0.00     0.219 C 
BRANCH  32  33
HETATM   33  C   UNL     1       7.661  23.313  54.228  1.00  0.00     0.026 A 
HETATM   34  C   UNL     1       7.780  22.637  55.449  1.00  0.00     0.045 A 
HETATM   35 CL   UNL     1       7.598  23.447  56.964  1.00  0.00    -0.084 Cl
HETATM   36  C   UNL     1       8.074  21.267  55.481  1.00  0.00     0.024 A 
HETATM   37  C   UNL     1       8.233  20.550  54.295  1.00  0.00     0.005 A 
HETATM   38  C   UNL     1       8.102  21.203  53.075  1.00  0.00     0.043 A 
HETATM   39  C   UNL     1       7.822  22.569  53.052  1.00  0.00     0.126 A 
HETATM   40  F   UNL     1       7.745  23.176  51.858  1.00  0.00    -0.205 F 
ENDBRANCH  32  33
ENDBRANCH  31  32
ENDBRANCH  26  31
ENDBRANCH  24  25
ENDBRANCH   2  23
TORSDOF 10
ENDMDL
MODEL 2
REMARK VINA RESULT:      -9.8      2.455      3.501
REMARK  10 active torsions:
REMARK  status: ('A' for Active; 'I' for Inactive)
REMARK    1  A    between atoms: N_2  and  C_4 
REMARK    2  A    between atoms: C_4  and  C_5 
REMARK    3  A    between atoms: N_6  and  C_7 
REMARK    4  A    between atoms: C_11  and  N_12 
REMARK    5  A    between atoms: C_15  and  C_16 
REMARK       I    between atoms: C_16  and  N_17 
REMARK    6  A    between atoms: N_17  and  N_18 
REMARK    7  A    between atoms: C_19  and  C_20 
REMARK    8  A    between atoms: C_21  and  O_22 
REMARK    9  A    between atoms: O_22  and  C_23 
REMARK   10  A    between atoms: C_23  and  C_24 
ROOT
HETATM    1  C   UNL     1       7.811  29.686  58.024  1.00  0.00     0.293 C 
HETATM    2  N   UNL     1       6.847  28.698  57.925  1.00  0.00    -0.242 N 
HETATM    3  O   UNL     1       8.578  30.019  57.122  1.00  0.00    -0.264 OA
HETATM    4  H   UNL     1       6.177  28.538  58.674  1.00  0.00     0.192 HD
ENDROOT
BRANCH   1   5
HETATM    5  C   UNL     1       7.827  30.401  59.290  1.00  0.00     0.170 A 
HETATM    6  C   UNL     1       6.905  31.348  59.714  1.00  0.00     0.096 A 
HETATM    7  N   UNL     1       7.318  31.677  61.003  1.00  0.00    -0.215 N 
HETATM    8  N   UNL     1       8.474  31.015  61.272  1.00  0.00     0.012 NA
HETATM    9  N   UNL     1       8.767  30.217  60.259  1.00  0.00    -0.152 NA
BRANCH   6  10
HETATM   10  C   UNL     1       5.774  31.974  58.987  1.00  0.00     0.295 C 
BRANCH  10  11
HETATM   11  N   UNL     1       4.468  31.219  59.077  1.00  0.00    -0.073 N 
HETATM   12  C   UNL     1       3.922  30.795  57.740  1.00  0.00     0.269 C 
HETATM   13  H   UNL     1       4.647  30.375  59.639  1.00  0.00     0.279 HD
HETATM   14  C   UNL     1       3.439  32.010  59.841  1.00  0.00     0.269 C 
ENDBRANCH  10  11
ENDBRANCH   6  10
BRANCH   7  15
HETATM   15  C   UNL     1       6.671  32.500  61.955  1.00  0.00     0.225 A 
HETATM   16  N   UNL     1       7.024  33.782  62.077  1.00  0.00    -0.081 NA
HETATM   17  O   UNL     1       6.175  34.263  63.081  1.00  0.00    -0.103 OA
HETATM   18  N   UNL     1       5.309  33.273  63.522  1.00  0.00    -0.083 NA
HETATM   19  C   UNL     1       5.614  32.180  62.823  1.00  0.00     0.201 A 
BRANCH  19  20
HETATM   20  N   UNL     1       5.001  30.994  62.958  1.00  0.00    -0.379 N 
HETATM   21  H   UNL     1       4.097  30.932  63.419  1.00  0.00     0.158 HD
HETATM   22  H   UNL     1       5.303  30.141  62.492  1.00  0.00     0.158 HD
ENDBRANCH  19  20
ENDBRANCH   7  15
ENDBRANCH   1   5
BRANCH   2  23
HETATM   23  N   UNL     1       6.736  28.045  56.743  1.00  0.00    -0.183 NA
HETATM   24  C   UNL     1       5.622  27.449  56.480  1.00  0.00     0.153 C 
BRANCH  24  25
HETATM   25  C   UNL     1       5.443  26.738  55.203  1.00  0.00     0.016 A 
HETATM   26  C   UNL     1       5.815  25.405  54.950  1.00  0.00     0.080 A 
HETATM   27  C   UNL     1       5.606  24.883  53.666  1.00  0.00     0.037 A 
HETATM   28  C   UNL     1       5.020  25.654  52.658  1.00  0.00     0.003 A 
HETATM   29  C   UNL     1       4.657  26.972  52.915  1.00  0.00     0.001 A 
HETATM   30  C   UNL     1       4.875  27.517  54.180  1.00  0.00     0.016 A 
BRANCH  26  31
HETATM   31  O   UNL     1       6.520  24.558  55.765  1.00  0.00    -0.346 OA
BRANCH  31  32
HETATM   32  C   UNL     1       7.882  24.319  55.414  1.00  0.00     0.219 C 
BRANCH  32  33
HETATM   33  C   UNL     1       8.135  22.836  55.334  1.00  0.00     0.026 A 
HETATM   34  C   UNL     1       8.156  22.124  54.128  1.00  0.00     0.045 A 
HETATM   35 CL   UNL     1       7.897  22.897  52.605  1.00  0.00    -0.084 Cl
HETATM   36  C   UNL     1       8.374  20.740  54.120  1.00  0.00     0.024 A 
HETATM   37  C   UNL     1       8.592  20.050  55.313  1.00  0.00     0.005 A 
HETATM   38  C   UNL     1       8.589  20.745  56.516  1.00  0.00     0.043 A 
HETATM   39  C   UNL     1       8.360  22.120  56.517  1.00  0.00     0.126 A 
HETATM   40  F   UNL     1       8.321  22.752  57.700  1.00  0.00    -0.205 F 
ENDBRANCH  32  33
ENDBRANCH  31  32
ENDBRANCH  26  31
ENDBRANCH  24  25
ENDBRANCH   2  23
TORSDOF 10
ENDMDL
MODEL 3
REMARK VINA RESULT:      -9.7      1.621      2.578
REMARK  10 active torsions:
REMARK  status: ('A' for Active; 'I' for Inactive)
REMARK    1  A    between atoms: N_2  and  C_4 
REMARK    2  A    between atoms: C_4  and  C_5 
REMARK    3  A    between atoms: N_6  and  C_7 
REMARK    4  A    between atoms: C_11  and  N_12 
REMARK    5  A    between atoms: C_15  and  C_16 
REMARK       I    between atoms: C_16  and  N_17 
REMARK    6  A    between atoms: N_17  and  N_18 
REMARK    7  A    between atoms: C_19  and  C_20 
REMARK    8  A    between atoms: C_21  and  O_22 
REMARK    9  A    between atoms: O_22  and  C_23 
REMARK   10  A    between atoms: C_23  and  C_24 
ROOT
HETATM    1  C   UNL     1       6.768  29.456  56.725  1.00  0.00     0.293 C 
HETATM    2  N   UNL     1       6.786  28.090  56.501  1.00  0.00    -0.242 N 
HETATM    3  O   UNL     1       6.205  30.283  56.010  1.00  0.00    -0.264 OA
HETATM    4  H   UNL     1       7.183  27.449  57.183  1.00  0.00     0.192 HD
ENDROOT
BRANCH   1   5
HETATM    5  C   UNL     1       7.418  29.882  57.954  1.00  0.00     0.170 A 
HETATM    6  C   UNL     1       6.971  30.864  58.827  1.00  0.00     0.096 A 
HETATM    7  N   UNL     1       7.895  30.846  59.868  1.00  0.00    -0.215 N 
HETATM    8  N   UNL     1       8.877  29.956  59.563  1.00  0.00     0.012 NA
HETATM    9  N   UNL     1       8.577  29.345  58.429  1.00  0.00    -0.152 NA
BRANCH   6  10
HETATM   10  C   UNL     1       5.835  31.809  58.702  1.00  0.00     0.295 C 
BRANCH  10  11
HETATM   11  N   UNL     1       4.529  31.310  59.277  1.00  0.00    -0.073 N 
HETATM   12  C   UNL     1       3.554  30.831  58.236  1.00  0.00     0.269 C 
HETATM   13  H   UNL     1       4.757  30.522  59.898  1.00  0.00     0.279 HD
HETATM   14  C   UNL     1       3.894  32.354  60.156  1.00  0.00     0.269 C 
ENDBRANCH  10  11
ENDBRANCH   6  10
BRANCH   7  15
HETATM   15  C   UNL     1       7.861  31.553  61.093  1.00  0.00     0.225 A 
HETATM   16  N   UNL     1       7.388  32.802  61.128  1.00  0.00    -0.081 NA
HETATM   17  O   UNL     1       7.495  33.156  62.478  1.00  0.00    -0.103 OA
HETATM   18  N   UNL     1       7.999  32.107  63.233  1.00  0.00    -0.083 NA
HETATM   19  C   UNL     1       8.224  31.112  62.376  1.00  0.00     0.201 A 
BRANCH  19  20
HETATM   20  N   UNL     1       8.720  29.912  62.715  1.00  0.00    -0.379 N 
HETATM   21  H   UNL     1       9.562  29.559  62.267  1.00  0.00     0.158 HD
HETATM   22  H   UNL     1       8.400  29.368  63.514  1.00  0.00     0.158 HD
ENDBRANCH  19  20
ENDBRANCH   7  15
ENDBRANCH   1   5
BRANCH   2  23
HETATM   23  N   UNL     1       6.133  27.624  55.408  1.00  0.00    -0.183 NA
HETATM   24  C   UNL     1       6.837  27.237  54.398  1.00  0.00     0.153 C 
BRANCH  24  25
HETATM   25  C   UNL     1       6.177  26.707  53.192  1.00  0.00     0.016 A 
HETATM   26  C   UNL     1       5.879  25.353  52.953  1.00  0.00     0.080 A 
HETATM   27  C   UNL     1       5.276  25.007  51.735  1.00  0.00     0.037 A 
HETATM   28  C   UNL     1       4.953  25.979  50.784  1.00  0.00     0.003 A 
HETATM   29  C   UNL     1       5.254  27.314  51.028  1.00  0.00     0.001 A 
HETATM   30  C   UNL     1       5.872  27.679  52.224  1.00  0.00     0.016 A 
BRANCH  26  31
HETATM   31  O   UNL     1       6.245  24.264  53.699  1.00  0.00    -0.346 OA
BRANCH  31  32
HETATM   32  C   UNL     1       7.546  23.732  53.457  1.00  0.00     0.219 C 
BRANCH  32  33
HETATM   33  C   UNL     1       7.848  22.650  54.463  1.00  0.00     0.026 A 
HETATM   34  C   UNL     1       8.123  22.911  55.811  1.00  0.00     0.045 A 
HETATM   35 CL   UNL     1       8.135  24.516  56.449  1.00  0.00    -0.084 Cl
HETATM   36  C   UNL     1       8.420  21.864  56.694  1.00  0.00     0.024 A 
HETATM   37  C   UNL     1       8.428  20.542  56.248  1.00  0.00     0.005 A 
HETATM   38  C   UNL     1       8.141  20.266  54.916  1.00  0.00     0.043 A 
HETATM   39  C   UNL     1       7.858  21.314  54.041  1.00  0.00     0.126 A 
HETATM   40  F   UNL     1       7.629  21.015  52.754  1.00  0.00    -0.205 F 
ENDBRANCH  32  33
ENDBRANCH  31  32
ENDBRANCH  26  31
ENDBRANCH  24  25
ENDBRANCH   2  23
TORSDOF 10
ENDMDL
MODEL 4
REMARK VINA RESULT:      -9.7      2.045      2.501
REMARK  10 active torsions:
REMARK  status: ('A' for Active; 'I' for Inactive)
REMARK    1  A    between atoms: N_2  and  C_4 
REMARK    2  A    between atoms: C_4  and  C_5 
REMARK    3  A    between atoms: N_6  and  C_7 
REMARK    4  A    between atoms: C_11  and  N_12 
REMARK    5  A    between atoms: C_15  and  C_16 
REMARK       I    between atoms: C_16  and  N_17 
REMARK    6  A    between atoms: N_17  and  N_18 
REMARK    7  A    between atoms: C_19  and  C_20 
REMARK    8  A    between atoms: C_21  and  O_22 
REMARK    9  A    between atoms: O_22  and  C_23 
REMARK   10  A    between atoms: C_23  and  C_24 
ROOT
HETATM    1  C   UNL     1       4.617  30.412  56.757  1.00  0.00     0.293 C 
HETATM    2  N   UNL     1       4.110  29.137  56.576  1.00  0.00    -0.242 N 
HETATM    3  O   UNL     1       5.212  31.065  55.902  1.00  0.00    -0.264 OA
HETATM    4  H   UNL     1       3.540  28.689  57.290  1.00  0.00     0.192 HD
ENDROOT
BRANCH   1   5
HETATM    5  C   UNL     1       4.334  31.003  58.055  1.00  0.00     0.170 A 
HETATM    6  C   UNL     1       5.258  31.561  58.927  1.00  0.00     0.096 A 
HETATM    7  N   UNL     1       4.488  32.043  59.983  1.00  0.00    -0.215 N 
HETATM    8  N   UNL     1       3.191  31.699  59.768  1.00  0.00     0.012 NA
HETATM    9  N   UNL     1       3.085  31.104  58.591  1.00  0.00    -0.152 NA
BRANCH   6  10
HETATM   10  C   UNL     1       6.739  31.594  58.858  1.00  0.00     0.295 C 
BRANCH  10  11
HETATM   11  N   UNL     1       7.428  30.386  59.451  1.00  0.00    -0.073 N 
HETATM   12  C   UNL     1       8.533  30.732  60.412  1.00  0.00     0.269 C 
HETATM   13  H   UNL     1       6.710  29.851  59.958  1.00  0.00     0.279 HD
HETATM   14  C   UNL     1       7.935  29.470  58.369  1.00  0.00     0.269 C 
ENDBRANCH  10  11
ENDBRANCH   6  10
BRANCH   7  15
HETATM   15  C   UNL     1       4.897  32.819  61.093  1.00  0.00     0.225 A 
HETATM   16  N   UNL     1       5.117  34.129  60.945  1.00  0.00    -0.081 NA
HETATM   17  O   UNL     1       5.480  34.547  62.230  1.00  0.00    -0.103 OA
HETATM   18  N   UNL     1       5.443  33.494  63.131  1.00  0.00    -0.083 NA
HETATM   19  C   UNL     1       5.079  32.422  62.428  1.00  0.00     0.201 A 
BRANCH  19  20
HETATM   20  N   UNL     1       4.931  31.190  62.938  1.00  0.00    -0.379 N 
HETATM   21  H   UNL     1       4.422  31.051  63.807  1.00  0.00     0.158 HD
HETATM   22  H   UNL     1       5.164  30.334  62.438  1.00  0.00     0.158 HD
ENDBRANCH  19  20
ENDBRANCH   7  15
ENDBRANCH   1   5
BRANCH   2  23
HETATM   23  N   UNL     1       4.279  28.560  55.361  1.00  0.00    -0.183 NA
HETATM   24  C   UNL     1       5.026  27.511  55.285  1.00  0.00     0.153 C 
BRANCH  24  25
HETATM   25  C   UNL     1       5.230  26.836  53.991  1.00  0.00     0.016 A 
HETATM   26  C   UNL     1       5.836  25.580  53.812  1.00  0.00     0.080 A 
HETATM   27  C   UNL     1       5.985  25.089  52.506  1.00  0.00     0.037 A 
HETATM   28  C   UNL     1       5.523  25.812  51.404  1.00  0.00     0.003 A 
HETATM   29  C   UNL     1       4.927  27.055  51.590  1.00  0.00     0.001 A 
HETATM   30  C   UNL     1       4.787  27.571  52.878  1.00  0.00     0.016 A 
BRANCH  26  31
HETATM   31  O   UNL     1       6.466  24.805  54.751  1.00  0.00    -0.346 OA
BRANCH  31  32
HETATM   32  C   UNL     1       7.794  24.385  54.447  1.00  0.00     0.219 C 
BRANCH  32  33
HETATM   33  C   UNL     1       7.996  22.964  54.905  1.00  0.00     0.026 A 
HETATM   34  C   UNL     1       8.399  22.626  56.203  1.00  0.00     0.045 A 
HETATM   35 CL   UNL     1       8.700  23.825  57.409  1.00  0.00    -0.084 Cl
HETATM   36  C   UNL     1       8.593  21.285  56.564  1.00  0.00     0.024 A 
HETATM   37  C   UNL     1       8.367  20.264  55.641  1.00  0.00     0.005 A 
HETATM   38  C   UNL     1       7.951  20.583  54.354  1.00  0.00     0.043 A 
HETATM   39  C   UNL     1       7.772  21.919  53.999  1.00  0.00     0.126 A 
HETATM   40  F   UNL     1       7.412  22.193  52.736  1.00  0.00    -0.205 F 
ENDBRANCH  32  33
ENDBRANCH  31  32
ENDBRANCH  26  31
ENDBRANCH  24  25
ENDBRANCH   2  23
TORSDOF 10
ENDMDL
MODEL 5
REMARK VINA RESULT:      -9.1      1.542      2.059
REMARK  10 active torsions:
REMARK  status: ('A' for Active; 'I' for Inactive)
REMARK    1  A    between atoms: N_2  and  C_4 
REMARK    2  A    between atoms: C_4  and  C_5 
REMARK    3  A    between atoms: N_6  and  C_7 
REMARK    4  A    between atoms: C_11  and  N_12 
REMARK    5  A    between atoms: C_15  and  C_16 
REMARK       I    between atoms: C_16  and  N_17 
REMARK    6  A    between atoms: N_17  and  N_18 
REMARK    7  A    between atoms: C_19  and  C_20 
REMARK    8  A    between atoms: C_21  and  O_22 
REMARK    9  A    between atoms: O_22  and  C_23 
REMARK   10  A    between atoms: C_23  and  C_24 
ROOT
HETATM    1  C   UNL     1       5.350  29.618  55.979  1.00  0.00     0.293 C 
HETATM    2  N   UNL     1       6.143  29.452  54.857  1.00  0.00    -0.242 N 
HETATM    3  O   UNL     1       4.296  29.023  56.194  1.00  0.00    -0.264 OA
HETATM    4  H   UNL     1       7.054  29.899  54.784  1.00  0.00     0.192 HD
ENDROOT
BRANCH   1   5
HETATM    5  C   UNL     1       5.890  30.524  56.980  1.00  0.00     0.170 A 
HETATM    6  C   UNL     1       6.874  30.231  57.913  1.00  0.00     0.096 A 
HETATM    7  N   UNL     1       7.082  31.434  58.584  1.00  0.00    -0.215 N 
HETATM    8  N   UNL     1       6.194  32.351  58.117  1.00  0.00     0.012 NA
HETATM    9  N   UNL     1       5.497  31.821  57.125  1.00  0.00    -0.152 NA
BRANCH   6  10
HETATM   10  C   UNL     1       7.533  28.942  58.235  1.00  0.00     0.295 C 
BRANCH  10  11
HETATM   11  N   UNL     1       8.830  28.692  57.503  1.00  0.00    -0.073 N 
HETATM   12  C   UNL     1       9.227  29.811  56.577  1.00  0.00     0.269 C 
HETATM   13  H   UNL     1       9.563  28.586  58.218  1.00  0.00     0.279 HD
HETATM   14  C   UNL     1       8.788  27.383  56.761  1.00  0.00     0.269 C 
ENDBRANCH  10  11
ENDBRANCH   6  10
BRANCH   7  15
HETATM   15  C   UNL     1       8.065  31.748  59.551  1.00  0.00     0.225 A 
HETATM   16  N   UNL     1       9.214  32.315  59.173  1.00  0.00    -0.081 NA
HETATM   17  O   UNL     1       9.907  32.486  60.377  1.00  0.00    -0.103 OA
HETATM   18  N   UNL     1       9.155  32.048  61.456  1.00  0.00    -0.083 NA
HETATM   19  C   UNL     1       8.011  31.593  60.946  1.00  0.00     0.201 A 
BRANCH  19  20
HETATM   20  N   UNL     1       7.007  31.074  61.669  1.00  0.00    -0.379 N 
HETATM   21  H   UNL     1       6.071  31.008  61.277  1.00  0.00     0.158 HD
HETATM   22  H   UNL     1       7.135  30.588  62.555  1.00  0.00     0.158 HD
ENDBRANCH  19  20
ENDBRANCH   7  15
ENDBRANCH   1   5
BRANCH   2  23
HETATM   23  N   UNL     1       5.729  28.565  53.920  1.00  0.00    -0.183 NA
HETATM   24  C   UNL     1       5.648  28.966  52.696  1.00  0.00     0.153 C 
BRANCH  24  25
HETATM   25  C   UNL     1       5.219  28.037  51.636  1.00  0.00     0.016 A 
HETATM   26  C   UNL     1       5.458  26.651  51.619  1.00  0.00     0.080 A 
HETATM   27  C   UNL     1       5.010  25.909  50.516  1.00  0.00     0.037 A 
HETATM   28  C   UNL     1       4.320  26.518  49.465  1.00  0.00     0.003 A 
HETATM   29  C   UNL     1       4.090  27.890  49.489  1.00  0.00     0.001 A 
HETATM   30  C   UNL     1       4.545  28.650  50.566  1.00  0.00     0.016 A 
BRANCH  26  31
HETATM   31  O   UNL     1       6.229  25.917  52.482  1.00  0.00    -0.346 OA
BRANCH  31  32
HETATM   32  C   UNL     1       5.594  24.815  53.127  1.00  0.00     0.219 C 
BRANCH  32  33
HETATM   33  C   UNL     1       6.400  24.396  54.330  1.00  0.00     0.026 A 
HETATM   34  C   UNL     1       7.427  23.446  54.273  1.00  0.00     0.045 A 
HETATM   35 CL   UNL     1       7.868  22.664  52.797  1.00  0.00    -0.084 Cl
HETATM   36  C   UNL     1       8.126  23.080  55.431  1.00  0.00     0.024 A 
HETATM   37  C   UNL     1       7.823  23.672  56.657  1.00  0.00     0.005 A 
HETATM   38  C   UNL     1       6.818  24.629  56.727  1.00  0.00     0.043 A 
HETATM   39  C   UNL     1       6.118  24.978  55.572  1.00  0.00     0.126 A 
HETATM   40  F   UNL     1       5.125  25.873  55.684  1.00  0.00    -0.205 F 
ENDBRANCH  32  33
ENDBRANCH  31  32
ENDBRANCH  26  31
ENDBRANCH  24  25
ENDBRANCH   2  23
TORSDOF 10
ENDMDL
MODEL 6
REMARK VINA RESULT:      -9.1      3.248      4.489
REMARK  10 active torsions:
REMARK  status: ('A' for Active; 'I' for Inactive)
REMARK    1  A    between atoms: N_2  and  C_4 
REMARK    2  A    between atoms: C_4  and  C_5 
REMARK    3  A    between atoms: N_6  and  C_7 
REMARK    4  A    between atoms: C_11  and  N_12 
REMARK    5  A    between atoms: C_15  and  C_16 
REMARK       I    between atoms: C_16  and  N_17 
REMARK    6  A    between atoms: N_17  and  N_18 
REMARK    7  A    between atoms: C_19  and  C_20 
REMARK    8  A    between atoms: C_21  and  O_22 
REMARK    9  A    between atoms: O_22  and  C_23 
REMARK   10  A    between atoms: C_23  and  C_24 
ROOT
HETATM    1  C   UNL     1       5.968  31.777  58.485  1.00  0.00     0.293 C 
HETATM    2  N   UNL     1       5.965  30.407  58.295  1.00  0.00    -0.242 N 
HETATM    3  O   UNL     1       5.766  32.614  57.606  1.00  0.00    -0.264 OA
HETATM    4  H   UNL     1       6.039  29.765  59.080  1.00  0.00     0.192 HD
ENDROOT
BRANCH   1   5
HETATM    5  C   UNL     1       6.160  32.203  59.862  1.00  0.00     0.170 A 
HETATM    6  C   UNL     1       5.165  32.560  60.761  1.00  0.00     0.096 A 
HETATM    7  N   UNL     1       5.849  32.817  61.946  1.00  0.00    -0.215 N 
HETATM    8  N   UNL     1       7.183  32.700  61.714  1.00  0.00     0.012 NA
HETATM    9  N   UNL     1       7.376  32.294  60.470  1.00  0.00    -0.152 NA
BRANCH   6  10
HETATM   10  C   UNL     1       3.707  32.734  60.554  1.00  0.00     0.295 C 
BRANCH  10  11
HETATM   11  N   UNL     1       3.244  34.170  60.482  1.00  0.00    -0.073 N 
HETATM   12  C   UNL     1       1.779  34.349  60.777  1.00  0.00     0.269 C 
HETATM   13  H   UNL     1       3.784  34.695  61.184  1.00  0.00     0.279 HD
HETATM   14  C   UNL     1       3.593  34.783  59.152  1.00  0.00     0.269 C 
ENDBRANCH  10  11
ENDBRANCH   6  10
BRANCH   7  15
HETATM   15  C   UNL     1       5.320  33.098  63.229  1.00  0.00     0.225 A 
HETATM   16  N   UNL     1       3.998  33.185  63.400  1.00  0.00    -0.081 NA
HETATM   17  O   UNL     1       3.861  33.450  64.767  1.00  0.00    -0.103 OA
HETATM   18  N   UNL     1       5.096  33.489  65.397  1.00  0.00    -0.083 NA
HETATM   19  C   UNL     1       6.001  33.268  64.446  1.00  0.00     0.201 A 
BRANCH  19  20
HETATM   20  N   UNL     1       7.327  33.230  64.648  1.00  0.00    -0.379 N 
HETATM   21  H   UNL     1       7.775  33.917  65.251  1.00  0.00     0.158 HD
HETATM   22  H   UNL     1       7.926  32.459  64.360  1.00  0.00     0.158 HD
ENDBRANCH  19  20
ENDBRANCH   7  15
ENDBRANCH   1   5
BRANCH   2  23
HETATM   23  N   UNL     1       5.719  29.946  57.044  1.00  0.00    -0.183 NA
HETATM   24  C   UNL     1       5.291  28.735  56.915  1.00  0.00     0.153 C 
BRANCH  24  25
HETATM   25  C   UNL     1       4.993  28.191  55.578  1.00  0.00     0.016 A 
HETATM   26  C   UNL     1       5.361  26.914  55.116  1.00  0.00     0.080 A 
HETATM   27  C   UNL     1       5.029  26.559  53.801  1.00  0.00     0.037 A 
HETATM   28  C   UNL     1       4.328  27.435  52.968  1.00  0.00     0.003 A 
HETATM   29  C   UNL     1       3.972  28.697  53.432  1.00  0.00     0.001 A 
HETATM   30  C   UNL     1       4.309  29.079  54.730  1.00  0.00     0.016 A 
BRANCH  26  31
HETATM   31  O   UNL     1       6.161  25.991  55.736  1.00  0.00    -0.346 OA
BRANCH  31  32
HETATM   32  C   UNL     1       7.474  25.825  55.206  1.00  0.00     0.219 C 
BRANCH  32  33
HETATM   33  C   UNL     1       7.666  24.398  54.759  1.00  0.00     0.026 A 
HETATM   34  C   UNL     1       7.855  24.031  53.421  1.00  0.00     0.045 A 
HETATM   35 CL   UNL     1       7.892  25.200  52.149  1.00  0.00    -0.084 Cl
HETATM   36  C   UNL     1       8.004  22.684  53.064  1.00  0.00     0.024 A 
HETATM   37  C   UNL     1       7.986  21.687  54.039  1.00  0.00     0.005 A 
HETATM   38  C   UNL     1       7.815  22.037  55.374  1.00  0.00     0.043 A 
HETATM   39  C   UNL     1       7.655  23.378  55.719  1.00  0.00     0.126 A 
HETATM   40  F   UNL     1       7.449  23.675  57.011  1.00  0.00    -0.205 F 
ENDBRANCH  32  33
ENDBRANCH  31  32
ENDBRANCH  26  31
ENDBRANCH  24  25
ENDBRANCH   2  23
TORSDOF 10
ENDMDL
MODEL 7
REMARK VINA RESULT:      -9.1      4.657      9.154
REMARK  10 active torsions:
REMARK  status: ('A' for Active; 'I' for Inactive)
REMARK    1  A    between atoms: N_2  and  C_4 
REMARK    2  A    between atoms: C_4  and  C_5 
REMARK    3  A    between atoms: N_6  and  C_7 
REMARK    4  A    between atoms: C_11  and  N_12 
REMARK    5  A    between atoms: C_15  and  C_16 
REMARK       I    between atoms: C_16  and  N_17 
REMARK    6  A    between atoms: N_17  and  N_18 
REMARK    7  A    between atoms: C_19  and  C_20 
REMARK    8  A    between atoms: C_21  and  O_22 
REMARK    9  A    between atoms: O_22  and  C_23 
REMARK   10  A    between atoms: C_23  and  C_24 
ROOT
HETATM    1  C   UNL     1       5.136  27.928  50.832  1.00  0.00     0.293 C 
HETATM    2  N   UNL     1       5.283  26.932  51.781  1.00  0.00    -0.242 N 
HETATM    3  O   UNL     1       5.729  29.005  50.839  1.00  0.00    -0.264 OA
HETATM    4  H   UNL     1       4.840  26.023  51.666  1.00  0.00     0.192 HD
ENDROOT
BRANCH   1   5
HETATM    5  C   UNL     1       4.255  27.592  49.725  1.00  0.00     0.170 A 
HETATM    6  C   UNL     1       3.024  28.168  49.446  1.00  0.00     0.096 A 
HETATM    7  N   UNL     1       2.619  27.558  48.262  1.00  0.00    -0.215 N 
HETATM    8  N   UNL     1       3.534  26.611  47.924  1.00  0.00     0.012 NA
HETATM    9  N   UNL     1       4.541  26.652  48.781  1.00  0.00    -0.152 NA
BRANCH   6  10
HETATM   10  C   UNL     1       2.226  29.144  50.227  1.00  0.00     0.295 C 
BRANCH  10  11
HETATM   11  N   UNL     1       2.819  30.532  50.302  1.00  0.00    -0.073 N 
HETATM   12  C   UNL     1       2.957  31.056  51.706  1.00  0.00     0.269 C 
HETATM   13  H   UNL     1       3.756  30.481  49.879  1.00  0.00     0.279 HD
HETATM   14  C   UNL     1       2.038  31.498  49.451  1.00  0.00     0.269 C 
ENDBRANCH  10  11
ENDBRANCH   6  10
BRANCH   7  15
HETATM   15  C   UNL     1       1.496  27.855  47.453  1.00  0.00     0.225 A 
HETATM   16  N   UNL     1       0.405  27.086  47.520  1.00  0.00    -0.081 NA
HETATM   17  O   UNL     1      -0.475  27.687  46.613  1.00  0.00    -0.103 OA
HETATM   18  N   UNL     1       0.087  28.818  46.041  1.00  0.00    -0.083 NA
HETATM   19  C   UNL     1       1.308  28.925  46.563  1.00  0.00     0.201 A 
BRANCH  19  20
HETATM   20  N   UNL     1       2.184  29.896  46.262  1.00  0.00    -0.379 N 
HETATM   21  H   UNL     1       3.082  29.666  45.844  1.00  0.00     0.158 HD
HETATM   22  H   UNL     1       1.961  30.889  46.278  1.00  0.00     0.158 HD
ENDBRANCH  19  20
ENDBRANCH   7  15
ENDBRANCH   1   5
BRANCH   2  23
HETATM   23  N   UNL     1       6.147  27.157  52.801  1.00  0.00    -0.183 NA
HETATM   24  C   UNL     1       5.677  27.184  54.002  1.00  0.00     0.153 C 
BRANCH  24  25
HETATM   25  C   UNL     1       6.576  27.410  55.147  1.00  0.00     0.016 A 
HETATM   26  C   UNL     1       7.259  26.407  55.859  1.00  0.00     0.080 A 
HETATM   27  C   UNL     1       8.055  26.786  56.950  1.00  0.00     0.037 A 
HETATM   28  C   UNL     1       8.193  28.127  57.315  1.00  0.00     0.003 A 
HETATM   29  C   UNL     1       7.512  29.112  56.608  1.00  0.00     0.001 A 
HETATM   30  C   UNL     1       6.699  28.756  55.531  1.00  0.00     0.016 A 
BRANCH  26  31
HETATM   31  O   UNL     1       7.133  25.048  55.733  1.00  0.00    -0.346 OA
BRANCH  31  32
HETATM   32  C   UNL     1       8.331  24.282  55.843  1.00  0.00     0.219 C 
BRANCH  32  33
HETATM   33  C   UNL     1       8.179  22.989  55.083  1.00  0.00     0.026 A 
HETATM   34  C   UNL     1       8.075  22.926  53.688  1.00  0.00     0.045 A 
HETATM   35 CL   UNL     1       8.117  24.344  52.703  1.00  0.00    -0.084 Cl
HETATM   36  C   UNL     1       7.912  21.694  53.040  1.00  0.00     0.024 A 
HETATM   37  C   UNL     1       7.871  20.508  53.773  1.00  0.00     0.005 A 
HETATM   38  C   UNL     1       7.989  20.553  55.157  1.00  0.00     0.043 A 
HETATM   39  C   UNL     1       8.138  21.784  55.796  1.00  0.00     0.126 A 
HETATM   40  F   UNL     1       8.206  21.794  57.136  1.00  0.00    -0.205 F 
ENDBRANCH  32  33
ENDBRANCH  31  32
ENDBRANCH  26  31
ENDBRANCH  24  25
ENDBRANCH   2  23
TORSDOF 10
ENDMDL
MODEL 8
REMARK VINA RESULT:      -9.0      2.714      3.562
REMARK  10 active torsions:
REMARK  status: ('A' for Active; 'I' for Inactive)
REMARK    1  A    between atoms: N_2  and  C_4 
REMARK    2  A    between atoms: C_4  and  C_5 
REMARK    3  A    between atoms: N_6  and  C_7 
REMARK    4  A    between atoms: C_11  and  N_12 
REMARK    5  A    between atoms: C_15  and  C_16 
REMARK       I    between atoms: C_16  and  N_17 
REMARK    6  A    between atoms: N_17  and  N_18 
REMARK    7  A    between atoms: C_19  and  C_20 
REMARK    8  A    between atoms: C_21  and  O_22 
REMARK    9  A    between atoms: O_22  and  C_23 
REMARK   10  A    between atoms: C_23  and  C_24 
ROOT
HETATM    1  C   UNL     1       4.956  31.676  58.050  1.00  0.00     0.293 C 
HETATM    2  N   UNL     1       4.599  30.430  57.566  1.00  0.00    -0.242 N 
HETATM    3  O   UNL     1       5.562  32.536  57.413  1.00  0.00    -0.264 OA
HETATM    4  H   UNL     1       4.011  29.802  58.108  1.00  0.00     0.192 HD
ENDROOT
BRANCH   1   5
HETATM    5  C   UNL     1       4.492  31.964  59.398  1.00  0.00     0.170 A 
HETATM    6  C   UNL     1       5.280  32.315  60.485  1.00  0.00     0.096 A 
HETATM    7  N   UNL     1       4.367  32.549  61.510  1.00  0.00    -0.215 N 
HETATM    8  N   UNL     1       3.119  32.260  61.057  1.00  0.00     0.012 NA
HETATM    9  N   UNL     1       3.182  31.942  59.774  1.00  0.00    -0.152 NA
BRANCH   6  10
HETATM   10  C   UNL     1       6.756  32.364  60.620  1.00  0.00     0.295 C 
BRANCH  10  11
HETATM   11  N   UNL     1       7.400  31.055  61.014  1.00  0.00    -0.073 N 
HETATM   12  C   UNL     1       8.111  31.107  62.340  1.00  0.00     0.269 C 
HETATM   13  H   UNL     1       6.646  30.356  61.076  1.00  0.00     0.279 HD
HETATM   14  C   UNL     1       8.328  30.564  59.936  1.00  0.00     0.269 C 
ENDBRANCH  10  11
ENDBRANCH   6  10
BRANCH   7  15
HETATM   15  C   UNL     1       4.608  33.059  62.808  1.00  0.00     0.225 A 
HETATM   16  N   UNL     1       4.774  32.219  63.834  1.00  0.00    -0.081 NA
HETATM   17  O   UNL     1       5.000  33.071  64.921  1.00  0.00    -0.103 OA
HETATM   18  N   UNL     1       4.996  34.401  64.528  1.00  0.00    -0.083 NA
HETATM   19  C   UNL     1       4.755  34.395  63.217  1.00  0.00     0.201 A 
BRANCH  19  20
HETATM   20  N   UNL     1       4.666  35.494  62.454  1.00  0.00    -0.379 N 
HETATM   21  H   UNL     1       4.806  36.416  62.861  1.00  0.00     0.158 HD
HETATM   22  H   UNL     1       4.616  35.479  61.437  1.00  0.00     0.158 HD
ENDBRANCH  19  20
ENDBRANCH   7  15
ENDBRANCH   1   5
BRANCH   2  23
HETATM   23  N   UNL     1       4.940  30.131  56.289  1.00  0.00    -0.183 NA
HETATM   24  C   UNL     1       4.972  28.888  55.943  1.00  0.00     0.153 C 
BRANCH  24  25
HETATM   25  C   UNL     1       5.322  28.509  54.563  1.00  0.00     0.016 A 
HETATM   26  C   UNL     1       6.185  27.460  54.198  1.00  0.00     0.080 A 
HETATM   27  C   UNL     1       6.441  27.248  52.836  1.00  0.00     0.037 A 
HETATM   28  C   UNL     1       5.839  28.040  51.854  1.00  0.00     0.003 A 
HETATM   29  C   UNL     1       4.989  29.077  52.224  1.00  0.00     0.001 A 
HETATM   30  C   UNL     1       4.736  29.317  53.574  1.00  0.00     0.016 A 
BRANCH  26  31
HETATM   31  O   UNL     1       6.962  26.683  55.017  1.00  0.00    -0.346 OA
BRANCH  31  32
HETATM   32  C   UNL     1       6.402  25.442  55.441  1.00  0.00     0.219 C 
BRANCH  32  33
HETATM   33  C   UNL     1       7.256  24.303  54.947  1.00  0.00     0.026 A 
HETATM   34  C   UNL     1       8.371  23.821  55.644  1.00  0.00     0.045 A 
HETATM   35 CL   UNL     1       8.867  24.496  57.155  1.00  0.00    -0.084 Cl
HETATM   36  C   UNL     1       9.142  22.773  55.122  1.00  0.00     0.024 A 
HETATM   37  C   UNL     1       8.798  22.179  53.907  1.00  0.00     0.005 A 
HETATM   38  C   UNL     1       7.685  22.637  53.211  1.00  0.00     0.043 A 
HETATM   39  C   UNL     1       6.931  23.687  53.732  1.00  0.00     0.126 A 
HETATM   40  F   UNL     1       5.890  24.132  53.012  1.00  0.00    -0.205 F 
ENDBRANCH  32  33
ENDBRANCH  31  32
ENDBRANCH  26  31
ENDBRANCH  24  25
ENDBRANCH   2  23
TORSDOF 10
ENDMDL
MODEL 9
REMARK VINA RESULT:      -8.9      2.784      4.837
REMARK  10 active torsions:
REMARK  status: ('A' for Active; 'I' for Inactive)
REMARK    1  A    between atoms: N_2  and  C_4 
REMARK    2  A    between atoms: C_4  and  C_5 
REMARK    3  A    between atoms: N_6  and  C_7 
REMARK    4  A    between atoms: C_11  and  N_12 
REMARK    5  A    between atoms: C_15  and  C_16 
REMARK       I    between atoms: C_16  and  N_17 
REMARK    6  A    between atoms: N_17  and  N_18 
REMARK    7  A    between atoms: C_19  and  C_20 
REMARK    8  A    between atoms: C_21  and  O_22 
REMARK    9  A    between atoms: O_22  and  C_23 
REMARK   10  A    between atoms: C_23  and  C_24 
ROOT
HETATM    1  C   UNL     1       4.916  29.604  56.372  1.00  0.00     0.293 C 
HETATM    2  N   UNL     1       4.850  28.246  56.628  1.00  0.00    -0.242 N 
HETATM    3  O   UNL     1       5.233  30.107  55.296  1.00  0.00    -0.264 OA
HETATM    4  H   UNL     1       4.484  27.892  57.508  1.00  0.00     0.192 HD
ENDROOT
BRANCH   1   5
HETATM    5  C   UNL     1       4.498  30.455  57.475  1.00  0.00     0.170 A 
HETATM    6  C   UNL     1       5.324  31.215  58.290  1.00  0.00     0.096 A 
HETATM    7  N   UNL     1       4.447  31.891  59.134  1.00  0.00    -0.215 N 
HETATM    8  N   UNL     1       3.181  31.471  58.874  1.00  0.00     0.012 NA
HETATM    9  N   UNL     1       3.200  30.632  57.851  1.00  0.00    -0.152 NA
BRANCH   6  10
HETATM   10  C   UNL     1       6.805  31.276  58.360  1.00  0.00     0.295 C 
BRANCH  10  11
HETATM   11  N   UNL     1       7.448  30.155  59.142  1.00  0.00    -0.073 N 
HETATM   12  C   UNL     1       8.507  30.620  60.106  1.00  0.00     0.269 C 
HETATM   13  H   UNL     1       6.699  29.694  59.678  1.00  0.00     0.279 HD
HETATM   14  C   UNL     1       8.000  29.101  58.219  1.00  0.00     0.269 C 
ENDBRANCH  10  11
ENDBRANCH   6  10
BRANCH   7  15
HETATM   15  C   UNL     1       4.736  32.902  60.082  1.00  0.00     0.225 A 
HETATM   16  N   UNL     1       4.472  34.180  59.794  1.00  0.00    -0.081 NA
HETATM   17  O   UNL     1       4.866  34.864  60.949  1.00  0.00    -0.103 OA
HETATM   18  N   UNL     1       5.329  33.987  61.919  1.00  0.00    -0.083 NA
HETATM   19  C   UNL     1       5.246  32.770  61.384  1.00  0.00     0.201 A 
BRANCH  19  20
HETATM   20  N   UNL     1       5.606  31.638  62.006  1.00  0.00    -0.379 N 
HETATM   21  H   UNL     1       6.573  31.487  62.283  1.00  0.00     0.158 HD
HETATM   22  H   UNL     1       4.945  30.954  62.372  1.00  0.00     0.158 HD
ENDBRANCH  19  20
ENDBRANCH   7  15
ENDBRANCH   1   5
BRANCH   2  23
HETATM   23  N   UNL     1       5.158  27.400  55.615  1.00  0.00    -0.183 NA
HETATM   24  C   UNL     1       6.368  26.958  55.538  1.00  0.00     0.153 C 
BRANCH  24  25
HETATM   25  C   UNL     1       6.752  26.024  54.465  1.00  0.00     0.016 A 
HETATM   26  C   UNL     1       6.775  26.322  53.091  1.00  0.00     0.080 A 
HETATM   27  C   UNL     1       7.133  25.307  52.192  1.00  0.00     0.037 A 
HETATM   28  C   UNL     1       7.485  24.032  52.642  1.00  0.00     0.003 A 
HETATM   29  C   UNL     1       7.457  23.744  54.003  1.00  0.00     0.001 A 
HETATM   30  C   UNL     1       7.084  24.733  54.912  1.00  0.00     0.016 A 
BRANCH  26  31
HETATM   31  O   UNL     1       6.332  27.459  52.468  1.00  0.00    -0.346 OA
BRANCH  31  32
HETATM   32  C   UNL     1       4.991  27.441  51.982  1.00  0.00     0.219 C 
BRANCH  32  33
HETATM   33  C   UNL     1       4.993  27.560  50.479  1.00  0.00     0.026 A 
HETATM   34  C   UNL     1       5.279  28.752  49.803  1.00  0.00     0.045 A 
HETATM   35 CL   UNL     1       5.666  30.211  50.645  1.00  0.00    -0.084 Cl
HETATM   36  C   UNL     1       5.242  28.806  48.403  1.00  0.00     0.024 A 
HETATM   37  C   UNL     1       4.939  27.666  47.659  1.00  0.00     0.005 A 
HETATM   38  C   UNL     1       4.668  26.471  48.315  1.00  0.00     0.043 A 
HETATM   39  C   UNL     1       4.695  26.429  49.708  1.00  0.00     0.126 A 
HETATM   40  F   UNL     1       4.386  25.270  50.309  1.00  0.00    -0.205 F 
ENDBRANCH  32  33
ENDBRANCH  31  32
ENDBRANCH  26  31
ENDBRANCH  24  25
ENDBRANCH   2  23
TORSDOF 10
ENDMDL
MODEL 10
REMARK VINA RESULT:      -8.7      5.379     11.052
REMARK  10 active torsions:
REMARK  status: ('A' for Active; 'I' for Inactive)
REMARK    1  A    between atoms: N_2  and  C_4 
REMARK    2  A    between atoms: C_4  and  C_5 
REMARK    3  A    between atoms: N_6  and  C_7 
REMARK    4  A    between atoms: C_11  and  N_12 
REMARK    5  A    between atoms: C_15  and  C_16 
REMARK       I    between atoms: C_16  and  N_17 
REMARK    6  A    between atoms: N_17  and  N_18 
REMARK    7  A    between atoms: C_19  and  C_20 
REMARK    8  A    between atoms: C_21  and  O_22 
REMARK    9  A    between atoms: O_22  and  C_23 
REMARK   10  A    between atoms: C_23  and  C_24 
ROOT
HETATM    1  C   UNL     1       6.120  31.917  58.939  1.00  0.00     0.293 C 
HETATM    2  N   UNL     1       5.143  31.949  59.919  1.00  0.00    -0.242 N 
HETATM    3  O   UNL     1       7.219  32.464  59.018  1.00  0.00    -0.264 OA
HETATM    4  H   UNL     1       4.295  31.393  59.836  1.00  0.00     0.192 HD
ENDROOT
BRANCH   1   5
HETATM    5  C   UNL     1       5.797  31.101  57.780  1.00  0.00     0.170 A 
HETATM    6  C   UNL     1       6.468  29.960  57.362  1.00  0.00     0.096 A 
HETATM    7  N   UNL     1       5.739  29.517  56.261  1.00  0.00    -0.215 N 
HETATM    8  N   UNL     1       4.748  30.411  56.006  1.00  0.00     0.012 NA
HETATM    9  N   UNL     1       4.754  31.349  56.939  1.00  0.00    -0.152 NA
BRANCH   6  10
HETATM   10  C   UNL     1       7.722  29.349  57.866  1.00  0.00     0.295 C 
BRANCH  10  11
HETATM   11  N   UNL     1       8.982  30.103  57.509  1.00  0.00    -0.073 N 
HETATM   12  C   UNL     1       9.857  29.384  56.518  1.00  0.00     0.269 C 
HETATM   13  H   UNL     1       8.688  30.999  57.096  1.00  0.00     0.279 HD
HETATM   14  C   UNL     1       9.765  30.459  58.745  1.00  0.00     0.269 C 
ENDBRANCH  10  11
ENDBRANCH   6  10
BRANCH   7  15
HETATM   15  C   UNL     1       5.897  28.322  55.519  1.00  0.00     0.225 A 
HETATM   16  N   UNL     1       6.720  28.296  54.467  1.00  0.00    -0.081 NA
HETATM   17  O   UNL     1       6.628  26.975  54.012  1.00  0.00    -0.103 OA
HETATM   18  N   UNL     1       5.779  26.226  54.813  1.00  0.00    -0.083 NA
HETATM   19  C   UNL     1       5.327  27.059  55.749  1.00  0.00     0.201 A 
BRANCH  19  20
HETATM   20  N   UNL     1       4.470  26.718  56.723  1.00  0.00    -0.379 N 
HETATM   21  H   UNL     1       4.807  26.538  57.666  1.00  0.00     0.158 HD
HETATM   22  H   UNL     1       3.457  26.769  56.634  1.00  0.00     0.158 HD
ENDBRANCH  19  20
ENDBRANCH   7  15
ENDBRANCH   1   5
BRANCH   2  23
HETATM   23  N   UNL     1       5.414  32.635  61.056  1.00  0.00    -0.183 NA
HETATM   24  C   UNL     1       5.551  31.967  62.151  1.00  0.00     0.153 C 
BRANCH  24  25
HETATM   25  C   UNL     1       5.862  32.662  63.412  1.00  0.00     0.016 A 
HETATM   26  C   UNL     1       4.923  33.280  64.258  1.00  0.00     0.080 A 
HETATM   27  C   UNL     1       5.387  33.931  65.410  1.00  0.00     0.037 A 
HETATM   28  C   UNL     1       6.747  33.952  65.732  1.00  0.00     0.003 A 
HETATM   29  C   UNL     1       7.669  33.342  64.889  1.00  0.00     0.001 A 
HETATM   30  C   UNL     1       7.231  32.705  63.728  1.00  0.00     0.016 A 
BRANCH  26  31
HETATM   31  O   UNL     1       3.586  33.477  64.032  1.00  0.00    -0.346 OA
BRANCH  31  32
HETATM   32  C   UNL     1       3.152  34.829  63.905  1.00  0.00     0.219 C 
BRANCH  32  33
HETATM   33  C   UNL     1       3.033  35.190  62.446  1.00  0.00     0.026 A 
HETATM   34  C   UNL     1       4.070  35.780  61.714  1.00  0.00     0.045 A 
HETATM   35 CL   UNL     1       5.601  36.145  62.428  1.00  0.00    -0.084 Cl
HETATM   36  C   UNL     1       3.892  36.115  60.365  1.00  0.00     0.024 A 
HETATM   37  C   UNL     1       2.682  35.848  59.723  1.00  0.00     0.005 A 
HETATM   38  C   UNL     1       1.648  35.248  60.433  1.00  0.00     0.043 A 
HETATM   39  C   UNL     1       1.830  34.930  61.778  1.00  0.00     0.126 A 
HETATM   40  F   UNL     1       0.796  34.392  62.443  1.00  0.00    -0.205 F 
ENDBRANCH  32  33
ENDBRANCH  31  32
ENDBRANCH  26  31
ENDBRANCH  24  25
ENDBRANCH   2  23
TORSDOF 10
ENDMDL
