MODEL 1
REMARK VINA RESULT:     -11.7      0.000      0.000
REMARK  6 active torsions:
REMARK  status: ('A' for Active; 'I' for Inactive)
REMARK    1  A    between atoms: C_6  and  O_7 
REMARK    2  A    between atoms: C_6  and  C_8 
REMARK    3  A    between atoms: C_8  and  N_9 
REMARK       I    between atoms: N_9  and  C_10 
REMARK    4  A    between atoms: C_10  and  C_11 
REMARK       I    between atoms: C_11  and  N_12 
REMARK    5  A    between atoms: N_12  and  C_13 
REMARK       I    between atoms: N_17  and  C_18 
REMARK    6  A    between atoms: C_18  and  C_19 
ROOT
HETATM    1  C   UNL     1       6.751  29.397  57.129  1.00  0.00     0.313 C 
HETATM    2  N   UNL     1       7.514  30.379  57.725  1.00  0.00    -0.319 N 
HETATM    3  O   UNL     1       5.624  29.015  57.417  1.00  0.00    -0.262 OA
HETATM    4  H   UNL     1       8.401  30.568  57.266  1.00  0.00     0.169 HD
ENDROOT
BRANCH   1   5
HETATM    5  C   UNL     1       7.475  28.716  55.947  1.00  0.00     0.309 C 
HETATM    6  N   UNL     1       6.751  27.692  55.394  1.00  0.00    -0.350 N 
HETATM    7  H   UNL     1       5.795  27.568  55.731  1.00  0.00     0.163 HD
HETATM    8  O   UNL     1       8.589  29.086  55.605  1.00  0.00    -0.262 OA
BRANCH   6   9
HETATM    9  C   UNL     1       7.210  26.854  54.306  1.00  0.00     0.161 C 
BRANCH   9  10
HETATM   10  C   UNL     1       7.049  25.356  54.655  1.00  0.00     0.078 C 
HETATM   11  C   UNL     1       7.573  24.484  53.495  1.00  0.00     0.078 C 
HETATM   12  C   UNL     1       7.762  23.026  53.850  1.00  0.00    -0.049 A 
HETATM   13  C   UNL     1       7.802  22.591  55.185  1.00  0.00    -0.052 A 
HETATM   14  C   UNL     1       7.949  22.092  52.819  1.00  0.00     0.007 A 
HETATM   15  C   UNL     1       7.989  21.228  55.463  1.00  0.00     0.007 A 
HETATM   16  C   UNL     1       7.584  23.543  56.333  1.00  0.00     0.042 C 
HETATM   17  C   UNL     1       8.162  20.309  54.430  1.00  0.00     0.001 A 
HETATM   18  C   UNL     1       8.146  20.742  53.108  1.00  0.00     0.001 A 
HETATM   19  C   UNL     1       7.800  25.005  55.949  1.00  0.00     0.044 C 
BRANCH  10  20
HETATM   20  O   UNL     1       5.646  25.114  54.873  1.00  0.00    -0.388 OA
HETATM   21  H   UNL     1       5.552  24.518  55.637  1.00  0.00     0.210 HD
ENDBRANCH  10  20
ENDBRANCH   9  10
ENDBRANCH   6   9
ENDBRANCH   1   5
BRANCH   2  22
HETATM   22  C   UNL     1       7.202  31.105  58.887  1.00  0.00     0.035 A 
HETATM   23  C   UNL     1       7.869  30.943  60.098  1.00  0.00     0.039 A 
HETATM   24  C   UNL     1       7.546  31.728  61.223  1.00  0.00    -0.029 A 
HETATM   25  C   UNL     1       6.508  32.681  61.162  1.00  0.00     0.043 A 
HETATM   26  C   UNL     1       8.335  31.483  62.482  1.00  0.00     0.042 C 
HETATM   27  N   UNL     1       6.148  33.437  62.338  1.00  0.00    -0.313 N 
HETATM   28  C   UNL     1       5.835  32.816  59.939  1.00  0.00     0.032 A 
HETATM   29  C   UNL     1       5.229  34.516  62.310  1.00  0.00     0.265 C 
HETATM   30  C   UNL     1       6.823  33.081  63.593  1.00  0.00     0.133 C 
HETATM   31  O   UNL     1       4.973  35.153  61.289  1.00  0.00    -0.267 OA
HETATM   32  C   UNL     1       8.275  32.690  63.393  1.00  0.00     0.025 C 
HETATM   33  C   UNL     1       6.185  32.053  58.815  1.00  0.00     0.032 A 
BRANCH  29  34
HETATM   34  C   UNL     1       4.579  34.856  63.575  1.00  0.00     0.073 A 
HETATM   35  S   UNL     1       5.004  36.314  64.371  1.00  0.00    -0.097 SA
HETATM   36  C   UNL     1       3.923  36.004  65.658  1.00  0.00     0.050 A 
HETATM   37  C   UNL     1       3.224  34.832  65.477  1.00  0.00     0.009 A 
HETATM   38  C   UNL     1       3.591  34.175  64.266  1.00  0.00     0.025 A 
ENDBRANCH  29  34
ENDBRANCH   2  22
TORSDOF 6
ENDMDL
MODEL 2
REMARK VINA RESULT:     -11.4      1.431      1.724
REMARK  6 active torsions:
REMARK  status: ('A' for Active; 'I' for Inactive)
REMARK    1  A    between atoms: C_6  and  O_7 
REMARK    2  A    between atoms: C_6  and  C_8 
REMARK    3  A    between atoms: C_8  and  N_9 
REMARK       I    between atoms: N_9  and  C_10 
REMARK    4  A    between atoms: C_10  and  C_11 
REMARK       I    between atoms: C_11  and  N_12 
REMARK    5  A    between atoms: N_12  and  C_13 
REMARK       I    between atoms: N_17  and  C_18 
REMARK    6  A    between atoms: C_18  and  C_19 
ROOT
HETATM    1  C   UNL     1       5.550  29.332  56.210  1.00  0.00     0.313 C 
HETATM    2  N   UNL     1       6.717  29.853  56.727  1.00  0.00    -0.319 N 
HETATM    3  O   UNL     1       4.418  29.369  56.673  1.00  0.00    -0.262 OA
HETATM    4  H   UNL     1       7.531  29.757  56.125  1.00  0.00     0.169 HD
ENDROOT
BRANCH   1   5
HETATM    5  C   UNL     1       5.767  28.607  54.864  1.00  0.00     0.309 C 
HETATM    6  N   UNL     1       6.606  27.527  54.967  1.00  0.00    -0.350 N 
HETATM    7  H   UNL     1       6.894  27.255  55.908  1.00  0.00     0.163 HD
HETATM    8  O   UNL     1       5.234  29.018  53.844  1.00  0.00    -0.262 OA
BRANCH   6   9
HETATM    9  C   UNL     1       7.018  26.697  53.855  1.00  0.00     0.161 C 
BRANCH   9  10
HETATM   10  C   UNL     1       6.879  25.196  54.203  1.00  0.00     0.078 C 
HETATM   11  C   UNL     1       7.651  24.341  53.177  1.00  0.00     0.078 C 
HETATM   12  C   UNL     1       7.852  22.901  53.593  1.00  0.00    -0.049 A 
HETATM   13  C   UNL     1       7.674  22.486  54.924  1.00  0.00    -0.052 A 
HETATM   14  C   UNL     1       8.273  21.967  52.634  1.00  0.00     0.007 A 
HETATM   15  C   UNL     1       7.881  21.140  55.261  1.00  0.00     0.007 A 
HETATM   16  C   UNL     1       7.200  23.438  55.992  1.00  0.00     0.042 C 
HETATM   17  C   UNL     1       8.289  20.219  54.297  1.00  0.00     0.001 A 
HETATM   18  C   UNL     1       8.488  20.634  52.984  1.00  0.00     0.001 A 
HETATM   19  C   UNL     1       7.401  24.905  55.619  1.00  0.00     0.044 C 
BRANCH  10  20
HETATM   20  O   UNL     1       5.475  24.876  54.172  1.00  0.00    -0.388 OA
HETATM   21  H   UNL     1       5.363  23.956  54.470  1.00  0.00     0.210 HD
ENDBRANCH  10  20
ENDBRANCH   9  10
ENDBRANCH   6   9
ENDBRANCH   1   5
BRANCH   2  22
HETATM   22  C   UNL     1       6.889  30.466  57.979  1.00  0.00     0.035 A 
HETATM   23  C   UNL     1       7.993  30.244  58.800  1.00  0.00     0.039 A 
HETATM   24  C   UNL     1       8.139  30.918  60.029  1.00  0.00    -0.029 A 
HETATM   25  C   UNL     1       7.148  31.815  60.481  1.00  0.00     0.043 A 
HETATM   26  C   UNL     1       9.375  30.617  60.835  1.00  0.00     0.042 C 
HETATM   27  N   UNL     1       7.282  32.454  61.769  1.00  0.00    -0.313 N 
HETATM   28  C   UNL     1       6.035  32.010  59.650  1.00  0.00     0.032 A 
HETATM   29  C   UNL     1       6.410  33.479  62.215  1.00  0.00     0.265 C 
HETATM   30  C   UNL     1       8.414  32.036  62.607  1.00  0.00     0.133 C 
HETATM   31  O   UNL     1       5.752  34.181  61.448  1.00  0.00    -0.267 OA
HETATM   32  C   UNL     1       9.667  31.743  61.804  1.00  0.00     0.025 C 
HETATM   33  C   UNL     1       5.914  31.359  58.413  1.00  0.00     0.032 A 
BRANCH  29  34
HETATM   34  C   UNL     1       6.323  33.680  63.661  1.00  0.00     0.073 A 
HETATM   35  S   UNL     1       4.787  33.643  64.421  1.00  0.00    -0.097 SA
HETATM   36  C   UNL     1       5.467  33.945  65.960  1.00  0.00     0.050 A 
HETATM   37  C   UNL     1       6.840  34.039  65.910  1.00  0.00     0.009 A 
HETATM   38  C   UNL     1       7.337  33.872  64.584  1.00  0.00     0.025 A 
ENDBRANCH  29  34
ENDBRANCH   2  22
TORSDOF 6
ENDMDL
MODEL 3
REMARK VINA RESULT:     -11.0      3.724     12.197
REMARK  6 active torsions:
REMARK  status: ('A' for Active; 'I' for Inactive)
REMARK    1  A    between atoms: C_6  and  O_7 
REMARK    2  A    between atoms: C_6  and  C_8 
REMARK    3  A    between atoms: C_8  and  N_9 
REMARK       I    between atoms: N_9  and  C_10 
REMARK    4  A    between atoms: C_10  and  C_11 
REMARK       I    between atoms: C_11  and  N_12 
REMARK    5  A    between atoms: N_12  and  C_13 
REMARK       I    between atoms: N_17  and  C_18 
REMARK    6  A    between atoms: C_18  and  C_19 
ROOT
HETATM    1  C   UNL     1       4.842  29.940  57.371  1.00  0.00     0.313 C 
HETATM    2  N   UNL     1       4.291  28.942  56.596  1.00  0.00    -0.319 N 
HETATM    3  O   UNL     1       6.017  30.142  57.647  1.00  0.00    -0.262 OA
HETATM    4  H   UNL     1       3.287  29.017  56.452  1.00  0.00     0.169 HD
ENDROOT
BRANCH   1   5
HETATM    5  C   UNL     1       3.778  30.898  57.951  1.00  0.00     0.309 C 
HETATM    6  N   UNL     1       4.082  31.333  59.215  1.00  0.00    -0.350 N 
HETATM    7  H   UNL     1       5.001  31.081  59.582  1.00  0.00     0.163 HD
HETATM    8  O   UNL     1       2.780  31.182  57.305  1.00  0.00    -0.262 OA
BRANCH   6   9
HETATM    9  C   UNL     1       3.239  32.200  60.012  1.00  0.00     0.161 C 
BRANCH   9  10
HETATM   10  C   UNL     1       3.775  32.317  61.458  1.00  0.00     0.078 C 
HETATM   11  C   UNL     1       5.316  32.397  61.445  1.00  0.00     0.078 C 
HETATM   12  C   UNL     1       5.927  32.831  62.759  1.00  0.00    -0.049 A 
HETATM   13  C   UNL     1       5.158  33.445  63.763  1.00  0.00    -0.052 A 
HETATM   14  C   UNL     1       7.305  32.661  62.960  1.00  0.00     0.007 A 
HETATM   15  C   UNL     1       5.773  33.839  64.961  1.00  0.00     0.007 A 
HETATM   16  C   UNL     1       3.670  33.632  63.614  1.00  0.00     0.042 C 
HETATM   17  C   UNL     1       7.141  33.653  65.153  1.00  0.00     0.001 A 
HETATM   18  C   UNL     1       7.907  33.068  64.150  1.00  0.00     0.001 A 
HETATM   19  C   UNL     1       3.198  33.554  62.164  1.00  0.00     0.044 C 
BRANCH  10  20
HETATM   20  O   UNL     1       3.336  31.148  62.175  1.00  0.00    -0.388 OA
HETATM   21  H   UNL     1       2.411  31.283  62.446  1.00  0.00     0.210 HD
ENDBRANCH  10  20
ENDBRANCH   9  10
ENDBRANCH   6   9
ENDBRANCH   1   5
BRANCH   2  22
HETATM   22  C   UNL     1       4.961  27.849  56.021  1.00  0.00     0.035 A 
HETATM   23  C   UNL     1       4.887  27.525  54.668  1.00  0.00     0.039 A 
HETATM   24  C   UNL     1       5.614  26.443  54.133  1.00  0.00    -0.029 A 
HETATM   25  C   UNL     1       6.414  25.632  54.964  1.00  0.00     0.043 A 
HETATM   26  C   UNL     1       5.475  26.185  52.655  1.00  0.00     0.042 C 
HETATM   27  N   UNL     1       7.107  24.491  54.413  1.00  0.00    -0.313 N 
HETATM   28  C   UNL     1       6.461  25.961  56.326  1.00  0.00     0.032 A 
HETATM   29  C   UNL     1       8.048  23.730  55.152  1.00  0.00     0.265 C 
HETATM   30  C   UNL     1       6.841  24.164  53.006  1.00  0.00     0.133 C 
HETATM   31  O   UNL     1       8.649  24.172  56.130  1.00  0.00    -0.267 OA
HETATM   32  C   UNL     1       6.657  25.395  52.138  1.00  0.00     0.025 C 
HETATM   33  C   UNL     1       5.759  27.060  56.845  1.00  0.00     0.032 A 
BRANCH  29  34
HETATM   34  C   UNL     1       8.287  22.362  54.693  1.00  0.00     0.073 A 
HETATM   35  S   UNL     1       8.124  21.065  55.802  1.00  0.00    -0.097 SA
HETATM   36  C   UNL     1       8.542  19.909  54.614  1.00  0.00     0.050 A 
HETATM   37  C   UNL     1       8.771  20.488  53.387  1.00  0.00     0.009 A 
HETATM   38  C   UNL     1       8.609  21.904  53.427  1.00  0.00     0.025 A 
ENDBRANCH  29  34
ENDBRANCH   2  22
TORSDOF 6
ENDMDL
MODEL 4
REMARK VINA RESULT:     -10.6      1.214      2.139
REMARK  6 active torsions:
REMARK  status: ('A' for Active; 'I' for Inactive)
REMARK    1  A    between atoms: C_6  and  O_7 
REMARK    2  A    between atoms: C_6  and  C_8 
REMARK    3  A    between atoms: C_8  and  N_9 
REMARK       I    between atoms: N_9  and  C_10 
REMARK    4  A    between atoms: C_10  and  C_11 
REMARK       I    between atoms: C_11  and  N_12 
REMARK    5  A    between atoms: N_12  and  C_13 
REMARK       I    between atoms: N_17  and  C_18 
REMARK    6  A    between atoms: C_18  and  C_19 
ROOT
HETATM    1  C   UNL     1       6.526  29.629  56.687  1.00  0.00     0.313 C 
HETATM    2  N   UNL     1       7.178  30.520  57.513  1.00  0.00    -0.319 N 
HETATM    3  O   UNL     1       5.327  29.400  56.592  1.00  0.00    -0.262 OA
HETATM    4  H   UNL     1       8.182  30.584  57.365  1.00  0.00     0.169 HD
ENDROOT
BRANCH   1   5
HETATM    5  C   UNL     1       7.497  28.832  55.788  1.00  0.00     0.309 C 
HETATM    6  N   UNL     1       6.871  27.851  55.063  1.00  0.00    -0.350 N 
HETATM    7  H   UNL     1       5.851  27.826  55.103  1.00  0.00     0.163 HD
HETATM    8  O   UNL     1       8.692  29.088  55.785  1.00  0.00    -0.262 OA
BRANCH   6   9
HETATM    9  C   UNL     1       7.547  26.926  54.177  1.00  0.00     0.161 C 
BRANCH   9  10
HETATM   10  C   UNL     1       7.250  25.461  54.575  1.00  0.00     0.078 C 
HETATM   11  C   UNL     1       7.747  24.503  53.473  1.00  0.00     0.078 C 
HETATM   12  C   UNL     1       7.801  23.050  53.890  1.00  0.00    -0.049 A 
HETATM   13  C   UNL     1       7.753  22.668  55.242  1.00  0.00    -0.052 A 
HETATM   14  C   UNL     1       7.952  22.063  52.904  1.00  0.00     0.007 A 
HETATM   15  C   UNL     1       7.816  21.308  55.579  1.00  0.00     0.007 A 
HETATM   16  C   UNL     1       7.568  23.682  56.342  1.00  0.00     0.042 C 
HETATM   17  C   UNL     1       7.955  20.336  54.589  1.00  0.00     0.001 A 
HETATM   18  C   UNL     1       8.027  20.715  53.252  1.00  0.00     0.001 A 
HETATM   19  C   UNL     1       7.918  25.104  55.913  1.00  0.00     0.044 C 
BRANCH  10  20
HETATM   20  O   UNL     1       5.824  25.341  54.742  1.00  0.00    -0.388 OA
HETATM   21  H   UNL     1       5.531  26.023  55.373  1.00  0.00     0.210 HD
ENDBRANCH  10  20
ENDBRANCH   9  10
ENDBRANCH   6   9
ENDBRANCH   1   5
BRANCH   2  22
HETATM   22  C   UNL     1       6.607  31.309  58.526  1.00  0.00     0.035 A 
HETATM   23  C   UNL     1       5.412  32.008  58.376  1.00  0.00     0.039 A 
HETATM   24  C   UNL     1       4.859  32.751  59.439  1.00  0.00    -0.029 A 
HETATM   25  C   UNL     1       5.523  32.834  60.681  1.00  0.00     0.043 A 
HETATM   26  C   UNL     1       3.557  33.460  59.178  1.00  0.00     0.042 C 
HETATM   27  N   UNL     1       4.976  33.646  61.742  1.00  0.00    -0.313 N 
HETATM   28  C   UNL     1       6.735  32.139  60.806  1.00  0.00     0.032 A 
HETATM   29  C   UNL     1       5.502  33.651  63.058  1.00  0.00     0.265 C 
HETATM   30  C   UNL     1       3.789  34.450  61.423  1.00  0.00     0.133 C 
HETATM   31  O   UNL     1       6.166  32.723  63.520  1.00  0.00    -0.267 OA
HETATM   32  C   UNL     1       2.835  33.746  60.477  1.00  0.00     0.025 C 
HETATM   33  C   UNL     1       7.261  31.376  59.753  1.00  0.00     0.032 A 
BRANCH  29  34
HETATM   34  C   UNL     1       5.217  34.831  63.873  1.00  0.00     0.073 A 
HETATM   35  S   UNL     1       4.435  34.637  65.386  1.00  0.00    -0.097 SA
HETATM   36  C   UNL     1       4.447  36.320  65.684  1.00  0.00     0.050 A 
HETATM   37  C   UNL     1       5.062  37.021  64.671  1.00  0.00     0.009 A 
HETATM   38  C   UNL     1       5.521  36.160  63.631  1.00  0.00     0.025 A 
ENDBRANCH  29  34
ENDBRANCH   2  22
TORSDOF 6
ENDMDL
MODEL 5
REMARK VINA RESULT:      -9.8      2.875      3.951
REMARK  6 active torsions:
REMARK  status: ('A' for Active; 'I' for Inactive)
REMARK    1  A    between atoms: C_6  and  O_7 
REMARK    2  A    between atoms: C_6  and  C_8 
REMARK    3  A    between atoms: C_8  and  N_9 
REMARK       I    between atoms: N_9  and  C_10 
REMARK    4  A    between atoms: C_10  and  C_11 
REMARK       I    between atoms: C_11  and  N_12 
REMARK    5  A    between atoms: N_12  and  C_13 
REMARK       I    between atoms: N_17  and  C_18 
REMARK    6  A    between atoms: C_18  and  C_19 
ROOT
HETATM    1  C   UNL     1       4.722  29.052  53.093  1.00  0.00     0.313 C 
HETATM    2  N   UNL     1       5.205  29.019  54.384  1.00  0.00    -0.319 N 
HETATM    3  O   UNL     1       4.040  29.909  52.547  1.00  0.00    -0.262 OA
HETATM    4  H   UNL     1       5.811  28.230  54.593  1.00  0.00     0.169 HD
ENDROOT
BRANCH   1   5
HETATM    5  C   UNL     1       5.123  27.805  52.275  1.00  0.00     0.309 C 
HETATM    6  N   UNL     1       6.251  27.190  52.756  1.00  0.00    -0.350 N 
HETATM    7  H   UNL     1       6.625  27.538  53.640  1.00  0.00     0.163 HD
HETATM    8  O   UNL     1       4.472  27.467  51.298  1.00  0.00    -0.262 OA
BRANCH   6   9
HETATM    9  C   UNL     1       6.874  26.029  52.156  1.00  0.00     0.161 C 
BRANCH   9  10
HETATM   10  C   UNL     1       6.743  24.792  53.075  1.00  0.00     0.078 C 
HETATM   11  C   UNL     1       7.628  23.645  52.547  1.00  0.00     0.078 C 
HETATM   12  C   UNL     1       7.828  22.511  53.529  1.00  0.00    -0.049 A 
HETATM   13  C   UNL     1       7.539  22.660  54.896  1.00  0.00    -0.052 A 
HETATM   14  C   UNL     1       8.360  21.297  53.069  1.00  0.00     0.007 A 
HETATM   15  C   UNL     1       7.750  21.582  55.769  1.00  0.00     0.007 A 
HETATM   16  C   UNL     1       6.944  23.932  55.444  1.00  0.00     0.042 C 
HETATM   17  C   UNL     1       8.268  20.376  55.297  1.00  0.00     0.001 A 
HETATM   18  C   UNL     1       8.577  20.236  53.948  1.00  0.00     0.001 A 
HETATM   19  C   UNL     1       7.140  25.132  54.521  1.00  0.00     0.044 C 
BRANCH  10  20
HETATM   20  O   UNL     1       5.356  24.401  53.075  1.00  0.00    -0.388 OA
HETATM   21  H   UNL     1       5.274  23.562  52.589  1.00  0.00     0.210 HD
ENDBRANCH  10  20
ENDBRANCH   9  10
ENDBRANCH   6   9
ENDBRANCH   1   5
BRANCH   2  22
HETATM   22  C   UNL     1       4.929  29.933  55.415  1.00  0.00     0.035 A 
HETATM   23  C   UNL     1       5.036  31.314  55.269  1.00  0.00     0.039 A 
HETATM   24  C   UNL     1       4.705  32.189  56.323  1.00  0.00    -0.029 A 
HETATM   25  C   UNL     1       4.288  31.686  57.573  1.00  0.00     0.043 A 
HETATM   26  C   UNL     1       4.842  33.666  56.058  1.00  0.00     0.042 C 
HETATM   27  N   UNL     1       4.008  32.592  58.662  1.00  0.00    -0.313 N 
HETATM   28  C   UNL     1       4.205  30.293  57.707  1.00  0.00     0.032 A 
HETATM   29  C   UNL     1       3.437  32.170  59.889  1.00  0.00     0.265 C 
HETATM   30  C   UNL     1       4.292  34.016  58.435  1.00  0.00     0.133 C 
HETATM   31  O   UNL     1       2.776  31.139  60.002  1.00  0.00    -0.267 OA
HETATM   32  C   UNL     1       3.984  34.462  57.018  1.00  0.00     0.025 C 
HETATM   33  C   UNL     1       4.505  29.430  56.642  1.00  0.00     0.032 A 
BRANCH  29  34
HETATM   34  C   UNL     1       3.666  33.032  61.048  1.00  0.00     0.073 A 
HETATM   35  S   UNL     1       5.215  33.053  61.783  1.00  0.00    -0.097 SA
HETATM   36  C   UNL     1       4.713  34.186  62.961  1.00  0.00     0.050 A 
HETATM   37  C   UNL     1       3.403  34.571  62.784  1.00  0.00     0.009 A 
HETATM   38  C   UNL     1       2.801  33.916  61.670  1.00  0.00     0.025 A 
ENDBRANCH  29  34
ENDBRANCH   2  22
TORSDOF 6
ENDMDL
MODEL 6
REMARK VINA RESULT:      -9.6      7.252     11.273
REMARK  6 active torsions:
REMARK  status: ('A' for Active; 'I' for Inactive)
REMARK    1  A    between atoms: C_6  and  O_7 
REMARK    2  A    between atoms: C_6  and  C_8 
REMARK    3  A    between atoms: C_8  and  N_9 
REMARK       I    between atoms: N_9  and  C_10 
REMARK    4  A    between atoms: C_10  and  C_11 
REMARK       I    between atoms: C_11  and  N_12 
REMARK    5  A    between atoms: N_12  and  C_13 
REMARK       I    between atoms: N_17  and  C_18 
REMARK    6  A    between atoms: C_18  and  C_19 
ROOT
HETATM    1  C   UNL     1       5.047  28.523  53.683  1.00  0.00     0.313 C 
HETATM    2  N   UNL     1       5.693  28.698  52.478  1.00  0.00    -0.319 N 
HETATM    3  O   UNL     1       3.849  28.569  53.931  1.00  0.00    -0.262 OA
HETATM    4  H   UNL     1       6.697  28.545  52.504  1.00  0.00     0.169 HD
ENDROOT
BRANCH   1   5
HETATM    5  C   UNL     1       6.025  28.240  54.845  1.00  0.00     0.309 C 
HETATM    6  N   UNL     1       6.655  27.027  54.731  1.00  0.00    -0.350 N 
HETATM    7  H   UNL     1       6.506  26.510  53.865  1.00  0.00     0.163 HD
HETATM    8  O   UNL     1       6.160  29.047  55.753  1.00  0.00    -0.262 OA
BRANCH   6   9
HETATM    9  C   UNL     1       7.585  26.490  55.702  1.00  0.00     0.161 C 
BRANCH   9  10
HETATM   10  C   UNL     1       7.495  24.947  55.759  1.00  0.00     0.078 C 
HETATM   11  C   UNL     1       7.684  24.354  54.347  1.00  0.00     0.078 C 
HETATM   12  C   UNL     1       7.934  22.862  54.327  1.00  0.00    -0.049 A 
HETATM   13  C   UNL     1       8.314  22.163  55.485  1.00  0.00    -0.052 A 
HETATM   14  C   UNL     1       7.829  22.170  53.111  1.00  0.00     0.007 A 
HETATM   15  C   UNL     1       8.543  20.780  55.413  1.00  0.00     0.007 A 
HETATM   16  C   UNL     1       8.419  22.848  56.823  1.00  0.00     0.042 C 
HETATM   17  C   UNL     1       8.425  20.102  54.201  1.00  0.00     0.001 A 
HETATM   18  C   UNL     1       8.072  20.798  53.049  1.00  0.00     0.001 A 
HETATM   19  C   UNL     1       8.552  24.365  56.711  1.00  0.00     0.044 C 
BRANCH  10  20
HETATM   20  O   UNL     1       6.194  24.611  56.278  1.00  0.00    -0.388 OA
HETATM   21  H   UNL     1       5.958  23.721  55.962  1.00  0.00     0.210 HD
ENDBRANCH  10  20
ENDBRANCH   9  10
ENDBRANCH   6   9
ENDBRANCH   1   5
BRANCH   2  22
HETATM   22  C   UNL     1       5.114  29.081  51.255  1.00  0.00     0.035 A 
HETATM   23  C   UNL     1       4.211  28.289  50.550  1.00  0.00     0.039 A 
HETATM   24  C   UNL     1       3.626  28.739  49.349  1.00  0.00    -0.029 A 
HETATM   25  C   UNL     1       3.968  29.995  48.807  1.00  0.00     0.043 A 
HETATM   26  C   UNL     1       2.652  27.812  48.670  1.00  0.00     0.042 C 
HETATM   27  N   UNL     1       3.406  30.418  47.546  1.00  0.00    -0.313 N 
HETATM   28  C   UNL     1       4.894  30.769  49.522  1.00  0.00     0.032 A 
HETATM   29  C   UNL     1       3.581  31.725  47.024  1.00  0.00     0.265 C 
HETATM   30  C   UNL     1       2.578  29.443  46.824  1.00  0.00     0.133 C 
HETATM   31  O   UNL     1       3.853  32.698  47.726  1.00  0.00    -0.267 OA
HETATM   32  C   UNL     1       1.734  28.585  47.748  1.00  0.00     0.025 C 
HETATM   33  C   UNL     1       5.447  30.328  50.734  1.00  0.00     0.032 A 
BRANCH  29  34
HETATM   34  C   UNL     1       3.417  31.879  45.579  1.00  0.00     0.073 A 
HETATM   35  S   UNL     1       1.949  32.516  44.964  1.00  0.00    -0.097 SA
HETATM   36  C   UNL     1       2.489  32.379  43.348  1.00  0.00     0.050 A 
HETATM   37  C   UNL     1       3.774  31.889  43.271  1.00  0.00     0.009 A 
HETATM   38  C   UNL     1       4.317  31.614  44.561  1.00  0.00     0.025 A 
ENDBRANCH  29  34
ENDBRANCH   2  22
TORSDOF 6
ENDMDL
MODEL 7
REMARK VINA RESULT:      -9.6      3.429     11.460
REMARK  6 active torsions:
REMARK  status: ('A' for Active; 'I' for Inactive)
REMARK    1  A    between atoms: C_6  and  O_7 
REMARK    2  A    between atoms: C_6  and  C_8 
REMARK    3  A    between atoms: C_8  and  N_9 
REMARK       I    between atoms: N_9  and  C_10 
REMARK    4  A    between atoms: C_10  and  C_11 
REMARK       I    between atoms: C_11  and  N_12 
REMARK    5  A    between atoms: N_12  and  C_13 
REMARK       I    between atoms: N_17  and  C_18 
REMARK    6  A    between atoms: C_18  and  C_19 
ROOT
HETATM    1  C   UNL     1       3.794  33.220  57.877  1.00  0.00     0.313 C 
HETATM    2  N   UNL     1       4.272  32.084  58.494  1.00  0.00    -0.319 N 
HETATM    3  O   UNL     1       3.769  33.497  56.685  1.00  0.00    -0.262 OA
HETATM    4  H   UNL     1       4.123  32.048  59.499  1.00  0.00     0.169 HD
ENDROOT
BRANCH   1   5
HETATM    5  C   UNL     1       3.234  34.251  58.881  1.00  0.00     0.309 C 
HETATM    6  N   UNL     1       2.851  33.687  60.070  1.00  0.00    -0.350 N 
HETATM    7  H   UNL     1       3.076  32.700  60.207  1.00  0.00     0.163 HD
HETATM    8  O   UNL     1       3.147  35.432  58.576  1.00  0.00    -0.262 OA
BRANCH   6   9
HETATM    9  C   UNL     1       2.251  34.413  61.170  1.00  0.00     0.161 C 
BRANCH   9  10
HETATM   10  C   UNL     1       3.024  34.163  62.486  1.00  0.00     0.078 C 
HETATM   11  C   UNL     1       4.449  33.660  62.174  1.00  0.00     0.078 C 
HETATM   12  C   UNL     1       5.391  33.689  63.358  1.00  0.00    -0.049 A 
HETATM   13  C   UNL     1       5.100  34.432  64.514  1.00  0.00    -0.052 A 
HETATM   14  C   UNL     1       6.608  32.993  63.278  1.00  0.00     0.007 A 
HETATM   15  C   UNL     1       6.010  34.433  65.582  1.00  0.00     0.007 A 
HETATM   16  C   UNL     1       3.799  35.178  64.667  1.00  0.00     0.042 C 
HETATM   17  C   UNL     1       7.210  33.729  65.495  1.00  0.00     0.001 A 
HETATM   18  C   UNL     1       7.510  33.013  64.340  1.00  0.00     0.001 A 
HETATM   19  C   UNL     1       3.099  35.441  63.336  1.00  0.00     0.044 C 
BRANCH  10  20
HETATM   20  O   UNL     1       2.292  33.172  63.233  1.00  0.00    -0.388 OA
HETATM   21  H   UNL     1       2.920  32.498  63.547  1.00  0.00     0.210 HD
ENDBRANCH  10  20
ENDBRANCH   9  10
ENDBRANCH   6   9
ENDBRANCH   1   5
BRANCH   2  22
HETATM   22  C   UNL     1       4.947  31.011  57.887  1.00  0.00     0.035 A 
HETATM   23  C   UNL     1       6.334  30.885  57.869  1.00  0.00     0.039 A 
HETATM   24  C   UNL     1       6.960  29.766  57.285  1.00  0.00    -0.029 A 
HETATM   25  C   UNL     1       6.196  28.754  56.667  1.00  0.00     0.043 A 
HETATM   26  C   UNL     1       8.465  29.720  57.329  1.00  0.00     0.042 C 
HETATM   27  N   UNL     1       6.853  27.643  56.020  1.00  0.00    -0.313 N 
HETATM   28  C   UNL     1       4.803  28.908  56.678  1.00  0.00     0.032 A 
HETATM   29  C   UNL     1       6.152  26.516  55.521  1.00  0.00     0.265 C 
HETATM   30  C   UNL     1       8.319  27.689  55.940  1.00  0.00     0.133 C 
HETATM   31  O   UNL     1       5.037  26.187  55.926  1.00  0.00    -0.267 OA
HETATM   32  C   UNL     1       8.960  28.298  57.173  1.00  0.00     0.025 C 
HETATM   33  C   UNL     1       4.186  30.009  57.291  1.00  0.00     0.032 A 
BRANCH  29  34
HETATM   34  C   UNL     1       6.821  25.737  54.481  1.00  0.00     0.073 A 
HETATM   35  S   UNL     1       6.832  26.324  52.870  1.00  0.00    -0.097 SA
HETATM   36  C   UNL     1       7.711  24.968  52.312  1.00  0.00     0.050 A 
HETATM   37  C   UNL     1       8.023  24.098  53.332  1.00  0.00     0.009 A 
HETATM   38  C   UNL     1       7.522  24.549  54.588  1.00  0.00     0.025 A 
ENDBRANCH  29  34
ENDBRANCH   2  22
TORSDOF 6
ENDMDL
MODEL 8
REMARK VINA RESULT:      -9.6      7.816     11.402
REMARK  6 active torsions:
REMARK  status: ('A' for Active; 'I' for Inactive)
REMARK    1  A    between atoms: C_6  and  O_7 
REMARK    2  A    between atoms: C_6  and  C_8 
REMARK    3  A    between atoms: C_8  and  N_9 
REMARK       I    between atoms: N_9  and  C_10 
REMARK    4  A    between atoms: C_10  and  C_11 
REMARK       I    between atoms: C_11  and  N_12 
REMARK    5  A    between atoms: N_12  and  C_13 
REMARK       I    between atoms: N_17  and  C_18 
REMARK    6  A    between atoms: C_18  and  C_19 
ROOT
HETATM    1  C   UNL     1       3.967  28.694  52.663  1.00  0.00     0.313 C 
HETATM    2  N   UNL     1       5.064  29.089  51.928  1.00  0.00    -0.319 N 
HETATM    3  O   UNL     1       2.778  28.793  52.388  1.00  0.00    -0.262 OA
HETATM    4  H   UNL     1       5.963  28.840  52.333  1.00  0.00     0.169 HD
ENDROOT
BRANCH   1   5
HETATM    5  C   UNL     1       4.356  28.055  54.015  1.00  0.00     0.309 C 
HETATM    6  N   UNL     1       5.205  26.988  53.877  1.00  0.00    -0.350 N 
HETATM    7  H   UNL     1       5.571  26.806  52.942  1.00  0.00     0.163 HD
HETATM    8  O   UNL     1       3.901  28.492  55.062  1.00  0.00    -0.262 OA
BRANCH   6   9
HETATM    9  C   UNL     1       5.691  26.177  54.974  1.00  0.00     0.161 C 
BRANCH   9  10
HETATM   10  C   UNL     1       6.681  25.101  54.470  1.00  0.00     0.078 C 
HETATM   11  C   UNL     1       6.736  23.925  55.468  1.00  0.00     0.078 C 
HETATM   12  C   UNL     1       7.416  22.685  54.930  1.00  0.00    -0.049 A 
HETATM   13  C   UNL     1       7.644  22.506  53.555  1.00  0.00    -0.052 A 
HETATM   14  C   UNL     1       7.785  21.668  55.825  1.00  0.00     0.007 A 
HETATM   15  C   UNL     1       8.271  21.334  53.106  1.00  0.00     0.007 A 
HETATM   16  C   UNL     1       7.293  23.573  52.551  1.00  0.00     0.042 C 
HETATM   17  C   UNL     1       8.643  20.336  54.005  1.00  0.00     0.001 A 
HETATM   18  C   UNL     1       8.396  20.502  55.364  1.00  0.00     0.001 A 
HETATM   19  C   UNL     1       6.278  24.584  53.080  1.00  0.00     0.044 C 
BRANCH  10  20
HETATM   20  O   UNL     1       7.974  25.726  54.355  1.00  0.00    -0.388 OA
HETATM   21  H   UNL     1       8.431  25.346  53.585  1.00  0.00     0.210 HD
ENDBRANCH  10  20
ENDBRANCH   9  10
ENDBRANCH   6   9
ENDBRANCH   1   5
BRANCH   2  22
HETATM   22  C   UNL     1       5.060  29.802  50.716  1.00  0.00     0.035 A 
HETATM   23  C   UNL     1       4.479  29.324  49.544  1.00  0.00     0.039 A 
HETATM   24  C   UNL     1       4.464  30.097  48.366  1.00  0.00    -0.029 A 
HETATM   25  C   UNL     1       5.071  31.370  48.333  1.00  0.00     0.043 A 
HETATM   26  C   UNL     1       3.799  29.495  47.156  1.00  0.00     0.042 C 
HETATM   27  N   UNL     1       5.100  32.127  47.104  1.00  0.00    -0.313 N 
HETATM   28  C   UNL     1       5.668  31.825  49.517  1.00  0.00     0.032 A 
HETATM   29  C   UNL     1       5.550  33.470  47.035  1.00  0.00     0.265 C 
HETATM   30  C   UNL     1       4.584  31.464  45.899  1.00  0.00     0.133 C 
HETATM   31  O   UNL     1       5.569  34.222  48.009  1.00  0.00    -0.267 OA
HETATM   32  C   UNL     1       3.387  30.575  46.180  1.00  0.00     0.025 C 
HETATM   33  C   UNL     1       5.650  31.062  50.694  1.00  0.00     0.032 A 
BRANCH  29  34
HETATM   34  C   UNL     1       6.002  33.943  45.727  1.00  0.00     0.073 A 
HETATM   35  S   UNL     1       4.983  34.974  44.812  1.00  0.00    -0.097 SA
HETATM   36  C   UNL     1       6.112  35.061  43.531  1.00  0.00     0.050 A 
HETATM   37  C   UNL     1       7.258  34.349  43.801  1.00  0.00     0.009 A 
HETATM   38  C   UNL     1       7.202  33.715  45.077  1.00  0.00     0.025 A 
ENDBRANCH  29  34
ENDBRANCH   2  22
TORSDOF 6
ENDMDL
MODEL 9
REMARK VINA RESULT:      -9.1      2.301      3.177
REMARK  6 active torsions:
REMARK  status: ('A' for Active; 'I' for Inactive)
REMARK    1  A    between atoms: C_6  and  O_7 
REMARK    2  A    between atoms: C_6  and  C_8 
REMARK    3  A    between atoms: C_8  and  N_9 
REMARK       I    between atoms: N_9  and  C_10 
REMARK    4  A    between atoms: C_10  and  C_11 
REMARK       I    between atoms: C_11  and  N_12 
REMARK    5  A    between atoms: N_12  and  C_13 
REMARK       I    between atoms: N_17  and  C_18 
REMARK    6  A    between atoms: C_18  and  C_19 
ROOT
HETATM    1  C   UNL     1       4.614  32.026  55.183  1.00  0.00     0.313 C 
HETATM    2  N   UNL     1       4.445  31.425  56.412  1.00  0.00    -0.319 N 
HETATM    3  O   UNL     1       5.047  33.141  54.922  1.00  0.00    -0.262 OA
HETATM    4  H   UNL     1       4.130  30.459  56.376  1.00  0.00     0.169 HD
ENDROOT
BRANCH   1   5
HETATM    5  C   UNL     1       4.169  31.121  54.013  1.00  0.00     0.309 C 
HETATM    6  N   UNL     1       4.787  29.897  54.018  1.00  0.00    -0.350 N 
HETATM    7  H   UNL     1       5.366  29.676  54.830  1.00  0.00     0.163 HD
HETATM    8  O   UNL     1       3.362  31.524  53.188  1.00  0.00    -0.262 OA
BRANCH   6   9
HETATM    9  C   UNL     1       4.592  28.873  53.014  1.00  0.00     0.161 C 
BRANCH   9  10
HETATM   10  C   UNL     1       5.688  27.785  53.112  1.00  0.00     0.078 C 
HETATM   11  C   UNL     1       5.474  26.934  54.381  1.00  0.00     0.078 C 
HETATM   12  C   UNL     1       6.282  25.655  54.414  1.00  0.00    -0.049 A 
HETATM   13  C   UNL     1       6.878  25.128  53.255  1.00  0.00    -0.052 A 
HETATM   14  C   UNL     1       6.398  24.953  55.624  1.00  0.00     0.007 A 
HETATM   15  C   UNL     1       7.610  23.934  53.336  1.00  0.00     0.007 A 
HETATM   16  C   UNL     1       6.808  25.850  51.933  1.00  0.00     0.042 C 
HETATM   17  C   UNL     1       7.727  23.252  54.546  1.00  0.00     0.001 A 
HETATM   18  C   UNL     1       7.117  23.760  55.689  1.00  0.00     0.001 A 
HETATM   19  C   UNL     1       5.682  26.879  51.871  1.00  0.00     0.044 C 
BRANCH  10  20
HETATM   20  O   UNL     1       6.959  28.460  53.165  1.00  0.00    -0.388 OA
HETATM   21  H   UNL     1       6.842  29.298  53.645  1.00  0.00     0.210 HD
ENDBRANCH  10  20
ENDBRANCH   9  10
ENDBRANCH   6   9
ENDBRANCH   1   5
BRANCH   2  22
HETATM   22  C   UNL     1       4.640  32.011  57.675  1.00  0.00     0.035 A 
HETATM   23  C   UNL     1       5.703  31.690  58.516  1.00  0.00     0.039 A 
HETATM   24  C   UNL     1       5.877  32.338  59.755  1.00  0.00    -0.029 A 
HETATM   25  C   UNL     1       4.955  33.311  60.195  1.00  0.00     0.043 A 
HETATM   26  C   UNL     1       7.065  31.928  60.585  1.00  0.00     0.042 C 
HETATM   27  N   UNL     1       5.113  33.925  61.492  1.00  0.00    -0.313 N 
HETATM   28  C   UNL     1       3.881  33.606  59.343  1.00  0.00     0.032 A 
HETATM   29  C   UNL     1       4.320  35.016  61.931  1.00  0.00     0.265 C 
HETATM   30  C   UNL     1       6.187  33.406  62.350  1.00  0.00     0.133 C 
HETATM   31  O   UNL     1       3.740  35.777  61.158  1.00  0.00    -0.267 OA
HETATM   32  C   UNL     1       7.429  33.016  61.571  1.00  0.00     0.025 C 
HETATM   33  C   UNL     1       3.733  32.979  58.096  1.00  0.00     0.032 A 
BRANCH  29  34
HETATM   34  C   UNL     1       4.218  35.211  63.376  1.00  0.00     0.073 A 
HETATM   35  S   UNL     1       5.084  36.494  64.112  1.00  0.00    -0.097 SA
HETATM   36  C   UNL     1       4.506  36.080  65.667  1.00  0.00     0.050 A 
HETATM   37  C   UNL     1       3.645  35.007  65.631  1.00  0.00     0.009 A 
HETATM   38  C   UNL     1       3.465  34.513  64.305  1.00  0.00     0.025 A 
ENDBRANCH  29  34
ENDBRANCH   2  22
TORSDOF 6
ENDMDL
MODEL 10
REMARK VINA RESULT:      -9.1      4.274      5.470
REMARK  6 active torsions:
REMARK  status: ('A' for Active; 'I' for Inactive)
REMARK    1  A    between atoms: C_6  and  O_7 
REMARK    2  A    between atoms: C_6  and  C_8 
REMARK    3  A    between atoms: C_8  and  N_9 
REMARK       I    between atoms: N_9  and  C_10 
REMARK    4  A    between atoms: C_10  and  C_11 
REMARK       I    between atoms: C_11  and  N_12 
REMARK    5  A    between atoms: N_12  and  C_13 
REMARK       I    between atoms: N_17  and  C_18 
REMARK    6  A    between atoms: C_18  and  C_19 
ROOT
HETATM    1  C   UNL     1       5.445  28.553  52.310  1.00  0.00     0.313 C 
HETATM    2  N   UNL     1       4.886  28.621  53.568  1.00  0.00    -0.319 N 
HETATM    3  O   UNL     1       5.743  29.464  51.548  1.00  0.00    -0.262 OA
HETATM    4  H   UNL     1       4.790  27.726  54.042  1.00  0.00     0.169 HD
ENDROOT
BRANCH   1   5
HETATM    5  C   UNL     1       5.699  27.101  51.849  1.00  0.00     0.309 C 
HETATM    6  N   UNL     1       6.911  26.612  52.263  1.00  0.00    -0.350 N 
HETATM    7  H   UNL     1       7.448  27.194  52.906  1.00  0.00     0.163 HD
HETATM    8  O   UNL     1       4.871  26.512  51.168  1.00  0.00    -0.262 OA
BRANCH   6   9
HETATM    9  C   UNL     1       7.423  25.299  51.934  1.00  0.00     0.161 C 
BRANCH   9  10
HETATM   10  C   UNL     1       7.205  24.311  53.104  1.00  0.00     0.078 C 
HETATM   11  C   UNL     1       7.928  22.979  52.812  1.00  0.00     0.078 C 
HETATM   12  C   UNL     1       8.053  22.064  54.011  1.00  0.00    -0.049 A 
HETATM   13  C   UNL     1       7.857  22.534  55.321  1.00  0.00    -0.052 A 
HETATM   14  C   UNL     1       8.421  20.725  53.811  1.00  0.00     0.007 A 
HETATM   15  C   UNL     1       7.993  21.648  56.400  1.00  0.00     0.007 A 
HETATM   16  C   UNL     1       7.437  23.955  55.596  1.00  0.00     0.042 C 
HETATM   17  C   UNL     1       8.348  20.317  56.187  1.00  0.00     0.001 A 
HETATM   18  C   UNL     1       8.565  19.857  54.892  1.00  0.00     0.001 A 
HETATM   19  C   UNL     1       7.716  24.899  54.429  1.00  0.00     0.044 C 
BRANCH  10  20
HETATM   20  O   UNL     1       5.786  24.098  53.228  1.00  0.00    -0.388 OA
HETATM   21  H   UNL     1       5.585  23.190  52.939  1.00  0.00     0.210 HD
ENDBRANCH  10  20
ENDBRANCH   9  10
ENDBRANCH   6   9
ENDBRANCH   1   5
BRANCH   2  22
HETATM   22  C   UNL     1       4.428  29.772  54.231  1.00  0.00     0.035 A 
HETATM   23  C   UNL     1       3.489  30.648  53.691  1.00  0.00     0.039 A 
HETATM   24  C   UNL     1       3.030  31.766  54.416  1.00  0.00    -0.029 A 
HETATM   25  C   UNL     1       3.539  32.051  55.700  1.00  0.00     0.043 A 
HETATM   26  C   UNL     1       2.003  32.644  53.749  1.00  0.00     0.042 C 
HETATM   27  N   UNL     1       3.104  33.232  56.407  1.00  0.00    -0.313 N 
HETATM   28  C   UNL     1       4.498  31.169  56.218  1.00  0.00     0.032 A 
HETATM   29  C   UNL     1       3.451  33.496  57.756  1.00  0.00     0.265 C 
HETATM   30  C   UNL     1       2.219  34.156  55.683  1.00  0.00     0.133 C 
HETATM   31  O   UNL     1       3.784  32.614  58.548  1.00  0.00    -0.267 OA
HETATM   32  C   UNL     1       1.233  33.442  54.778  1.00  0.00     0.025 C 
HETATM   33  C   UNL     1       4.925  30.039  55.503  1.00  0.00     0.032 A 
BRANCH  29  34
HETATM   34  C   UNL     1       3.393  34.892  58.186  1.00  0.00     0.073 A 
HETATM   35  S   UNL     1       2.091  35.412  59.173  1.00  0.00    -0.097 SA
HETATM   36  C   UNL     1       2.684  37.015  59.225  1.00  0.00     0.050 A 
HETATM   37  C   UNL     1       3.867  37.152  58.535  1.00  0.00     0.009 A 
HETATM   38  C   UNL     1       4.286  35.922  57.947  1.00  0.00     0.025 A 
ENDBRANCH  29  34
ENDBRANCH   2  22
TORSDOF 6
ENDMDL
