MODEL 1
REMARK VINA RESULT:     -10.0      0.000      0.000
REMARK  2 active torsions:
REMARK  status: ('A' for Active; 'I' for Inactive)
REMARK    1  A    between atoms: C_5  and  C_6 
REMARK    2  A    between atoms: C_17  and  O_18 
ROOT
HETATM    1  C   UNL     1       5.323  25.409  56.375  1.00  0.00     0.200 C 
HETATM    2  N   UNL     1       6.338  25.126  57.349  1.00  0.00    -0.336 N 
HETATM    3  C   UNL     1       7.238  26.058  57.793  1.00  0.00     0.255 C 
HETATM    4  O   UNL     1       8.267  25.733  58.378  1.00  0.00    -0.268 OA
HETATM    5  C   UNL     1       6.909  27.468  57.533  1.00  0.00     0.053 A 
HETATM    6  C   UNL     1       5.673  27.746  56.946  1.00  0.00     0.026 A 
HETATM    7  N   UNL     1       4.753  26.725  56.667  1.00  0.00    -0.267 NA
HETATM    8  C   UNL     1       7.799  28.491  57.879  1.00  0.00     0.019 A 
HETATM    9  C   UNL     1       7.437  29.819  57.663  1.00  0.00     0.001 A 
HETATM   10  C   UNL     1       6.188  30.117  57.122  1.00  0.00     0.002 A 
HETATM   11  C   UNL     1       5.305  29.087  56.781  1.00  0.00     0.024 A 
HETATM   12  H   UNL     1       6.716  24.191  57.356  1.00  0.00     0.164 HD
HETATM   13  H   UNL     1       4.095  27.030  55.960  1.00  0.00     0.130 HD
ENDROOT
BRANCH   1  14
HETATM   14  C   UNL     1       5.677  25.258  54.890  1.00  0.00     0.023 A 
HETATM   15  C   UNL     1       6.683  24.303  54.494  1.00  0.00    -0.014 A 
HETATM   16  C   UNL     1       6.901  24.055  53.111  1.00  0.00    -0.025 A 
HETATM   17  C   UNL     1       7.506  23.573  55.395  1.00  0.00     0.013 A 
HETATM   18  C   UNL     1       7.832  23.090  52.690  1.00  0.00     0.012 A 
HETATM   19  C   UNL     1       6.195  24.781  52.148  1.00  0.00     0.015 A 
HETATM   20  C   UNL     1       8.587  22.369  53.610  1.00  0.00     0.001 A 
HETATM   21  C   UNL     1       8.433  22.620  54.964  1.00  0.00     0.001 A 
HETATM   22  C   UNL     1       5.295  25.769  52.525  1.00  0.00     0.038 A 
HETATM   23  C   UNL     1       5.048  26.007  53.875  1.00  0.00     0.076 A 
BRANCH  23  24
HETATM   24  O   UNL     1       4.203  27.031  54.187  1.00  0.00    -0.360 OA
HETATM   25  H   UNL     1       3.805  26.890  55.062  1.00  0.00     0.217 HD
ENDBRANCH  23  24
ENDBRANCH   1  14
TORSDOF 2
ENDMDL
MODEL 2
REMARK VINA RESULT:      -9.9      2.437      3.614
REMARK  2 active torsions:
REMARK  status: ('A' for Active; 'I' for Inactive)
REMARK    1  A    between atoms: C_5  and  C_6 
REMARK    2  A    between atoms: C_17  and  O_18 
ROOT
HETATM    1  C   UNL     1       7.021  28.314  54.783  1.00  0.00     0.200 C 
HETATM    2  N   UNL     1       6.226  29.303  55.453  1.00  0.00    -0.336 N 
HETATM    3  C   UNL     1       6.641  29.971  56.574  1.00  0.00     0.255 C 
HETATM    4  O   UNL     1       5.851  30.573  57.295  1.00  0.00    -0.268 OA
HETATM    5  C   UNL     1       8.082  29.932  56.869  1.00  0.00     0.053 A 
HETATM    6  C   UNL     1       8.915  29.303  55.942  1.00  0.00     0.026 A 
HETATM    7  N   UNL     1       8.407  28.780  54.743  1.00  0.00    -0.267 NA
HETATM    8  C   UNL     1       8.595  30.518  58.031  1.00  0.00     0.019 A 
HETATM    9  C   UNL     1       9.969  30.505  58.258  1.00  0.00     0.001 A 
HETATM   10  C   UNL     1      10.821  29.924  57.319  1.00  0.00     0.002 A 
HETATM   11  C   UNL     1      10.297  29.342  56.160  1.00  0.00     0.024 A 
HETATM   12  H   UNL     1       5.225  29.179  55.425  1.00  0.00     0.164 HD
HETATM   13  H   UNL     1       9.042  28.086  54.368  1.00  0.00     0.130 HD
ENDROOT
BRANCH   1  14
HETATM   14  C   UNL     1       6.922  26.858  55.257  1.00  0.00     0.023 A 
HETATM   15  C   UNL     1       7.254  25.791  54.344  1.00  0.00    -0.014 A 
HETATM   16  C   UNL     1       7.310  24.455  54.827  1.00  0.00    -0.025 A 
HETATM   17  C   UNL     1       7.529  25.965  52.960  1.00  0.00     0.013 A 
HETATM   18  C   UNL     1       7.687  23.398  53.981  1.00  0.00     0.012 A 
HETATM   19  C   UNL     1       6.979  24.174  56.155  1.00  0.00     0.015 A 
HETATM   20  C   UNL     1       7.987  23.621  52.641  1.00  0.00     0.001 A 
HETATM   21  C   UNL     1       7.897  24.905  52.127  1.00  0.00     0.001 A 
HETATM   22  C   UNL     1       6.567  25.187  57.012  1.00  0.00     0.038 A 
HETATM   23  C   UNL     1       6.532  26.505  56.564  1.00  0.00     0.076 A 
BRANCH  23  24
HETATM   24  O   UNL     1       6.059  27.449  57.428  1.00  0.00    -0.360 OA
HETATM   25  H   UNL     1       6.529  28.290  57.305  1.00  0.00     0.217 HD
ENDBRANCH  23  24
ENDBRANCH   1  14
TORSDOF 2
ENDMDL
MODEL 3
REMARK VINA RESULT:      -9.6      1.667      2.037
REMARK  2 active torsions:
REMARK  status: ('A' for Active; 'I' for Inactive)
REMARK    1  A    between atoms: C_5  and  C_6 
REMARK    2  A    between atoms: C_17  and  O_18 
ROOT
HETATM    1  C   UNL     1       7.287  25.068  56.577  1.00  0.00     0.200 C 
HETATM    2  N   UNL     1       8.208  25.959  57.224  1.00  0.00    -0.336 N 
HETATM    3  C   UNL     1       8.102  27.324  57.165  1.00  0.00     0.255 C 
HETATM    4  O   UNL     1       9.044  28.056  57.455  1.00  0.00    -0.268 OA
HETATM    5  C   UNL     1       6.803  27.867  56.739  1.00  0.00     0.053 A 
HETATM    6  C   UNL     1       5.763  26.962  56.522  1.00  0.00     0.026 A 
HETATM    7  N   UNL     1       5.931  25.589  56.757  1.00  0.00    -0.267 NA
HETATM    8  C   UNL     1       6.618  29.244  56.574  1.00  0.00     0.019 A 
HETATM    9  C   UNL     1       5.363  29.731  56.215  1.00  0.00     0.001 A 
HETATM   10  C   UNL     1       4.301  28.845  56.042  1.00  0.00     0.002 A 
HETATM   11  C   UNL     1       4.497  27.470  56.210  1.00  0.00     0.024 A 
HETATM   12  H   UNL     1       9.163  25.648  57.303  1.00  0.00     0.164 HD
HETATM   13  H   UNL     1       5.238  25.058  56.244  1.00  0.00     0.130 HD
ENDROOT
BRANCH   1  14
HETATM   14  C   UNL     1       7.557  24.673  55.120  1.00  0.00     0.023 A 
HETATM   15  C   UNL     1       7.714  23.280  54.779  1.00  0.00    -0.014 A 
HETATM   16  C   UNL     1       7.812  22.906  53.412  1.00  0.00    -0.025 A 
HETATM   17  C   UNL     1       7.792  22.220  55.723  1.00  0.00     0.013 A 
HETATM   18  C   UNL     1       7.907  21.554  53.040  1.00  0.00     0.012 A 
HETATM   19  C   UNL     1       7.825  23.884  52.415  1.00  0.00     0.015 A 
HETATM   20  C   UNL     1       7.938  20.545  53.998  1.00  0.00     0.001 A 
HETATM   21  C   UNL     1       7.892  20.879  55.341  1.00  0.00     0.001 A 
HETATM   22  C   UNL     1       7.770  25.232  52.744  1.00  0.00     0.038 A 
HETATM   23  C   UNL     1       7.647  25.617  54.077  1.00  0.00     0.076 A 
BRANCH  23  24
HETATM   24  O   UNL     1       7.661  26.954  54.348  1.00  0.00    -0.360 OA
HETATM   25  H   UNL     1       6.895  27.392  53.942  1.00  0.00     0.217 HD
ENDBRANCH  23  24
ENDBRANCH   1  14
TORSDOF 2
ENDMDL
MODEL 4
REMARK VINA RESULT:      -9.0      2.542      6.828
REMARK  2 active torsions:
REMARK  status: ('A' for Active; 'I' for Inactive)
REMARK    1  A    between atoms: C_5  and  C_6 
REMARK    2  A    between atoms: C_17  and  O_18 
ROOT
HETATM    1  C   UNL     1       6.708  29.268  56.463  1.00  0.00     0.200 C 
HETATM    2  N   UNL     1       6.399  29.072  55.075  1.00  0.00    -0.336 N 
HETATM    3  C   UNL     1       6.679  27.915  54.397  1.00  0.00     0.255 C 
HETATM    4  O   UNL     1       6.691  27.874  53.170  1.00  0.00    -0.268 OA
HETATM    5  C   UNL     1       6.963  26.724  55.213  1.00  0.00     0.053 A 
HETATM    6  C   UNL     1       6.834  26.843  56.598  1.00  0.00     0.026 A 
HETATM    7  N   UNL     1       6.391  28.037  57.188  1.00  0.00    -0.267 NA
HETATM    8  C   UNL     1       7.335  25.515  54.617  1.00  0.00     0.019 A 
HETATM    9  C   UNL     1       7.552  24.393  55.415  1.00  0.00     0.001 A 
HETATM   10  C   UNL     1       7.379  24.482  56.795  1.00  0.00     0.002 A 
HETATM   11  C   UNL     1       7.006  25.696  57.381  1.00  0.00     0.024 A 
HETATM   12  H   UNL     1       6.433  29.886  54.481  1.00  0.00     0.164 HD
HETATM   13  H   UNL     1       6.675  28.073  58.160  1.00  0.00     0.130 HD
ENDROOT
BRANCH   1  14
HETATM   14  C   UNL     1       8.097  29.805  56.831  1.00  0.00     0.023 A 
HETATM   15  C   UNL     1       8.255  30.612  58.016  1.00  0.00    -0.014 A 
HETATM   16  C   UNL     1       9.561  30.980  58.438  1.00  0.00    -0.025 A 
HETATM   17  C   UNL     1       7.183  31.091  58.818  1.00  0.00     0.013 A 
HETATM   18  C   UNL     1       9.756  31.715  59.620  1.00  0.00     0.012 A 
HETATM   19  C   UNL     1      10.673  30.622  57.672  1.00  0.00     0.015 A 
HETATM   20  C   UNL     1       8.678  32.129  60.396  1.00  0.00     0.001 A 
HETATM   21  C   UNL     1       7.389  31.827  59.988  1.00  0.00     0.001 A 
HETATM   22  C   UNL     1      10.518  29.927  56.480  1.00  0.00     0.038 A 
HETATM   23  C   UNL     1       9.248  29.534  56.064  1.00  0.00     0.076 A 
BRANCH  23  24
HETATM   24  O   UNL     1       9.149  28.911  54.854  1.00  0.00    -0.360 OA
HETATM   25  H   UNL     1       9.552  29.455  54.157  1.00  0.00     0.217 HD
ENDBRANCH  23  24
ENDBRANCH   1  14
TORSDOF 2
ENDMDL
MODEL 5
REMARK VINA RESULT:      -9.0      8.085     10.443
REMARK  2 active torsions:
REMARK  status: ('A' for Active; 'I' for Inactive)
REMARK    1  A    between atoms: C_5  and  C_6 
REMARK    2  A    between atoms: C_17  and  O_18 
ROOT
HETATM    1  C   UNL     1       4.388  32.448  61.472  1.00  0.00     0.200 C 
HETATM    2  N   UNL     1       3.263  32.568  62.356  1.00  0.00    -0.336 N 
HETATM    3  C   UNL     1       2.785  33.769  62.808  1.00  0.00     0.255 C 
HETATM    4  O   UNL     1       2.038  33.841  63.779  1.00  0.00    -0.268 OA
HETATM    5  C   UNL     1       3.211  34.969  62.069  1.00  0.00     0.053 A 
HETATM    6  C   UNL     1       3.983  34.782  60.922  1.00  0.00     0.026 A 
HETATM    7  N   UNL     1       4.294  33.496  60.455  1.00  0.00    -0.267 NA
HETATM    8  C   UNL     1       2.839  36.247  62.498  1.00  0.00     0.019 A 
HETATM    9  C   UNL     1       3.218  37.360  61.750  1.00  0.00     0.001 A 
HETATM   10  C   UNL     1       3.948  37.188  60.576  1.00  0.00     0.002 A 
HETATM   11  C   UNL     1       4.314  35.905  60.156  1.00  0.00     0.024 A 
HETATM   12  H   UNL     1       3.123  31.822  63.019  1.00  0.00     0.164 HD
HETATM   13  H   UNL     1       5.108  33.529  59.853  1.00  0.00     0.130 HD
ENDROOT
BRANCH   1  14
HETATM   14  C   UNL     1       5.792  32.375  62.087  1.00  0.00     0.023 A 
HETATM   15  C   UNL     1       6.929  32.135  61.232  1.00  0.00    -0.014 A 
HETATM   16  C   UNL     1       8.239  32.219  61.777  1.00  0.00    -0.025 A 
HETATM   17  C   UNL     1       6.848  31.803  59.852  1.00  0.00     0.013 A 
HETATM   18  C   UNL     1       9.371  32.049  60.962  1.00  0.00     0.012 A 
HETATM   19  C   UNL     1       8.417  32.462  63.141  1.00  0.00     0.015 A 
HETATM   20  C   UNL     1       9.245  31.766  59.605  1.00  0.00     0.001 A 
HETATM   21  C   UNL     1       7.982  31.631  59.052  1.00  0.00     0.001 A 
HETATM   22  C   UNL     1       7.323  32.599  63.985  1.00  0.00     0.038 A 
HETATM   23  C   UNL     1       6.032  32.547  63.464  1.00  0.00     0.076 A 
BRANCH  23  24
HETATM   24  O   UNL     1       4.996  32.623  64.348  1.00  0.00    -0.360 OA
HETATM   25  H   UNL     1       5.161  33.316  65.009  1.00  0.00     0.217 HD
ENDBRANCH  23  24
ENDBRANCH   1  14
TORSDOF 2
ENDMDL
MODEL 6
REMARK VINA RESULT:      -8.9      1.433      2.847
REMARK  2 active torsions:
REMARK  status: ('A' for Active; 'I' for Inactive)
REMARK    1  A    between atoms: C_5  and  C_6 
REMARK    2  A    between atoms: C_17  and  O_18 
ROOT
HETATM    1  C   UNL     1       5.658  25.138  56.044  1.00  0.00     0.200 C 
HETATM    2  N   UNL     1       6.430  24.935  57.237  1.00  0.00    -0.336 N 
HETATM    3  C   UNL     1       7.304  25.864  57.737  1.00  0.00     0.255 C 
HETATM    4  O   UNL     1       8.162  25.563  58.561  1.00  0.00    -0.268 OA
HETATM    5  C   UNL     1       7.159  27.240  57.238  1.00  0.00     0.053 A 
HETATM    6  C   UNL     1       6.094  27.507  56.375  1.00  0.00     0.026 A 
HETATM    7  N   UNL     1       5.161  26.515  56.042  1.00  0.00    -0.267 NA
HETATM    8  C   UNL     1       8.050  28.245  57.629  1.00  0.00     0.019 A 
HETATM    9  C   UNL     1       7.859  29.549  57.176  1.00  0.00     0.001 A 
HETATM   10  C   UNL     1       6.773  29.843  56.353  1.00  0.00     0.002 A 
HETATM   11  C   UNL     1       5.887  28.831  55.969  1.00  0.00     0.024 A 
HETATM   12  H   UNL     1       6.714  23.989  57.441  1.00  0.00     0.164 HD
HETATM   13  H   UNL     1       4.686  26.756  55.181  1.00  0.00     0.130 HD
ENDROOT
BRANCH   1  14
HETATM   14  C   UNL     1       6.285  24.756  54.697  1.00  0.00     0.023 A 
HETATM   15  C   UNL     1       5.868  25.445  53.500  1.00  0.00    -0.014 A 
HETATM   16  C   UNL     1       6.556  25.198  52.281  1.00  0.00    -0.025 A 
HETATM   17  C   UNL     1       4.792  26.371  53.432  1.00  0.00     0.013 A 
HETATM   18  C   UNL     1       6.216  25.894  51.109  1.00  0.00     0.012 A 
HETATM   19  C   UNL     1       7.577  24.246  52.231  1.00  0.00     0.015 A 
HETATM   20  C   UNL     1       5.180  26.823  51.098  1.00  0.00     0.001 A 
HETATM   21  C   UNL     1       4.459  27.053  52.258  1.00  0.00     0.001 A 
HETATM   22  C   UNL     1       7.917  23.512  53.360  1.00  0.00     0.038 A 
HETATM   23  C   UNL     1       7.272  23.759  54.570  1.00  0.00     0.076 A 
BRANCH  23  24
HETATM   24  O   UNL     1       7.601  22.965  55.630  1.00  0.00    -0.360 OA
HETATM   25  H   UNL     1       7.383  22.038  55.441  1.00  0.00     0.217 HD
ENDBRANCH  23  24
ENDBRANCH   1  14
TORSDOF 2
ENDMDL
MODEL 7
REMARK VINA RESULT:      -8.8      2.557      4.331
REMARK  2 active torsions:
REMARK  status: ('A' for Active; 'I' for Inactive)
REMARK    1  A    between atoms: C_5  and  C_6 
REMARK    2  A    between atoms: C_17  and  O_18 
ROOT
HETATM    1  C   UNL     1       7.910  25.583  53.238  1.00  0.00     0.200 C 
HETATM    2  N   UNL     1       7.068  25.297  52.111  1.00  0.00    -0.336 N 
HETATM    3  C   UNL     1       5.778  25.743  52.002  1.00  0.00     0.255 C 
HETATM    4  O   UNL     1       4.990  25.247  51.202  1.00  0.00    -0.268 OA
HETATM    5  C   UNL     1       5.384  26.847  52.892  1.00  0.00     0.053 A 
HETATM    6  C   UNL     1       6.373  27.409  53.701  1.00  0.00     0.026 A 
HETATM    7  N   UNL     1       7.706  26.979  53.628  1.00  0.00    -0.267 NA
HETATM    8  C   UNL     1       4.068  27.322  52.911  1.00  0.00     0.019 A 
HETATM    9  C   UNL     1       3.738  28.399  53.730  1.00  0.00     0.001 A 
HETATM   10  C   UNL     1       4.724  29.004  54.508  1.00  0.00     0.002 A 
HETATM   11  C   UNL     1       6.036  28.522  54.481  1.00  0.00     0.024 A 
HETATM   12  H   UNL     1       7.212  24.413  51.648  1.00  0.00     0.164 HD
HETATM   13  H   UNL     1       8.200  27.222  54.478  1.00  0.00     0.130 HD
ENDROOT
BRANCH   1  14
HETATM   14  C   UNL     1       7.855  24.640  54.446  1.00  0.00     0.023 A 
HETATM   15  C   UNL     1       7.870  23.213  54.234  1.00  0.00    -0.014 A 
HETATM   16  C   UNL     1       7.972  22.344  55.354  1.00  0.00    -0.025 A 
HETATM   17  C   UNL     1       7.778  22.583  52.963  1.00  0.00     0.013 A 
HETATM   18  C   UNL     1       8.048  20.952  55.181  1.00  0.00     0.012 A 
HETATM   19  C   UNL     1       7.989  22.867  56.649  1.00  0.00     0.015 A 
HETATM   20  C   UNL     1       7.996  20.380  53.914  1.00  0.00     0.001 A 
HETATM   21  C   UNL     1       7.848  21.196  52.804  1.00  0.00     0.001 A 
HETATM   22  C   UNL     1       7.879  24.235  56.862  1.00  0.00     0.038 A 
HETATM   23  C   UNL     1       7.804  25.104  55.776  1.00  0.00     0.076 A 
BRANCH  23  24
HETATM   24  O   UNL     1       7.633  26.431  56.044  1.00  0.00    -0.360 OA
HETATM   25  H   UNL     1       8.489  26.891  56.045  1.00  0.00     0.217 HD
ENDBRANCH  23  24
ENDBRANCH   1  14
TORSDOF 2
ENDMDL
MODEL 8
REMARK VINA RESULT:      -8.7      8.729     11.276
REMARK  2 active torsions:
REMARK  status: ('A' for Active; 'I' for Inactive)
REMARK    1  A    between atoms: C_5  and  C_6 
REMARK    2  A    between atoms: C_17  and  O_18 
ROOT
HETATM    1  C   UNL     1       4.196  31.989  61.974  1.00  0.00     0.200 C 
HETATM    2  N   UNL     1       3.052  32.747  62.393  1.00  0.00    -0.336 N 
HETATM    3  C   UNL     1       2.663  33.916  61.795  1.00  0.00     0.255 C 
HETATM    4  O   UNL     1       1.887  34.694  62.344  1.00  0.00    -0.268 OA
HETATM    5  C   UNL     1       3.220  34.193  60.461  1.00  0.00     0.053 A 
HETATM    6  C   UNL     1       4.018  33.208  59.877  1.00  0.00     0.026 A 
HETATM    7  N   UNL     1       4.234  31.975  60.511  1.00  0.00    -0.267 NA
HETATM    8  C   UNL     1       2.944  35.395  59.801  1.00  0.00     0.019 A 
HETATM    9  C   UNL     1       3.449  35.607  58.520  1.00  0.00     0.001 A 
HETATM   10  C   UNL     1       4.207  34.614  57.902  1.00  0.00     0.002 A 
HETATM   11  C   UNL     1       4.476  33.415  58.571  1.00  0.00     0.024 A 
HETATM   12  H   UNL     1       2.821  32.719  63.374  1.00  0.00     0.164 HD
HETATM   13  H   UNL     1       5.071  31.536  60.147  1.00  0.00     0.130 HD
ENDROOT
BRANCH   1  14
HETATM   14  C   UNL     1       5.563  32.340  62.576  1.00  0.00     0.023 A 
HETATM   15  C   UNL     1       5.625  33.001  63.856  1.00  0.00    -0.014 A 
HETATM   16  C   UNL     1       6.887  33.188  64.482  1.00  0.00    -0.025 A 
HETATM   17  C   UNL     1       4.498  33.506  64.563  1.00  0.00     0.013 A 
HETATM   18  C   UNL     1       6.980  33.777  65.755  1.00  0.00     0.012 A 
HETATM   19  C   UNL     1       8.059  32.797  63.830  1.00  0.00     0.015 A 
HETATM   20  C   UNL     1       5.846  34.219  66.428  1.00  0.00     0.001 A 
HETATM   21  C   UNL     1       4.604  34.094  65.826  1.00  0.00     0.001 A 
HETATM   22  C   UNL     1       8.010  32.246  62.556  1.00  0.00     0.038 A 
HETATM   23  C   UNL     1       6.780  32.031  61.938  1.00  0.00     0.076 A 
BRANCH  23  24
HETATM   24  O   UNL     1       6.796  31.547  60.662  1.00  0.00    -0.360 OA
HETATM   25  H   UNL     1       7.621  31.064  60.491  1.00  0.00     0.217 HD
ENDBRANCH  23  24
ENDBRANCH   1  14
TORSDOF 2
ENDMDL
MODEL 9
REMARK VINA RESULT:      -8.6      8.453     12.104
REMARK  2 active torsions:
REMARK  status: ('A' for Active; 'I' for Inactive)
REMARK    1  A    between atoms: C_5  and  C_6 
REMARK    2  A    between atoms: C_17  and  O_18 
ROOT
HETATM    1  C   UNL     1       4.646  32.847  62.672  1.00  0.00     0.200 C 
HETATM    2  N   UNL     1       4.402  32.495  61.301  1.00  0.00    -0.336 N 
HETATM    3  C   UNL     1       5.391  32.405  60.359  1.00  0.00     0.255 C 
HETATM    4  O   UNL     1       5.139  32.406  59.158  1.00  0.00    -0.268 OA
HETATM    5  C   UNL     1       6.771  32.305  60.859  1.00  0.00     0.053 A 
HETATM    6  C   UNL     1       6.954  32.216  62.240  1.00  0.00     0.026 A 
HETATM    7  N   UNL     1       5.860  32.163  63.118  1.00  0.00    -0.267 NA
HETATM    8  C   UNL     1       7.857  32.285  59.977  1.00  0.00     0.019 A 
HETATM    9  C   UNL     1       9.149  32.142  60.480  1.00  0.00     0.001 A 
HETATM   10  C   UNL     1       9.345  32.003  61.853  1.00  0.00     0.002 A 
HETATM   11  C   UNL     1       8.253  32.023  62.726  1.00  0.00     0.024 A 
HETATM   12  H   UNL     1       3.518  32.780  60.908  1.00  0.00     0.164 HD
HETATM   13  H   UNL     1       6.145  32.442  64.049  1.00  0.00     0.130 HD
ENDROOT
BRANCH   1  14
HETATM   14  C   UNL     1       4.656  34.333  63.051  1.00  0.00     0.023 A 
HETATM   15  C   UNL     1       4.615  34.710  64.443  1.00  0.00    -0.014 A 
HETATM   16  C   UNL     1       4.778  36.077  64.798  1.00  0.00    -0.025 A 
HETATM   17  C   UNL     1       4.410  33.806  65.521  1.00  0.00     0.013 A 
HETATM   18  C   UNL     1       4.802  36.472  66.146  1.00  0.00     0.012 A 
HETATM   19  C   UNL     1       4.907  37.050  63.804  1.00  0.00     0.015 A 
HETATM   20  C   UNL     1       4.638  35.546  67.172  1.00  0.00     0.001 A 
HETATM   21  C   UNL     1       4.430  34.213  66.858  1.00  0.00     0.001 A 
HETATM   22  C   UNL     1       4.851  36.702  62.461  1.00  0.00     0.038 A 
HETATM   23  C   UNL     1       4.719  35.365  62.094  1.00  0.00     0.076 A 
BRANCH  23  24
HETATM   24  O   UNL     1       4.606  35.088  60.763  1.00  0.00    -0.360 OA
HETATM   25  H   UNL     1       4.056  34.299  60.624  1.00  0.00     0.217 HD
ENDBRANCH  23  24
ENDBRANCH   1  14
TORSDOF 2
ENDMDL
MODEL 10
REMARK VINA RESULT:      -8.4      2.031      3.903
REMARK  2 active torsions:
REMARK  status: ('A' for Active; 'I' for Inactive)
REMARK    1  A    between atoms: C_5  and  C_6 
REMARK    2  A    between atoms: C_17  and  O_18 
ROOT
HETATM    1  C   UNL     1       7.788  28.200  54.918  1.00  0.00     0.200 C 
HETATM    2  N   UNL     1       6.940  28.431  53.783  1.00  0.00    -0.336 N 
HETATM    3  C   UNL     1       5.624  28.797  53.888  1.00  0.00     0.255 C 
HETATM    4  O   UNL     1       4.849  28.693  52.942  1.00  0.00    -0.268 OA
HETATM    5  C   UNL     1       5.188  29.323  55.191  1.00  0.00     0.053 A 
HETATM    6  C   UNL     1       6.160  29.494  56.178  1.00  0.00     0.026 A 
HETATM    7  N   UNL     1       7.514  29.230  55.920  1.00  0.00    -0.267 NA
HETATM    8  C   UNL     1       3.848  29.653  55.422  1.00  0.00     0.019 A 
HETATM    9  C   UNL     1       3.475  30.193  56.650  1.00  0.00     0.001 A 
HETATM   10  C   UNL     1       4.441  30.416  57.630  1.00  0.00     0.002 A 
HETATM   11  C   UNL     1       5.778  30.083  57.389  1.00  0.00     0.024 A 
HETATM   12  H   UNL     1       7.124  27.881  52.957  1.00  0.00     0.164 HD
HETATM   13  H   UNL     1       8.011  29.072  56.788  1.00  0.00     0.130 HD
ENDROOT
BRANCH   1  14
HETATM   14  C   UNL     1       7.812  26.796  55.535  1.00  0.00     0.023 A 
HETATM   15  C   UNL     1       7.610  25.645  54.689  1.00  0.00    -0.014 A 
HETATM   16  C   UNL     1       7.784  24.343  55.233  1.00  0.00    -0.025 A 
HETATM   17  C   UNL     1       7.233  25.703  53.320  1.00  0.00     0.013 A 
HETATM   18  C   UNL     1       7.652  23.202  54.424  1.00  0.00     0.012 A 
HETATM   19  C   UNL     1       8.078  24.182  56.589  1.00  0.00     0.015 A 
HETATM   20  C   UNL     1       7.322  23.308  53.077  1.00  0.00     0.001 A 
HETATM   21  C   UNL     1       7.099  24.560  52.527  1.00  0.00     0.001 A 
HETATM   22  C   UNL     1       8.179  25.284  57.428  1.00  0.00     0.038 A 
HETATM   23  C   UNL     1       8.039  26.569  56.907  1.00  0.00     0.076 A 
BRANCH  23  24
HETATM   24  O   UNL     1       8.084  27.610  57.788  1.00  0.00    -0.360 OA
HETATM   25  H   UNL     1       8.029  28.458  57.316  1.00  0.00     0.217 HD
ENDBRANCH  23  24
ENDBRANCH   1  14
TORSDOF 2
ENDMDL
