MODEL 1
REMARK VINA RESULT:      -8.2      0.000      0.000
REMARK  8 active torsions:
REMARK  status: ('A' for Active; 'I' for Inactive)
REMARK    1  A    between atoms: C_2  and  S_3 
REMARK    2  A    between atoms: S_3  and  C_4 
REMARK    3  A    between atoms: C_4  and  C_5 
REMARK    4  A    between atoms: C_5  and  N_6 
REMARK       I    between atoms: N_6  and  C_7 
REMARK    5  A    between atoms: N_6  and  C_22 
REMARK    6  A    between atoms: C_7  and  C_8 
REMARK    7  A    between atoms: C_12  and  C_13 
REMARK    8  A    between atoms: C_16  and  O_17 
ROOT
HETATM    1  C   UNL     1       6.333  26.390  56.569  1.00  0.00     0.120 A 
HETATM    2  N   UNL     1       6.808  25.606  57.584  1.00  0.00    -0.272 N 
HETATM    3  H   UNL     1       6.827  25.838  58.572  1.00  0.00     0.189 HD
HETATM    4  N   UNL     1       7.300  24.425  57.188  1.00  0.00    -0.174 NA
HETATM    5  C   UNL     1       7.057  24.382  55.868  1.00  0.00     0.089 A 
HETATM    6  C   UNL     1       6.426  25.588  55.450  1.00  0.00     0.071 A 
ENDROOT
BRANCH   1   7
HETATM    7  C   UNL     1       5.773  27.690  56.841  1.00  0.00     0.272 C 
HETATM    8  N   UNL     1       6.580  28.734  57.343  1.00  0.00    -0.341 N 
HETATM    9  O   UNL     1       4.568  27.864  56.656  1.00  0.00    -0.266 OA
BRANCH   8  10
HETATM   10  C   UNL     1       5.881  30.013  57.546  1.00  0.00     0.136 C 
BRANCH  10  11
HETATM   11  C   UNL     1       5.730  30.784  56.230  1.00  0.00     0.093 C 
BRANCH  11  12
HETATM   12  S   UNL     1       4.215  31.797  56.234  1.00  0.00    -0.168 SA
BRANCH  12  13
HETATM   13  C   UNL     1       3.294  30.898  54.948  1.00  0.00     0.069 C 
HETATM   14  C   UNL     1       4.257  30.171  54.026  1.00  0.00     0.016 C 
ENDBRANCH  12  13
ENDBRANCH  11  12
ENDBRANCH  10  11
ENDBRANCH   8  10
BRANCH   8  15
HETATM   15  C   UNL     1       7.952  28.543  57.886  1.00  0.00     0.087 C 
HETATM   16  C   UNL     1       9.090  28.339  56.859  1.00  0.00     0.025 C 
HETATM   17  C   UNL     1       9.842  29.592  56.402  1.00  0.00     0.002 C 
HETATM   18  C   UNL     1      10.145  30.556  57.541  1.00  0.00     0.000 C 
HETATM   19  C   UNL     1       8.897  30.873  58.353  1.00  0.00     0.002 C 
HETATM   20  C   UNL     1       8.302  29.603  58.946  1.00  0.00     0.025 C 
ENDBRANCH   8  15
ENDBRANCH   1   7
BRANCH   5  21
HETATM   21  C   UNL     1       7.408  23.210  55.058  1.00  0.00    -0.005 A 
HETATM   22  C   UNL     1       7.626  21.965  55.670  1.00  0.00     0.016 A 
HETATM   23  C   UNL     1       7.954  20.836  54.912  1.00  0.00     0.037 A 
HETATM   24  C   UNL     1       8.068  20.953  53.533  1.00  0.00     0.065 A 
HETATM   25  C   UNL     1       7.864  22.175  52.904  1.00  0.00     0.037 A 
HETATM   26  C   UNL     1       7.534  23.301  53.664  1.00  0.00     0.016 A 
BRANCH  24  27
HETATM   27  O   UNL     1       8.386  19.883  52.752  1.00  0.00    -0.361 OA
HETATM   28  H   UNL     1       9.328  19.679  52.877  1.00  0.00     0.217 HD
ENDBRANCH  24  27
ENDBRANCH   5  21
TORSDOF 8
ENDMDL
MODEL 2
REMARK VINA RESULT:      -8.0      4.404      6.163
REMARK  8 active torsions:
REMARK  status: ('A' for Active; 'I' for Inactive)
REMARK    1  A    between atoms: C_2  and  S_3 
REMARK    2  A    between atoms: S_3  and  C_4 
REMARK    3  A    between atoms: C_4  and  C_5 
REMARK    4  A    between atoms: C_5  and  N_6 
REMARK       I    between atoms: N_6  and  C_7 
REMARK    5  A    between atoms: N_6  and  C_22 
REMARK    6  A    between atoms: C_7  and  C_8 
REMARK    7  A    between atoms: C_12  and  C_13 
REMARK    8  A    between atoms: C_16  and  O_17 
ROOT
HETATM    1  C   UNL     1       5.307  26.738  53.195  1.00  0.00     0.120 A 
HETATM    2  N   UNL     1       6.355  27.072  54.008  1.00  0.00    -0.272 N 
HETATM    3  H   UNL     1       6.576  27.997  54.364  1.00  0.00     0.189 HD
HETATM    4  N   UNL     1       7.152  26.046  54.335  1.00  0.00    -0.174 NA
HETATM    5  C   UNL     1       6.558  24.970  53.795  1.00  0.00     0.089 A 
HETATM    6  C   UNL     1       5.382  25.364  53.095  1.00  0.00     0.071 A 
ENDROOT
BRANCH   1   7
HETATM    7  C   UNL     1       4.364  27.736  52.759  1.00  0.00     0.272 C 
HETATM    8  N   UNL     1       4.342  28.172  51.417  1.00  0.00    -0.341 N 
HETATM    9  O   UNL     1       3.597  28.226  53.589  1.00  0.00    -0.266 OA
BRANCH   8  10
HETATM   10  C   UNL     1       3.308  29.174  51.109  1.00  0.00     0.136 C 
BRANCH  10  11
HETATM   11  C   UNL     1       2.136  28.551  50.341  1.00  0.00     0.093 C 
BRANCH  11  12
HETATM   12  S   UNL     1       1.322  29.785  49.276  1.00  0.00    -0.168 SA
BRANCH  12  13
HETATM   13  C   UNL     1       1.310  28.828  47.728  1.00  0.00     0.069 C 
HETATM   14  C   UNL     1       0.964  27.377  48.012  1.00  0.00     0.016 C 
ENDBRANCH  12  13
ENDBRANCH  11  12
ENDBRANCH  10  11
ENDBRANCH   8  10
BRANCH   8  15
HETATM   15  C   UNL     1       5.411  27.879  50.424  1.00  0.00     0.087 C 
HETATM   16  C   UNL     1       5.202  26.649  49.511  1.00  0.00     0.025 C 
HETATM   17  C   UNL     1       4.525  26.898  48.161  1.00  0.00     0.002 C 
HETATM   18  C   UNL     1       5.022  28.158  47.466  1.00  0.00     0.000 C 
HETATM   19  C   UNL     1       4.966  29.366  48.392  1.00  0.00     0.002 C 
HETATM   20  C   UNL     1       5.818  29.134  49.633  1.00  0.00     0.025 C 
ENDBRANCH   8  15
ENDBRANCH   1   7
BRANCH   5  21
HETATM   21  C   UNL     1       7.104  23.620  53.971  1.00  0.00    -0.005 A 
HETATM   22  C   UNL     1       7.229  23.067  55.256  1.00  0.00     0.016 A 
HETATM   23  C   UNL     1       7.740  21.778  55.440  1.00  0.00     0.037 A 
HETATM   24  C   UNL     1       8.134  21.038  54.333  1.00  0.00     0.065 A 
HETATM   25  C   UNL     1       8.027  21.565  53.052  1.00  0.00     0.037 A 
HETATM   26  C   UNL     1       7.514  22.852  52.870  1.00  0.00     0.016 A 
BRANCH  24  27
HETATM   27  O   UNL     1       8.639  19.779  54.462  1.00  0.00    -0.361 OA
HETATM   28  H   UNL     1       8.295  19.393  55.285  1.00  0.00     0.217 HD
ENDBRANCH  24  27
ENDBRANCH   5  21
TORSDOF 8
ENDMDL
MODEL 3
REMARK VINA RESULT:      -8.0      1.253      2.077
REMARK  8 active torsions:
REMARK  status: ('A' for Active; 'I' for Inactive)
REMARK    1  A    between atoms: C_2  and  S_3 
REMARK    2  A    between atoms: S_3  and  C_4 
REMARK    3  A    between atoms: C_4  and  C_5 
REMARK    4  A    between atoms: C_5  and  N_6 
REMARK       I    between atoms: N_6  and  C_7 
REMARK    5  A    between atoms: N_6  and  C_22 
REMARK    6  A    between atoms: C_7  and  C_8 
REMARK    7  A    between atoms: C_12  and  C_13 
REMARK    8  A    between atoms: C_16  and  O_17 
ROOT
HETATM    1  C   UNL     1       6.402  26.810  56.099  1.00  0.00     0.120 A 
HETATM    2  N   UNL     1       6.280  25.984  57.183  1.00  0.00    -0.272 N 
HETATM    3  H   UNL     1       5.948  26.241  58.108  1.00  0.00     0.189 HD
HETATM    4  N   UNL     1       6.660  24.718  56.961  1.00  0.00    -0.174 NA
HETATM    5  C   UNL     1       6.957  24.679  55.652  1.00  0.00     0.089 A 
HETATM    6  C   UNL     1       6.781  25.968  55.074  1.00  0.00     0.071 A 
ENDROOT
BRANCH   1   7
HETATM    7  C   UNL     1       6.033  28.200  56.186  1.00  0.00     0.272 C 
HETATM    8  N   UNL     1       6.902  29.143  56.776  1.00  0.00    -0.341 N 
HETATM    9  O   UNL     1       4.929  28.545  55.764  1.00  0.00    -0.266 OA
BRANCH   8  10
HETATM   10  C   UNL     1       6.407  30.529  56.769  1.00  0.00     0.136 C 
BRANCH  10  11
HETATM   11  C   UNL     1       5.387  30.766  57.888  1.00  0.00     0.093 C 
BRANCH  11  12
HETATM   12  S   UNL     1       5.461  32.485  58.490  1.00  0.00    -0.168 SA
BRANCH  12  13
HETATM   13  C   UNL     1       5.578  32.134  60.272  1.00  0.00     0.069 C 
HETATM   14  C   UNL     1       6.865  32.708  60.835  1.00  0.00     0.016 C 
ENDBRANCH  12  13
ENDBRANCH  11  12
ENDBRANCH  10  11
ENDBRANCH   8  10
BRANCH   8  15
HETATM   15  C   UNL     1       8.101  28.787  57.582  1.00  0.00     0.087 C 
HETATM   16  C   UNL     1       9.412  28.518  56.808  1.00  0.00     0.025 C 
HETATM   17  C   UNL     1      10.354  29.709  56.609  1.00  0.00     0.002 C 
HETATM   18  C   UNL     1      10.487  30.579  57.851  1.00  0.00     0.000 C 
HETATM   19  C   UNL     1       9.126  30.982  58.400  1.00  0.00     0.002 C 
HETATM   20  C   UNL     1       8.305  29.751  58.764  1.00  0.00     0.025 C 
ENDBRANCH   8  15
ENDBRANCH   1   7
BRANCH   5  21
HETATM   21  C   UNL     1       7.376  23.436  54.995  1.00  0.00    -0.005 A 
HETATM   22  C   UNL     1       7.581  22.269  55.750  1.00  0.00     0.016 A 
HETATM   23  C   UNL     1       7.972  21.074  55.138  1.00  0.00     0.037 A 
HETATM   24  C   UNL     1       8.165  21.045  53.763  1.00  0.00     0.065 A 
HETATM   25  C   UNL     1       7.976  22.187  52.995  1.00  0.00     0.037 A 
HETATM   26  C   UNL     1       7.582  23.380  53.609  1.00  0.00     0.016 A 
BRANCH  24  27
HETATM   27  O   UNL     1       8.547  19.905  53.122  1.00  0.00    -0.361 OA
HETATM   28  H   UNL     1       9.190  20.140  52.432  1.00  0.00     0.217 HD
ENDBRANCH  24  27
ENDBRANCH   5  21
TORSDOF 8
ENDMDL
MODEL 4
REMARK VINA RESULT:      -7.9      4.180      5.853
REMARK  8 active torsions:
REMARK  status: ('A' for Active; 'I' for Inactive)
REMARK    1  A    between atoms: C_2  and  S_3 
REMARK    2  A    between atoms: S_3  and  C_4 
REMARK    3  A    between atoms: C_4  and  C_5 
REMARK    4  A    between atoms: C_5  and  N_6 
REMARK       I    between atoms: N_6  and  C_7 
REMARK    5  A    between atoms: N_6  and  C_22 
REMARK    6  A    between atoms: C_7  and  C_8 
REMARK    7  A    between atoms: C_12  and  C_13 
REMARK    8  A    between atoms: C_16  and  O_17 
ROOT
HETATM    1  C   UNL     1       5.735  26.266  53.232  1.00  0.00     0.120 A 
HETATM    2  N   UNL     1       7.063  26.563  53.372  1.00  0.00    -0.272 N 
HETATM    3  H   UNL     1       7.487  27.484  53.321  1.00  0.00     0.189 HD
HETATM    4  N   UNL     1       7.850  25.500  53.586  1.00  0.00    -0.174 NA
HETATM    5  C   UNL     1       7.000  24.465  53.685  1.00  0.00     0.089 A 
HETATM    6  C   UNL     1       5.662  24.913  53.495  1.00  0.00     0.071 A 
ENDROOT
BRANCH   1   7
HETATM    7  C   UNL     1       4.767  27.307  52.996  1.00  0.00     0.272 C 
HETATM    8  N   UNL     1       4.433  27.700  51.683  1.00  0.00    -0.341 N 
HETATM    9  O   UNL     1       4.259  27.870  53.966  1.00  0.00    -0.266 OA
BRANCH   8  10
HETATM   10  C   UNL     1       3.408  28.753  51.594  1.00  0.00     0.136 C 
BRANCH  10  11
HETATM   11  C   UNL     1       3.979  30.124  51.974  1.00  0.00     0.093 C 
BRANCH  11  12
HETATM   12  S   UNL     1       2.914  31.470  51.361  1.00  0.00    -0.168 SA
BRANCH  12  13
HETATM   13  C   UNL     1       3.992  32.067  50.021  1.00  0.00     0.069 C 
HETATM   14  C   UNL     1       5.419  32.206  50.520  1.00  0.00     0.016 C 
ENDBRANCH  12  13
ENDBRANCH  11  12
ENDBRANCH  10  11
ENDBRANCH   8  10
BRANCH   8  15
HETATM   15  C   UNL     1       5.202  27.308  50.471  1.00  0.00     0.087 C 
HETATM   16  C   UNL     1       4.718  26.053  49.708  1.00  0.00     0.025 C 
HETATM   17  C   UNL     1       3.731  26.280  48.559  1.00  0.00     0.002 C 
HETATM   18  C   UNL     1       4.088  27.481  47.695  1.00  0.00     0.000 C 
HETATM   19  C   UNL     1       4.318  28.728  48.537  1.00  0.00     0.002 C 
HETATM   20  C   UNL     1       5.447  28.504  49.535  1.00  0.00     0.025 C 
ENDBRANCH   8  15
ENDBRANCH   1   7
BRANCH   5  21
HETATM   21  C   UNL     1       7.473  23.106  53.970  1.00  0.00    -0.005 A 
HETATM   22  C   UNL     1       7.878  22.261  52.924  1.00  0.00     0.016 A 
HETATM   23  C   UNL     1       8.339  20.966  53.180  1.00  0.00     0.037 A 
HETATM   24  C   UNL     1       8.392  20.509  54.491  1.00  0.00     0.065 A 
HETATM   25  C   UNL     1       7.991  21.323  55.543  1.00  0.00     0.037 A 
HETATM   26  C   UNL     1       7.532  22.618  55.285  1.00  0.00     0.016 A 
BRANCH  24  27
HETATM   27  O   UNL     1       8.832  19.255  54.790  1.00  0.00    -0.361 OA
HETATM   28  H   UNL     1       8.464  18.636  54.137  1.00  0.00     0.217 HD
ENDBRANCH  24  27
ENDBRANCH   5  21
TORSDOF 8
ENDMDL
MODEL 5
REMARK VINA RESULT:      -7.7      3.801      8.751
REMARK  8 active torsions:
REMARK  status: ('A' for Active; 'I' for Inactive)
REMARK    1  A    between atoms: C_2  and  S_3 
REMARK    2  A    between atoms: S_3  and  C_4 
REMARK    3  A    between atoms: C_4  and  C_5 
REMARK    4  A    between atoms: C_5  and  N_6 
REMARK       I    between atoms: N_6  and  C_7 
REMARK    5  A    between atoms: N_6  and  C_22 
REMARK    6  A    between atoms: C_7  and  C_8 
REMARK    7  A    between atoms: C_12  and  C_13 
REMARK    8  A    between atoms: C_16  and  O_17 
ROOT
HETATM    1  C   UNL     1       8.973  30.377  57.761  1.00  0.00     0.120 A 
HETATM    2  N   UNL     1       9.978  31.270  58.012  1.00  0.00    -0.272 N 
HETATM    3  H   UNL     1      10.788  31.453  57.426  1.00  0.00     0.189 HD
HETATM    4  N   UNL     1       9.848  31.943  59.163  1.00  0.00    -0.174 NA
HETATM    5  C   UNL     1       8.661  31.550  59.652  1.00  0.00     0.089 A 
HETATM    6  C   UNL     1       8.071  30.588  58.784  1.00  0.00     0.071 A 
ENDROOT
BRANCH   1   7
HETATM    7  C   UNL     1       8.977  29.579  56.561  1.00  0.00     0.272 C 
HETATM    8  N   UNL     1       8.049  28.531  56.387  1.00  0.00    -0.341 N 
HETATM    9  O   UNL     1       9.828  29.811  55.702  1.00  0.00    -0.266 OA
BRANCH   8  10
HETATM   10  C   UNL     1       8.151  27.821  55.101  1.00  0.00     0.136 C 
BRANCH  10  11
HETATM   11  C   UNL     1       7.141  28.358  54.082  1.00  0.00     0.093 C 
BRANCH  11  12
HETATM   12  S   UNL     1       6.400  27.002  53.116  1.00  0.00    -0.168 SA
BRANCH  12  13
HETATM   13  C   UNL     1       7.595  25.696  53.539  1.00  0.00     0.069 C 
HETATM   14  C   UNL     1       7.948  24.889  52.302  1.00  0.00     0.016 C 
ENDBRANCH  12  13
ENDBRANCH  11  12
ENDBRANCH  10  11
ENDBRANCH   8  10
BRANCH   8  15
HETATM   15  C   UNL     1       7.198  27.976  57.475  1.00  0.00     0.087 C 
HETATM   16  C   UNL     1       5.667  28.101  57.300  1.00  0.00     0.025 C 
HETATM   17  C   UNL     1       4.949  26.922  56.638  1.00  0.00     0.002 C 
HETATM   18  C   UNL     1       5.450  25.569  57.123  1.00  0.00     0.000 C 
HETATM   19  C   UNL     1       6.966  25.469  57.033  1.00  0.00     0.002 C 
HETATM   20  C   UNL     1       7.629  26.554  57.872  1.00  0.00     0.025 C 
ENDBRANCH   8  15
ENDBRANCH   1   7
BRANCH   5  21
HETATM   21  C   UNL     1       8.121  32.104  60.899  1.00  0.00    -0.005 A 
HETATM   22  C   UNL     1       6.969  32.908  60.878  1.00  0.00     0.016 A 
HETATM   23  C   UNL     1       6.438  33.437  62.058  1.00  0.00     0.037 A 
HETATM   24  C   UNL     1       7.063  33.164  63.268  1.00  0.00     0.065 A 
HETATM   25  C   UNL     1       8.207  32.377  63.315  1.00  0.00     0.037 A 
HETATM   26  C   UNL     1       8.735  31.847  62.134  1.00  0.00     0.016 A 
BRANCH  24  27
HETATM   27  O   UNL     1       6.583  33.657  64.444  1.00  0.00    -0.361 OA
HETATM   28  H   UNL     1       6.105  34.483  64.259  1.00  0.00     0.217 HD
ENDBRANCH  24  27
ENDBRANCH   5  21
TORSDOF 8
ENDMDL
MODEL 6
REMARK VINA RESULT:      -7.7      2.772      3.711
REMARK  8 active torsions:
REMARK  status: ('A' for Active; 'I' for Inactive)
REMARK    1  A    between atoms: C_2  and  S_3 
REMARK    2  A    between atoms: S_3  and  C_4 
REMARK    3  A    between atoms: C_4  and  C_5 
REMARK    4  A    between atoms: C_5  and  N_6 
REMARK       I    between atoms: N_6  and  C_7 
REMARK    5  A    between atoms: N_6  and  C_22 
REMARK    6  A    between atoms: C_7  and  C_8 
REMARK    7  A    between atoms: C_12  and  C_13 
REMARK    8  A    between atoms: C_16  and  O_17 
ROOT
HETATM    1  C   UNL     1       5.871  26.097  53.015  1.00  0.00     0.120 A 
HETATM    2  N   UNL     1       7.210  26.309  52.829  1.00  0.00    -0.272 N 
HETATM    3  H   UNL     1       7.654  27.180  52.555  1.00  0.00     0.189 HD
HETATM    4  N   UNL     1       7.975  25.228  53.028  1.00  0.00    -0.174 NA
HETATM    5  C   UNL     1       7.122  24.283  53.454  1.00  0.00     0.089 A 
HETATM    6  C   UNL     1       5.796  24.802  53.484  1.00  0.00     0.071 A 
ENDROOT
BRANCH   1   7
HETATM    7  C   UNL     1       4.923  27.168  52.836  1.00  0.00     0.272 C 
HETATM    8  N   UNL     1       4.668  28.088  53.875  1.00  0.00    -0.341 N 
HETATM    9  O   UNL     1       4.316  27.245  51.768  1.00  0.00    -0.266 OA
BRANCH   8  10
HETATM   10  C   UNL     1       3.699  29.145  53.541  1.00  0.00     0.136 C 
BRANCH  10  11
HETATM   11  C   UNL     1       4.402  30.418  53.057  1.00  0.00     0.093 C 
BRANCH  11  12
HETATM   12  S   UNL     1       3.908  30.832  51.353  1.00  0.00    -0.168 SA
BRANCH  12  13
HETATM   13  C   UNL     1       5.457  30.378  50.513  1.00  0.00     0.069 C 
HETATM   14  C   UNL     1       5.349  30.660  49.025  1.00  0.00     0.016 C 
ENDBRANCH  12  13
ENDBRANCH  11  12
ENDBRANCH  10  11
ENDBRANCH   8  10
BRANCH   8  15
HETATM   15  C   UNL     1       5.107  27.902  55.285  1.00  0.00     0.087 C 
HETATM   16  C   UNL     1       6.502  28.453  55.662  1.00  0.00     0.025 C 
HETATM   17  C   UNL     1       6.554  29.878  56.220  1.00  0.00     0.002 C 
HETATM   18  C   UNL     1       5.437  30.174  57.211  1.00  0.00     0.000 C 
HETATM   19  C   UNL     1       4.074  29.807  56.642  1.00  0.00     0.002 C 
HETATM   20  C   UNL     1       4.019  28.327  56.286  1.00  0.00     0.025 C 
ENDBRANCH   8  15
ENDBRANCH   1   7
BRANCH   5  21
HETATM   21  C   UNL     1       7.584  22.942  53.832  1.00  0.00    -0.005 A 
HETATM   22  C   UNL     1       7.614  22.557  55.182  1.00  0.00     0.016 A 
HETATM   23  C   UNL     1       8.044  21.280  55.558  1.00  0.00     0.037 A 
HETATM   24  C   UNL     1       8.451  20.384  54.578  1.00  0.00     0.065 A 
HETATM   25  C   UNL     1       8.437  20.743  53.237  1.00  0.00     0.037 A 
HETATM   26  C   UNL     1       8.004  22.019  52.863  1.00  0.00     0.016 A 
BRANCH  24  27
HETATM   27  O   UNL     1       8.879  19.130  54.895  1.00  0.00    -0.361 OA
HETATM   28  H   UNL     1       9.257  18.723  54.098  1.00  0.00     0.217 HD
ENDBRANCH  24  27
ENDBRANCH   5  21
TORSDOF 8
ENDMDL
MODEL 7
REMARK VINA RESULT:      -7.7      3.300      8.393
REMARK  8 active torsions:
REMARK  status: ('A' for Active; 'I' for Inactive)
REMARK    1  A    between atoms: C_2  and  S_3 
REMARK    2  A    between atoms: S_3  and  C_4 
REMARK    3  A    between atoms: C_4  and  C_5 
REMARK    4  A    between atoms: C_5  and  N_6 
REMARK       I    between atoms: N_6  and  C_7 
REMARK    5  A    between atoms: N_6  and  C_22 
REMARK    6  A    between atoms: C_7  and  C_8 
REMARK    7  A    between atoms: C_12  and  C_13 
REMARK    8  A    between atoms: C_16  and  O_17 
ROOT
HETATM    1  C   UNL     1       7.605  26.582  57.047  1.00  0.00     0.120 A 
HETATM    2  N   UNL     1       8.804  27.238  57.115  1.00  0.00    -0.272 N 
HETATM    3  H   UNL     1       9.714  26.867  56.862  1.00  0.00     0.189 HD
HETATM    4  N   UNL     1       8.723  28.493  57.578  1.00  0.00    -0.174 NA
HETATM    5  C   UNL     1       7.408  28.711  57.736  1.00  0.00     0.089 A 
HETATM    6  C   UNL     1       6.674  27.542  57.386  1.00  0.00     0.071 A 
ENDROOT
BRANCH   1   7
HETATM    7  C   UNL     1       7.534  25.224  56.569  1.00  0.00     0.272 C 
HETATM    8  N   UNL     1       7.286  24.949  55.207  1.00  0.00    -0.341 N 
HETATM    9  O   UNL     1       7.663  24.306  57.379  1.00  0.00    -0.266 OA
BRANCH   8  10
HETATM   10  C   UNL     1       7.270  23.519  54.858  1.00  0.00     0.136 C 
BRANCH  10  11
HETATM   11  C   UNL     1       8.651  23.038  54.400  1.00  0.00     0.093 C 
BRANCH  11  12
HETATM   12  S   UNL     1       9.165  21.551  55.319  1.00  0.00    -0.168 SA
BRANCH  12  13
HETATM   13  C   UNL     1       8.234  20.316  54.360  1.00  0.00     0.069 C 
HETATM   14  C   UNL     1       8.431  20.549  52.873  1.00  0.00     0.016 C 
ENDBRANCH  12  13
ENDBRANCH  11  12
ENDBRANCH  10  11
ENDBRANCH   8  10
BRANCH   8  15
HETATM   15  C   UNL     1       6.814  25.960  54.222  1.00  0.00     0.087 C 
HETATM   16  C   UNL     1       7.517  25.976  52.844  1.00  0.00     0.025 C 
HETATM   17  C   UNL     1       6.880  25.136  51.734  1.00  0.00     0.002 C 
HETATM   18  C   UNL     1       5.361  25.239  51.703  1.00  0.00     0.000 C 
HETATM   19  C   UNL     1       4.754  24.973  53.073  1.00  0.00     0.002 C 
HETATM   20  C   UNL     1       5.281  25.969  54.098  1.00  0.00     0.025 C 
ENDBRANCH   8  15
ENDBRANCH   1   7
BRANCH   5  21
HETATM   21  C   UNL     1       6.892  30.008  58.190  1.00  0.00    -0.005 A 
HETATM   22  C   UNL     1       5.685  30.510  57.677  1.00  0.00     0.016 A 
HETATM   23  C   UNL     1       5.176  31.740  58.105  1.00  0.00     0.037 A 
HETATM   24  C   UNL     1       5.880  32.477  59.048  1.00  0.00     0.065 A 
HETATM   25  C   UNL     1       7.080  32.005  59.566  1.00  0.00     0.037 A 
HETATM   26  C   UNL     1       7.586  30.774  59.139  1.00  0.00     0.016 A 
BRANCH  24  27
HETATM   27  O   UNL     1       5.425  33.681  59.495  1.00  0.00    -0.361 OA
HETATM   28  H   UNL     1       5.468  34.317  58.762  1.00  0.00     0.217 HD
ENDBRANCH  24  27
ENDBRANCH   5  21
TORSDOF 8
ENDMDL
MODEL 8
REMARK VINA RESULT:      -7.6      1.812      4.025
REMARK  8 active torsions:
REMARK  status: ('A' for Active; 'I' for Inactive)
REMARK    1  A    between atoms: C_2  and  S_3 
REMARK    2  A    between atoms: S_3  and  C_4 
REMARK    3  A    between atoms: C_4  and  C_5 
REMARK    4  A    between atoms: C_5  and  N_6 
REMARK       I    between atoms: N_6  and  C_7 
REMARK    5  A    between atoms: N_6  and  C_22 
REMARK    6  A    between atoms: C_7  and  C_8 
REMARK    7  A    between atoms: C_12  and  C_13 
REMARK    8  A    between atoms: C_16  and  O_17 
ROOT
HETATM    1  C   UNL     1       7.442  26.764  56.413  1.00  0.00     0.120 A 
HETATM    2  N   UNL     1       6.774  25.930  57.267  1.00  0.00    -0.272 N 
HETATM    3  H   UNL     1       6.293  26.195  58.122  1.00  0.00     0.189 HD
HETATM    4  N   UNL     1       6.791  24.639  56.909  1.00  0.00    -0.174 NA
HETATM    5  C   UNL     1       7.415  24.627  55.720  1.00  0.00     0.089 A 
HETATM    6  C   UNL     1       7.813  25.947  55.364  1.00  0.00     0.071 A 
ENDROOT
BRANCH   1   7
HETATM    7  C   UNL     1       7.511  28.181  56.668  1.00  0.00     0.272 C 
HETATM    8  N   UNL     1       6.350  28.981  56.616  1.00  0.00    -0.341 N 
HETATM    9  O   UNL     1       8.609  28.685  56.902  1.00  0.00    -0.266 OA
BRANCH   8  10
HETATM   10  C   UNL     1       6.565  30.404  56.927  1.00  0.00     0.136 C 
BRANCH  10  11
HETATM   11  C   UNL     1       6.481  30.668  58.434  1.00  0.00     0.093 C 
BRANCH  11  12
HETATM   12  S   UNL     1       8.014  31.437  59.051  1.00  0.00    -0.168 SA
BRANCH  12  13
HETATM   13  C   UNL     1       7.443  31.849  60.729  1.00  0.00     0.069 C 
HETATM   14  C   UNL     1       8.613  31.850  61.696  1.00  0.00     0.016 C 
ENDBRANCH  12  13
ENDBRANCH  11  12
ENDBRANCH  10  11
ENDBRANCH   8  10
BRANCH   8  15
HETATM   15  C   UNL     1       5.049  28.535  56.047  1.00  0.00     0.087 C 
HETATM   16  C   UNL     1       3.811  29.406  56.360  1.00  0.00     0.025 C 
HETATM   17  C   UNL     1       3.460  30.499  55.346  1.00  0.00     0.002 C 
HETATM   18  C   UNL     1       3.596  30.039  53.901  1.00  0.00     0.000 C 
HETATM   19  C   UNL     1       4.953  29.400  53.642  1.00  0.00     0.002 C 
HETATM   20  C   UNL     1       5.164  28.195  54.550  1.00  0.00     0.025 C 
ENDBRANCH   8  15
ENDBRANCH   1   7
BRANCH   5  21
HETATM   21  C   UNL     1       7.596  23.385  54.959  1.00  0.00    -0.005 A 
HETATM   22  C   UNL     1       7.678  23.418  53.557  1.00  0.00     0.016 A 
HETATM   23  C   UNL     1       7.858  22.245  52.818  1.00  0.00     0.037 A 
HETATM   24  C   UNL     1       7.952  21.029  53.483  1.00  0.00     0.065 A 
HETATM   25  C   UNL     1       7.867  20.969  54.868  1.00  0.00     0.037 A 
HETATM   26  C   UNL     1       7.690  22.144  55.606  1.00  0.00     0.016 A 
BRANCH  24  27
HETATM   27  O   UNL     1       8.127  19.859  52.807  1.00  0.00    -0.361 OA
HETATM   28  H   UNL     1       8.502  20.062  51.933  1.00  0.00     0.217 HD
ENDBRANCH  24  27
ENDBRANCH   5  21
TORSDOF 8
ENDMDL
MODEL 9
REMARK VINA RESULT:      -7.3      6.168      8.864
REMARK  8 active torsions:
REMARK  status: ('A' for Active; 'I' for Inactive)
REMARK    1  A    between atoms: C_2  and  S_3 
REMARK    2  A    between atoms: S_3  and  C_4 
REMARK    3  A    between atoms: C_4  and  C_5 
REMARK    4  A    between atoms: C_5  and  N_6 
REMARK       I    between atoms: N_6  and  C_7 
REMARK    5  A    between atoms: N_6  and  C_22 
REMARK    6  A    between atoms: C_7  and  C_8 
REMARK    7  A    between atoms: C_12  and  C_13 
REMARK    8  A    between atoms: C_16  and  O_17 
ROOT
HETATM    1  C   UNL     1       5.622  32.231  61.678  1.00  0.00     0.120 A 
HETATM    2  N   UNL     1       6.498  31.565  62.491  1.00  0.00    -0.272 N 
HETATM    3  H   UNL     1       6.391  31.392  63.486  1.00  0.00     0.189 HD
HETATM    4  N   UNL     1       7.601  31.123  61.873  1.00  0.00    -0.174 NA
HETATM    5  C   UNL     1       7.408  31.425  60.579  1.00  0.00     0.089 A 
HETATM    6  C   UNL     1       6.163  32.097  60.416  1.00  0.00     0.071 A 
ENDROOT
BRANCH   1   7
HETATM    7  C   UNL     1       4.390  32.765  62.202  1.00  0.00     0.272 C 
HETATM    8  N   UNL     1       4.346  34.056  62.771  1.00  0.00    -0.341 N 
HETATM    9  O   UNL     1       3.381  32.060  62.171  1.00  0.00    -0.266 OA
BRANCH   8  10
HETATM   10  C   UNL     1       3.017  34.481  63.238  1.00  0.00     0.136 C 
BRANCH  10  11
HETATM   11  C   UNL     1       2.382  35.491  62.276  1.00  0.00     0.093 C 
BRANCH  11  12
HETATM   12  S   UNL     1       1.273  34.661  61.092  1.00  0.00    -0.168 SA
BRANCH  12  13
HETATM   13  C   UNL     1       2.388  34.647  59.654  1.00  0.00     0.069 C 
HETATM   14  C   UNL     1       3.288  35.869  59.676  1.00  0.00     0.016 C 
ENDBRANCH  12  13
ENDBRANCH  11  12
ENDBRANCH  10  11
ENDBRANCH   8  10
BRANCH   8  15
HETATM   15  C   UNL     1       5.550  34.852  63.134  1.00  0.00     0.087 C 
HETATM   16  C   UNL     1       5.938  36.009  62.184  1.00  0.00     0.025 C 
HETATM   17  C   UNL     1       5.374  37.394  62.515  1.00  0.00     0.002 C 
HETATM   18  C   UNL     1       5.420  37.717  64.002  1.00  0.00     0.000 C 
HETATM   19  C   UNL     1       4.797  36.606  64.835  1.00  0.00     0.002 C 
HETATM   20  C   UNL     1       5.527  35.288  64.609  1.00  0.00     0.025 C 
ENDBRANCH   8  15
ENDBRANCH   1   7
BRANCH   5  21
HETATM   21  C   UNL     1       8.386  31.057  59.549  1.00  0.00    -0.005 A 
HETATM   22  C   UNL     1       8.207  29.893  58.785  1.00  0.00     0.016 A 
HETATM   23  C   UNL     1       9.125  29.532  57.794  1.00  0.00     0.037 A 
HETATM   24  C   UNL     1      10.234  30.338  57.568  1.00  0.00     0.065 A 
HETATM   25  C   UNL     1      10.437  31.491  58.315  1.00  0.00     0.037 A 
HETATM   26  C   UNL     1       9.516  31.852  59.303  1.00  0.00     0.016 A 
BRANCH  24  27
HETATM   27  O   UNL     1      11.156  30.028  56.614  1.00  0.00    -0.361 OA
HETATM   28  H   UNL     1      11.217  30.772  55.991  1.00  0.00     0.217 HD
ENDBRANCH  24  27
ENDBRANCH   5  21
TORSDOF 8
ENDMDL
MODEL 10
REMARK VINA RESULT:      -7.2      2.457      4.477
REMARK  8 active torsions:
REMARK  status: ('A' for Active; 'I' for Inactive)
REMARK    1  A    between atoms: C_2  and  S_3 
REMARK    2  A    between atoms: S_3  and  C_4 
REMARK    3  A    between atoms: C_4  and  C_5 
REMARK    4  A    between atoms: C_5  and  N_6 
REMARK       I    between atoms: N_6  and  C_7 
REMARK    5  A    between atoms: N_6  and  C_22 
REMARK    6  A    between atoms: C_7  and  C_8 
REMARK    7  A    between atoms: C_12  and  C_13 
REMARK    8  A    between atoms: C_16  and  O_17 
ROOT
HETATM    1  C   UNL     1       7.848  28.579  56.039  1.00  0.00     0.120 A 
HETATM    2  N   UNL     1       7.762  28.791  54.690  1.00  0.00    -0.272 N 
HETATM    3  H   UNL     1       7.781  29.688  54.214  1.00  0.00     0.189 HD
HETATM    4  N   UNL     1       7.629  27.675  53.961  1.00  0.00    -0.174 NA
HETATM    5  C   UNL     1       7.724  26.675  54.852  1.00  0.00     0.089 A 
HETATM    6  C   UNL     1       7.889  27.205  56.164  1.00  0.00     0.071 A 
ENDROOT
BRANCH   1   7
HETATM    7  C   UNL     1       7.994  29.685  56.952  1.00  0.00     0.272 C 
HETATM    8  N   UNL     1       6.861  30.330  57.492  1.00  0.00    -0.341 N 
HETATM    9  O   UNL     1       9.128  30.076  57.227  1.00  0.00    -0.266 OA
BRANCH   8  10
HETATM   10  C   UNL     1       7.161  31.423  58.431  1.00  0.00     0.136 C 
BRANCH  10  11
HETATM   11  C   UNL     1       7.673  30.885  59.772  1.00  0.00     0.093 C 
BRANCH  11  12
HETATM   12  S   UNL     1       7.110  31.929  61.155  1.00  0.00    -0.168 SA
BRANCH  12  13
HETATM   13  C   UNL     1       8.333  31.402  62.396  1.00  0.00     0.069 C 
HETATM   14  C   UNL     1       9.315  30.423  61.780  1.00  0.00     0.016 C 
ENDBRANCH  12  13
ENDBRANCH  11  12
ENDBRANCH  10  11
ENDBRANCH   8  10
BRANCH   8  15
HETATM   15  C   UNL     1       5.472  30.141  56.991  1.00  0.00     0.087 C 
HETATM   16  C   UNL     1       4.331  30.269  58.026  1.00  0.00     0.025 C 
HETATM   17  C   UNL     1       3.693  31.653  58.185  1.00  0.00     0.002 C 
HETATM   18  C   UNL     1       3.463  32.360  56.857  1.00  0.00     0.000 C 
HETATM   19  C   UNL     1       4.726  32.381  56.008  1.00  0.00     0.002 C 
HETATM   20  C   UNL     1       5.204  30.964  55.719  1.00  0.00     0.025 C 
ENDBRANCH   8  15
ENDBRANCH   1   7
BRANCH   5  21
HETATM   21  C   UNL     1       7.674  25.268  54.439  1.00  0.00    -0.005 A 
HETATM   22  C   UNL     1       7.421  24.259  55.383  1.00  0.00     0.016 A 
HETATM   23  C   UNL     1       7.362  22.915  55.003  1.00  0.00     0.037 A 
HETATM   24  C   UNL     1       7.562  22.574  53.672  1.00  0.00     0.065 A 
HETATM   25  C   UNL     1       7.821  23.552  52.720  1.00  0.00     0.037 A 
HETATM   26  C   UNL     1       7.876  24.897  53.101  1.00  0.00     0.016 A 
BRANCH  24  27
HETATM   27  O   UNL     1       7.516  21.278  53.254  1.00  0.00    -0.361 OA
HETATM   28  H   UNL     1       7.674  21.258  52.295  1.00  0.00     0.217 HD
ENDBRANCH  24  27
ENDBRANCH   5  21
TORSDOF 8
ENDMDL
