MODEL 1
REMARK VINA RESULT:      -9.5      0.000      0.000
REMARK  6 active torsions:
REMARK  status: ('A' for Active; 'I' for Inactive)
REMARK    1  A    between atoms: C_3  and  C_4 
REMARK    2  A    between atoms: C_5  and  C_6 
REMARK    3  A    between atoms: C_8  and  N_9 
REMARK       I    between atoms: N_9  and  C_10 
REMARK    4  A    between atoms: C_10  and  C_11 
REMARK    5  A    between atoms: C_11  and  C_12 
REMARK    6  A    between atoms: C_15  and  O_16 
ROOT
HETATM    1  C   UNL     1       8.803  30.356  59.052  1.00  0.00     0.020 A 
HETATM    2  C   UNL     1       8.041  29.330  58.480  1.00  0.00     0.050 A 
HETATM    3  C   UNL     1       8.454  28.721  57.294  1.00  0.00     0.036 A 
HETATM    4  C   UNL     1       9.646  29.144  56.692  1.00  0.00     0.029 A 
HETATM    5  C   UNL     1      10.418  30.156  57.272  1.00  0.00     0.004 A 
HETATM    6  C   UNL     1       9.993  30.764  58.453  1.00  0.00     0.021 A 
ENDROOT
BRANCH   3   7
HETATM    7  N   UNL     1       7.711  27.724  56.627  1.00  0.00    -0.327 N 
HETATM    8  C   UNL     1       7.664  26.371  56.925  1.00  0.00     0.226 C 
HETATM    9  O   UNL     1       8.373  25.777  57.732  1.00  0.00    -0.273 OA
HETATM   10  H   UNL     1       7.131  28.045  55.862  1.00  0.00     0.169 HD
BRANCH   8  11
HETATM   11  C   UNL     1       6.583  25.634  56.148  1.00  0.00     0.141 C 
BRANCH  11  12
HETATM   12  C   UNL     1       7.162  24.511  55.324  1.00  0.00    -0.049 A 
HETATM   13  C   UNL     1       7.563  24.722  53.998  1.00  0.00     0.010 A 
HETATM   14  C   UNL     1       8.050  23.661  53.232  1.00  0.00     0.037 A 
HETATM   15  C   UNL     1       8.136  22.391  53.788  1.00  0.00     0.065 A 
HETATM   16  C   UNL     1       7.750  22.161  55.104  1.00  0.00     0.037 A 
HETATM   17  C   UNL     1       7.263  23.221  55.869  1.00  0.00     0.010 A 
BRANCH  15  18
HETATM   18  O   UNL     1       8.608  21.383  53.000  1.00  0.00    -0.361 OA
HETATM   19  H   UNL     1       8.718  20.589  53.550  1.00  0.00     0.217 HD
ENDBRANCH  15  18
ENDBRANCH  11  12
ENDBRANCH   8  11
ENDBRANCH   3   7
BRANCH   1  20
HETATM   20  C   UNL     1       8.329  31.009  60.233  1.00  0.00    -0.060 C 
HETATM   21  C   UNL     1       7.881  31.537  61.214  1.00  0.00    -0.041 C 
BRANCH  21  22
HETATM   22  C   UNL     1       7.300  32.135  62.372  1.00  0.00     0.110 A 
HETATM   23  C   UNL     1       8.097  32.681  63.369  1.00  0.00     0.041 A 
HETATM   24  C   UNL     1       7.471  33.224  64.486  1.00  0.00     0.004 A 
HETATM   25  C   UNL     1       6.082  33.200  64.565  1.00  0.00     0.019 A 
HETATM   26  C   UNL     1       5.373  32.634  63.516  1.00  0.00     0.118 A 
HETATM   27  N   UNL     1       5.951  32.100  62.418  1.00  0.00    -0.252 NA
ENDBRANCH  21  22
ENDBRANCH   1  20
TORSDOF 6
ENDMDL
MODEL 2
REMARK VINA RESULT:      -9.4      2.367      3.624
REMARK  6 active torsions:
REMARK  status: ('A' for Active; 'I' for Inactive)
REMARK    1  A    between atoms: C_3  and  C_4 
REMARK    2  A    between atoms: C_5  and  C_6 
REMARK    3  A    between atoms: C_8  and  N_9 
REMARK       I    between atoms: N_9  and  C_10 
REMARK    4  A    between atoms: C_10  and  C_11 
REMARK    5  A    between atoms: C_11  and  C_12 
REMARK    6  A    between atoms: C_15  and  O_16 
ROOT
HETATM    1  C   UNL     1       6.743  29.243  56.246  1.00  0.00     0.020 A 
HETATM    2  C   UNL     1       7.440  28.194  55.631  1.00  0.00     0.050 A 
HETATM    3  C   UNL     1       6.936  27.594  54.475  1.00  0.00     0.036 A 
HETATM    4  C   UNL     1       5.731  28.063  53.936  1.00  0.00     0.029 A 
HETATM    5  C   UNL     1       5.045  29.122  54.538  1.00  0.00     0.004 A 
HETATM    6  C   UNL     1       5.550  29.710  55.697  1.00  0.00     0.021 A 
ENDROOT
BRANCH   3   7
HETATM    7  N   UNL     1       7.549  26.498  53.834  1.00  0.00    -0.327 N 
HETATM    8  C   UNL     1       7.092  25.190  53.788  1.00  0.00     0.226 C 
HETATM    9  O   UNL     1       6.149  24.723  54.421  1.00  0.00    -0.273 OA
HETATM   10  H   UNL     1       8.404  26.702  53.332  1.00  0.00     0.169 HD
BRANCH   8  11
HETATM   11  C   UNL     1       7.881  24.324  52.816  1.00  0.00     0.141 C 
BRANCH  11  12
HETATM   12  C   UNL     1       8.206  22.977  53.413  1.00  0.00    -0.049 A 
HETATM   13  C   UNL     1       7.832  21.792  52.764  1.00  0.00     0.010 A 
HETATM   14  C   UNL     1       8.096  20.554  53.353  1.00  0.00     0.037 A 
HETATM   15  C   UNL     1       8.731  20.497  54.588  1.00  0.00     0.065 A 
HETATM   16  C   UNL     1       9.116  21.660  55.246  1.00  0.00     0.037 A 
HETATM   17  C   UNL     1       8.852  22.898  54.657  1.00  0.00     0.010 A 
BRANCH  15  18
HETATM   18  O   UNL     1       8.958  19.267  55.130  1.00  0.00    -0.361 OA
HETATM   19  H   UNL     1       9.353  19.388  56.010  1.00  0.00     0.217 HD
ENDBRANCH  15  18
ENDBRANCH  11  12
ENDBRANCH   8  11
ENDBRANCH   3   7
BRANCH   1  20
HETATM   20  C   UNL     1       7.244  29.801  57.464  1.00  0.00    -0.060 C 
HETATM   21  C   UNL     1       7.612  30.284  58.499  1.00  0.00    -0.041 C 
BRANCH  21  22
HETATM   22  C   UNL     1       7.995  30.865  59.745  1.00  0.00     0.110 A 
HETATM   23  C   UNL     1       7.443  32.064  60.173  1.00  0.00     0.041 A 
HETATM   24  C   UNL     1       7.879  32.593  61.384  1.00  0.00     0.004 A 
HETATM   25  C   UNL     1       8.845  31.909  62.115  1.00  0.00     0.019 A 
HETATM   26  C   UNL     1       9.335  30.717  61.604  1.00  0.00     0.118 A 
HETATM   27  N   UNL     1       8.931  30.177  60.433  1.00  0.00    -0.252 NA
ENDBRANCH  21  22
ENDBRANCH   1  20
TORSDOF 6
ENDMDL
MODEL 3
REMARK VINA RESULT:      -9.2      6.571     10.213
REMARK  6 active torsions:
REMARK  status: ('A' for Active; 'I' for Inactive)
REMARK    1  A    between atoms: C_3  and  C_4 
REMARK    2  A    between atoms: C_5  and  C_6 
REMARK    3  A    between atoms: C_8  and  N_9 
REMARK       I    between atoms: N_9  and  C_10 
REMARK    4  A    between atoms: C_10  and  C_11 
REMARK    5  A    between atoms: C_11  and  C_12 
REMARK    6  A    between atoms: C_15  and  O_16 
ROOT
HETATM    1  C   UNL     1       5.565  26.003  54.276  1.00  0.00     0.020 A 
HETATM    2  C   UNL     1       4.841  26.480  53.176  1.00  0.00     0.050 A 
HETATM    3  C   UNL     1       4.113  27.667  53.271  1.00  0.00     0.036 A 
HETATM    4  C   UNL     1       4.126  28.377  54.479  1.00  0.00     0.029 A 
HETATM    5  C   UNL     1       4.862  27.911  55.572  1.00  0.00     0.004 A 
HETATM    6  C   UNL     1       5.580  26.720  55.471  1.00  0.00     0.021 A 
ENDROOT
BRANCH   3   7
HETATM    7  N   UNL     1       3.314  28.180  52.228  1.00  0.00    -0.327 N 
HETATM    8  C   UNL     1       3.745  28.828  51.081  1.00  0.00     0.226 C 
HETATM    9  O   UNL     1       4.890  29.200  50.840  1.00  0.00    -0.273 OA
HETATM   10  H   UNL     1       2.317  28.031  52.322  1.00  0.00     0.169 HD
BRANCH   8  11
HETATM   11  C   UNL     1       2.630  29.036  50.067  1.00  0.00     0.141 C 
BRANCH  11  12
HETATM   12  C   UNL     1       2.619  27.945  49.024  1.00  0.00    -0.049 A 
HETATM   13  C   UNL     1       3.732  27.115  48.838  1.00  0.00     0.010 A 
HETATM   14  C   UNL     1       3.725  26.143  47.835  1.00  0.00     0.037 A 
HETATM   15  C   UNL     1       2.610  26.001  47.018  1.00  0.00     0.065 A 
HETATM   16  C   UNL     1       1.493  26.811  47.189  1.00  0.00     0.037 A 
HETATM   17  C   UNL     1       1.500  27.782  48.192  1.00  0.00     0.010 A 
BRANCH  15  18
HETATM   18  O   UNL     1       2.653  25.047  46.045  1.00  0.00    -0.361 OA
HETATM   19  H   UNL     1       3.544  24.658  46.035  1.00  0.00     0.217 HD
ENDBRANCH  15  18
ENDBRANCH  11  12
ENDBRANCH   8  11
ENDBRANCH   3   7
BRANCH   1  20
HETATM   20  C   UNL     1       6.252  24.753  54.177  1.00  0.00    -0.060 C 
HETATM   21  C   UNL     1       6.830  23.700  54.150  1.00  0.00    -0.041 C 
BRANCH  21  22
HETATM   22  C   UNL     1       7.508  22.445  54.173  1.00  0.00     0.110 A 
HETATM   23  C   UNL     1       7.896  21.822  52.995  1.00  0.00     0.041 A 
HETATM   24  C   UNL     1       8.529  20.586  53.083  1.00  0.00     0.004 A 
HETATM   25  C   UNL     1       8.745  20.022  54.336  1.00  0.00     0.019 A 
HETATM   26  C   UNL     1       8.320  20.723  55.455  1.00  0.00     0.118 A 
HETATM   27  N   UNL     1       7.706  21.924  55.403  1.00  0.00    -0.252 NA
ENDBRANCH  21  22
ENDBRANCH   1  20
TORSDOF 6
ENDMDL
MODEL 4
REMARK VINA RESULT:      -8.7      1.544      1.965
REMARK  6 active torsions:
REMARK  status: ('A' for Active; 'I' for Inactive)
REMARK    1  A    between atoms: C_3  and  C_4 
REMARK    2  A    between atoms: C_5  and  C_6 
REMARK    3  A    between atoms: C_8  and  N_9 
REMARK       I    between atoms: N_9  and  C_10 
REMARK    4  A    between atoms: C_10  and  C_11 
REMARK    5  A    between atoms: C_11  and  C_12 
REMARK    6  A    between atoms: C_15  and  O_16 
ROOT
HETATM    1  C   UNL     1       8.830  30.499  59.075  1.00  0.00     0.020 A 
HETATM    2  C   UNL     1       8.015  29.445  58.645  1.00  0.00     0.050 A 
HETATM    3  C   UNL     1       8.360  28.702  57.515  1.00  0.00     0.036 A 
HETATM    4  C   UNL     1       9.537  29.021  56.826  1.00  0.00     0.029 A 
HETATM    5  C   UNL     1      10.361  30.062  57.265  1.00  0.00     0.004 A 
HETATM    6  C   UNL     1      10.004  30.804  58.390  1.00  0.00     0.021 A 
ENDROOT
BRANCH   3   7
HETATM    7  N   UNL     1       7.562  27.666  56.988  1.00  0.00    -0.327 N 
HETATM    8  C   UNL     1       7.425  26.377  57.480  1.00  0.00     0.226 C 
HETATM    9  O   UNL     1       8.087  25.865  58.378  1.00  0.00    -0.273 OA
HETATM   10  H   UNL     1       7.010  27.905  56.173  1.00  0.00     0.169 HD
BRANCH   8  11
HETATM   11  C   UNL     1       6.307  25.602  56.798  1.00  0.00     0.141 C 
BRANCH  11  12
HETATM   12  C   UNL     1       6.476  25.588  55.299  1.00  0.00    -0.049 A 
HETATM   13  C   UNL     1       5.506  26.152  54.459  1.00  0.00     0.010 A 
HETATM   14  C   UNL     1       5.653  26.088  53.072  1.00  0.00     0.037 A 
HETATM   15  C   UNL     1       6.765  25.461  52.523  1.00  0.00     0.065 A 
HETATM   16  C   UNL     1       7.742  24.900  53.339  1.00  0.00     0.037 A 
HETATM   17  C   UNL     1       7.595  24.964  54.725  1.00  0.00     0.010 A 
BRANCH  15  18
HETATM   18  O   UNL     1       6.861  25.412  51.164  1.00  0.00    -0.361 OA
HETATM   19  H   UNL     1       7.112  26.294  50.842  1.00  0.00     0.217 HD
ENDBRANCH  15  18
ENDBRANCH  11  12
ENDBRANCH   8  11
ENDBRANCH   3   7
BRANCH   1  20
HETATM   20  C   UNL     1       8.425  31.288  60.198  1.00  0.00    -0.060 C 
HETATM   21  C   UNL     1       8.033  31.949  61.121  1.00  0.00    -0.041 C 
BRANCH  21  22
HETATM   22  C   UNL     1       7.515  32.724  62.201  1.00  0.00     0.110 A 
HETATM   23  C   UNL     1       6.547  33.694  61.982  1.00  0.00     0.041 A 
HETATM   24  C   UNL     1       6.102  34.436  63.073  1.00  0.00     0.004 A 
HETATM   25  C   UNL     1       6.640  34.183  64.330  1.00  0.00     0.019 A 
HETATM   26  C   UNL     1       7.602  33.191  64.447  1.00  0.00     0.118 A 
HETATM   27  N   UNL     1       8.053  32.453  63.409  1.00  0.00    -0.252 NA
ENDBRANCH  21  22
ENDBRANCH   1  20
TORSDOF 6
ENDMDL
MODEL 5
REMARK VINA RESULT:      -8.7      3.408     10.395
REMARK  6 active torsions:
REMARK  status: ('A' for Active; 'I' for Inactive)
REMARK    1  A    between atoms: C_3  and  C_4 
REMARK    2  A    between atoms: C_5  and  C_6 
REMARK    3  A    between atoms: C_8  and  N_9 
REMARK       I    between atoms: N_9  and  C_10 
REMARK    4  A    between atoms: C_10  and  C_11 
REMARK    5  A    between atoms: C_11  and  C_12 
REMARK    6  A    between atoms: C_15  and  O_16 
ROOT
HETATM    1  C   UNL     1       8.706  28.302  57.405  1.00  0.00     0.020 A 
HETATM    2  C   UNL     1       7.791  28.981  58.220  1.00  0.00     0.050 A 
HETATM    3  C   UNL     1       8.058  30.283  58.647  1.00  0.00     0.036 A 
HETATM    4  C   UNL     1       9.248  30.901  58.241  1.00  0.00     0.029 A 
HETATM    5  C   UNL     1      10.154  30.230  57.413  1.00  0.00     0.004 A 
HETATM    6  C   UNL     1       9.883  28.927  56.997  1.00  0.00     0.021 A 
ENDROOT
BRANCH   3   7
HETATM    7  N   UNL     1       7.216  31.008  59.514  1.00  0.00    -0.327 N 
HETATM    8  C   UNL     1       7.434  32.276  60.031  1.00  0.00     0.226 C 
HETATM    9  O   UNL     1       8.467  32.933  59.942  1.00  0.00    -0.273 OA
HETATM   10  H   UNL     1       6.344  30.557  59.762  1.00  0.00     0.169 HD
BRANCH   8  11
HETATM   11  C   UNL     1       6.212  32.840  60.742  1.00  0.00     0.141 C 
BRANCH  11  12
HETATM   12  C   UNL     1       6.537  33.256  62.156  1.00  0.00    -0.049 A 
HETATM   13  C   UNL     1       7.398  32.489  62.952  1.00  0.00     0.010 A 
HETATM   14  C   UNL     1       7.649  32.860  64.275  1.00  0.00     0.037 A 
HETATM   15  C   UNL     1       7.041  33.992  64.803  1.00  0.00     0.065 A 
HETATM   16  C   UNL     1       6.188  34.770  64.028  1.00  0.00     0.037 A 
HETATM   17  C   UNL     1       5.937  34.400  62.706  1.00  0.00     0.010 A 
BRANCH  15  18
HETATM   18  O   UNL     1       7.307  34.309  66.102  1.00  0.00    -0.361 OA
HETATM   19  H   UNL     1       6.724  33.781  66.672  1.00  0.00     0.217 HD
ENDBRANCH  15  18
ENDBRANCH  11  12
ENDBRANCH   8  11
ENDBRANCH   3   7
BRANCH   1  20
HETATM   20  C   UNL     1       8.443  26.946  57.031  1.00  0.00    -0.060 C 
HETATM   21  C   UNL     1       8.240  25.821  56.665  1.00  0.00    -0.041 C 
BRANCH  21  22
HETATM   22  C   UNL     1       8.024  24.496  56.182  1.00  0.00     0.110 A 
HETATM   23  C   UNL     1       8.460  23.394  56.903  1.00  0.00     0.041 A 
HETATM   24  C   UNL     1       8.245  22.128  56.364  1.00  0.00     0.004 A 
HETATM   25  C   UNL     1       7.609  22.015  55.133  1.00  0.00     0.019 A 
HETATM   26  C   UNL     1       7.209  23.176  54.489  1.00  0.00     0.118 A 
HETATM   27  N   UNL     1       7.402  24.417  54.986  1.00  0.00    -0.252 NA
ENDBRANCH  21  22
ENDBRANCH   1  20
TORSDOF 6
ENDMDL
MODEL 6
REMARK VINA RESULT:      -8.7      1.658      2.078
REMARK  6 active torsions:
REMARK  status: ('A' for Active; 'I' for Inactive)
REMARK    1  A    between atoms: C_3  and  C_4 
REMARK    2  A    between atoms: C_5  and  C_6 
REMARK    3  A    between atoms: C_8  and  N_9 
REMARK       I    between atoms: N_9  and  C_10 
REMARK    4  A    between atoms: C_10  and  C_11 
REMARK    5  A    between atoms: C_11  and  C_12 
REMARK    6  A    between atoms: C_15  and  O_16 
ROOT
HETATM    1  C   UNL     1       7.302  29.660  57.925  1.00  0.00     0.020 A 
HETATM    2  C   UNL     1       7.942  28.426  58.095  1.00  0.00     0.050 A 
HETATM    3  C   UNL     1       7.938  27.481  57.068  1.00  0.00     0.036 A 
HETATM    4  C   UNL     1       7.295  27.790  55.863  1.00  0.00     0.029 A 
HETATM    5  C   UNL     1       6.672  29.029  55.684  1.00  0.00     0.004 A 
HETATM    6  C   UNL     1       6.673  29.964  56.719  1.00  0.00     0.021 A 
ENDROOT
BRANCH   3   7
HETATM    7  N   UNL     1       8.509  26.196  57.187  1.00  0.00    -0.327 N 
HETATM    8  C   UNL     1       7.889  24.978  56.957  1.00  0.00     0.226 C 
HETATM    9  O   UNL     1       6.692  24.795  56.752  1.00  0.00    -0.273 OA
HETATM   10  H   UNL     1       9.488  26.171  57.444  1.00  0.00     0.169 HD
BRANCH   8  11
HETATM   11  C   UNL     1       8.866  23.811  56.955  1.00  0.00     0.141 C 
BRANCH  11  12
HETATM   12  C   UNL     1       8.549  22.826  55.857  1.00  0.00    -0.049 A 
HETATM   13  C   UNL     1       8.595  23.208  54.509  1.00  0.00     0.010 A 
HETATM   14  C   UNL     1       8.251  22.298  53.508  1.00  0.00     0.037 A 
HETATM   15  C   UNL     1       7.859  21.010  53.849  1.00  0.00     0.065 A 
HETATM   16  C   UNL     1       7.812  20.608  55.180  1.00  0.00     0.037 A 
HETATM   17  C   UNL     1       8.157  21.517  56.181  1.00  0.00     0.010 A 
BRANCH  15  18
HETATM   18  O   UNL     1       7.521  20.159  52.839  1.00  0.00    -0.361 OA
HETATM   19  H   UNL     1       8.329  19.921  52.355  1.00  0.00     0.217 HD
ENDBRANCH  15  18
ENDBRANCH  11  12
ENDBRANCH   8  11
ENDBRANCH   3   7
BRANCH   1  20
HETATM   20  C   UNL     1       7.264  30.589  59.012  1.00  0.00    -0.060 C 
HETATM   21  C   UNL     1       7.214  31.327  59.957  1.00  0.00    -0.041 C 
BRANCH  21  22
HETATM   22  C   UNL     1       7.146  32.159  61.114  1.00  0.00     0.110 A 
HETATM   23  C   UNL     1       7.970  31.930  62.207  1.00  0.00     0.041 A 
HETATM   24  C   UNL     1       7.836  32.760  63.317  1.00  0.00     0.004 A 
HETATM   25  C   UNL     1       6.888  33.778  63.292  1.00  0.00     0.019 A 
HETATM   26  C   UNL     1       6.113  33.928  62.152  1.00  0.00     0.118 A 
HETATM   27  N   UNL     1       6.220  33.141  61.060  1.00  0.00    -0.252 NA
ENDBRANCH  21  22
ENDBRANCH   1  20
TORSDOF 6
ENDMDL
MODEL 7
REMARK VINA RESULT:      -8.5      3.657     10.458
REMARK  6 active torsions:
REMARK  status: ('A' for Active; 'I' for Inactive)
REMARK    1  A    between atoms: C_3  and  C_4 
REMARK    2  A    between atoms: C_5  and  C_6 
REMARK    3  A    between atoms: C_8  and  N_9 
REMARK       I    between atoms: N_9  and  C_10 
REMARK    4  A    between atoms: C_10  and  C_11 
REMARK    5  A    between atoms: C_11  and  C_12 
REMARK    6  A    between atoms: C_15  and  O_16 
ROOT
HETATM    1  C   UNL     1       8.674  29.142  56.770  1.00  0.00     0.020 A 
HETATM    2  C   UNL     1       8.138  29.279  58.057  1.00  0.00     0.050 A 
HETATM    3  C   UNL     1       8.779  30.074  59.008  1.00  0.00     0.036 A 
HETATM    4  C   UNL     1       9.959  30.740  58.652  1.00  0.00     0.029 A 
HETATM    5  C   UNL     1      10.485  30.619  57.363  1.00  0.00     0.004 A 
HETATM    6  C   UNL     1       9.843  29.816  56.421  1.00  0.00     0.021 A 
ENDROOT
BRANCH   3   7
HETATM    7  N   UNL     1       8.333  30.214  60.338  1.00  0.00    -0.327 N 
HETATM    8  C   UNL     1       8.143  31.393  61.042  1.00  0.00     0.226 C 
HETATM    9  O   UNL     1       8.468  32.520  60.678  1.00  0.00    -0.273 OA
HETATM   10  H   UNL     1       8.104  29.352  60.819  1.00  0.00     0.169 HD
BRANCH   8  11
HETATM   11  C   UNL     1       7.434  31.178  62.371  1.00  0.00     0.141 C 
BRANCH  11  12
HETATM   12  C   UNL     1       6.983  32.486  62.975  1.00  0.00    -0.049 A 
HETATM   13  C   UNL     1       6.024  33.282  62.335  1.00  0.00     0.010 A 
HETATM   14  C   UNL     1       5.654  34.513  62.882  1.00  0.00     0.037 A 
HETATM   15  C   UNL     1       6.240  34.948  64.064  1.00  0.00     0.065 A 
HETATM   16  C   UNL     1       7.188  34.170  64.718  1.00  0.00     0.037 A 
HETATM   17  C   UNL     1       7.559  32.941  64.172  1.00  0.00     0.010 A 
BRANCH  15  18
HETATM   18  O   UNL     1       5.855  36.161  64.555  1.00  0.00    -0.361 OA
HETATM   19  H   UNL     1       6.216  36.257  65.452  1.00  0.00     0.217 HD
ENDBRANCH  15  18
ENDBRANCH  11  12
ENDBRANCH   8  11
ENDBRANCH   3   7
BRANCH   1  20
HETATM   20  C   UNL     1       8.036  28.273  55.831  1.00  0.00    -0.060 C 
HETATM   21  C   UNL     1       7.534  27.502  55.059  1.00  0.00    -0.041 C 
BRANCH  21  22
HETATM   22  C   UNL     1       6.967  26.544  54.167  1.00  0.00     0.110 A 
HETATM   23  C   UNL     1       7.710  26.015  53.121  1.00  0.00     0.041 A 
HETATM   24  C   UNL     1       7.091  25.106  52.269  1.00  0.00     0.004 A 
HETATM   25  C   UNL     1       5.761  24.764  52.490  1.00  0.00     0.019 A 
HETATM   26  C   UNL     1       5.103  25.347  53.563  1.00  0.00     0.118 A 
HETATM   27  N   UNL     1       5.676  26.230  54.409  1.00  0.00    -0.252 NA
ENDBRANCH  21  22
ENDBRANCH   1  20
TORSDOF 6
ENDMDL
MODEL 8
REMARK VINA RESULT:      -8.5      1.647      2.466
REMARK  6 active torsions:
REMARK  status: ('A' for Active; 'I' for Inactive)
REMARK    1  A    between atoms: C_3  and  C_4 
REMARK    2  A    between atoms: C_5  and  C_6 
REMARK    3  A    between atoms: C_8  and  N_9 
REMARK       I    between atoms: N_9  and  C_10 
REMARK    4  A    between atoms: C_10  and  C_11 
REMARK    5  A    between atoms: C_11  and  C_12 
REMARK    6  A    between atoms: C_15  and  O_16 
ROOT
HETATM    1  C   UNL     1       7.988  31.844  60.779  1.00  0.00     0.020 A 
HETATM    2  C   UNL     1       7.252  31.036  59.903  1.00  0.00     0.050 A 
HETATM    3  C   UNL     1       7.816  30.601  58.703  1.00  0.00     0.036 A 
HETATM    4  C   UNL     1       9.130  30.976  58.394  1.00  0.00     0.029 A 
HETATM    5  C   UNL     1       9.872  31.766  59.277  1.00  0.00     0.004 A 
HETATM    6  C   UNL     1       9.298  32.204  60.470  1.00  0.00     0.021 A 
ENDROOT
BRANCH   3   7
HETATM    7  N   UNL     1       7.119  29.837  57.744  1.00  0.00    -0.327 N 
HETATM    8  C   UNL     1       7.180  28.464  57.558  1.00  0.00     0.226 C 
HETATM    9  O   UNL     1       7.963  27.689  58.100  1.00  0.00    -0.273 OA
HETATM   10  H   UNL     1       6.486  30.352  57.145  1.00  0.00     0.169 HD
BRANCH   8  11
HETATM   11  C   UNL     1       6.123  27.953  56.590  1.00  0.00     0.141 C 
BRANCH  11  12
HETATM   12  C   UNL     1       6.700  26.955  55.617  1.00  0.00    -0.049 A 
HETATM   13  C   UNL     1       7.250  27.373  54.397  1.00  0.00     0.010 A 
HETATM   14  C   UNL     1       7.734  26.432  53.486  1.00  0.00     0.037 A 
HETATM   15  C   UNL     1       7.669  25.078  53.789  1.00  0.00     0.065 A 
HETATM   16  C   UNL     1       7.133  24.643  54.996  1.00  0.00     0.037 A 
HETATM   17  C   UNL     1       6.649  25.583  55.907  1.00  0.00     0.010 A 
BRANCH  15  18
HETATM   18  O   UNL     1       8.144  24.196  52.864  1.00  0.00    -0.361 OA
HETATM   19  H   UNL     1       7.552  24.211  52.093  1.00  0.00     0.217 HD
ENDBRANCH  15  18
ENDBRANCH  11  12
ENDBRANCH   8  11
ENDBRANCH   3   7
BRANCH   1  20
HETATM   20  C   UNL     1       7.369  32.331  61.974  1.00  0.00    -0.060 C 
HETATM   21  C   UNL     1       6.901  32.745  62.999  1.00  0.00    -0.041 C 
BRANCH  21  22
HETATM   22  C   UNL     1       6.397  33.248  64.235  1.00  0.00     0.110 A 
HETATM   23  C   UNL     1       7.258  33.683  65.233  1.00  0.00     0.041 A 
HETATM   24  C   UNL     1       6.705  34.136  66.427  1.00  0.00     0.004 A 
HETATM   25  C   UNL     1       5.322  34.136  66.578  1.00  0.00     0.019 A 
HETATM   26  C   UNL     1       4.546  33.683  65.522  1.00  0.00     0.118 A 
HETATM   27  N   UNL     1       5.052  33.238  64.351  1.00  0.00    -0.252 NA
ENDBRANCH  21  22
ENDBRANCH   1  20
TORSDOF 6
ENDMDL
MODEL 9
REMARK VINA RESULT:      -8.4      7.555     10.721
REMARK  6 active torsions:
REMARK  status: ('A' for Active; 'I' for Inactive)
REMARK    1  A    between atoms: C_3  and  C_4 
REMARK    2  A    between atoms: C_5  and  C_6 
REMARK    3  A    between atoms: C_8  and  N_9 
REMARK       I    between atoms: N_9  and  C_10 
REMARK    4  A    between atoms: C_10  and  C_11 
REMARK    5  A    between atoms: C_11  and  C_12 
REMARK    6  A    between atoms: C_15  and  O_16 
ROOT
HETATM    1  C   UNL     1       5.793  25.693  53.265  1.00  0.00     0.020 A 
HETATM    2  C   UNL     1       5.681  25.843  51.876  1.00  0.00     0.050 A 
HETATM    3  C   UNL     1       5.005  26.938  51.337  1.00  0.00     0.036 A 
HETATM    4  C   UNL     1       4.450  27.888  52.203  1.00  0.00     0.029 A 
HETATM    5  C   UNL     1       4.576  27.749  53.589  1.00  0.00     0.004 A 
HETATM    6  C   UNL     1       5.246  26.648  54.120  1.00  0.00     0.021 A 
ENDROOT
BRANCH   3   7
HETATM    7  N   UNL     1       4.801  27.126  49.954  1.00  0.00    -0.327 N 
HETATM    8  C   UNL     1       5.295  28.152  49.164  1.00  0.00     0.226 C 
HETATM    9  O   UNL     1       5.878  29.159  49.556  1.00  0.00    -0.273 OA
HETATM   10  H   UNL     1       4.252  26.413  49.488  1.00  0.00     0.169 HD
BRANCH   8  11
HETATM   11  C   UNL     1       5.070  27.912  47.678  1.00  0.00     0.141 C 
BRANCH  11  12
HETATM   12  C   UNL     1       3.601  27.795  47.352  1.00  0.00    -0.049 A 
HETATM   13  C   UNL     1       2.794  28.935  47.241  1.00  0.00     0.010 A 
HETATM   14  C   UNL     1       1.427  28.807  46.989  1.00  0.00     0.037 A 
HETATM   15  C   UNL     1       0.865  27.544  46.848  1.00  0.00     0.065 A 
HETATM   16  C   UNL     1       1.649  26.400  46.948  1.00  0.00     0.037 A 
HETATM   17  C   UNL     1       3.016  26.528  47.201  1.00  0.00     0.010 A 
BRANCH  15  18
HETATM   18  O   UNL     1      -0.475  27.467  46.613  1.00  0.00    -0.361 OA
HETATM   19  H   UNL     1      -0.864  26.849  47.255  1.00  0.00     0.217 HD
ENDBRANCH  15  18
ENDBRANCH  11  12
ENDBRANCH   8  11
ENDBRANCH   3   7
BRANCH   1  20
HETATM   20  C   UNL     1       6.435  24.531  53.798  1.00  0.00    -0.060 C 
HETATM   21  C   UNL     1       6.979  23.536  54.193  1.00  0.00    -0.041 C 
BRANCH  21  22
HETATM   22  C   UNL     1       7.637  22.341  54.610  1.00  0.00     0.110 A 
HETATM   23  C   UNL     1       7.961  21.349  53.695  1.00  0.00     0.041 A 
HETATM   24  C   UNL     1       8.578  20.195  54.168  1.00  0.00     0.004 A 
HETATM   25  C   UNL     1       8.843  20.076  55.528  1.00  0.00     0.019 A 
HETATM   26  C   UNL     1       8.483  21.123  56.363  1.00  0.00     0.118 A 
HETATM   27  N   UNL     1       7.885  22.256  55.934  1.00  0.00    -0.252 NA
ENDBRANCH  21  22
ENDBRANCH   1  20
TORSDOF 6
ENDMDL
MODEL 10
REMARK VINA RESULT:      -8.4      3.235      9.649
REMARK  6 active torsions:
REMARK  status: ('A' for Active; 'I' for Inactive)
REMARK    1  A    between atoms: C_3  and  C_4 
REMARK    2  A    between atoms: C_5  and  C_6 
REMARK    3  A    between atoms: C_8  and  N_9 
REMARK       I    between atoms: N_9  and  C_10 
REMARK    4  A    between atoms: C_10  and  C_11 
REMARK    5  A    between atoms: C_11  and  C_12 
REMARK    6  A    between atoms: C_15  and  O_16 
ROOT
HETATM    1  C   UNL     1       9.036  29.308  57.836  1.00  0.00     0.020 A 
HETATM    2  C   UNL     1       8.398  29.909  58.928  1.00  0.00     0.050 A 
HETATM    3  C   UNL     1       8.856  31.128  59.429  1.00  0.00     0.036 A 
HETATM    4  C   UNL     1       9.955  31.745  58.817  1.00  0.00     0.029 A 
HETATM    5  C   UNL     1      10.581  31.155  57.715  1.00  0.00     0.004 A 
HETATM    6  C   UNL     1      10.122  29.933  57.226  1.00  0.00     0.021 A 
ENDROOT
BRANCH   3   7
HETATM    7  N   UNL     1       8.304  31.765  60.560  1.00  0.00    -0.327 N 
HETATM    8  C   UNL     1       8.488  31.422  61.891  1.00  0.00     0.226 C 
HETATM    9  O   UNL     1       9.048  30.414  62.314  1.00  0.00    -0.273 OA
HETATM   10  H   UNL     1       7.730  32.578  60.373  1.00  0.00     0.169 HD
BRANCH   8  11
HETATM   11  C   UNL     1       7.933  32.464  62.850  1.00  0.00     0.141 C 
BRANCH  11  12
HETATM   12  C   UNL     1       6.483  32.766  62.561  1.00  0.00    -0.049 A 
HETATM   13  C   UNL     1       6.067  34.065  62.239  1.00  0.00     0.010 A 
HETATM   14  C   UNL     1       4.715  34.338  62.023  1.00  0.00     0.037 A 
HETATM   15  C   UNL     1       3.779  33.317  62.129  1.00  0.00     0.065 A 
HETATM   16  C   UNL     1       4.170  32.020  62.441  1.00  0.00     0.037 A 
HETATM   17  C   UNL     1       5.521  31.747  62.657  1.00  0.00     0.010 A 
BRANCH  15  18
HETATM   18  O   UNL     1       2.469  33.633  61.921  1.00  0.00    -0.361 OA
HETATM   19  H   UNL     1       2.418  34.560  61.633  1.00  0.00     0.217 HD
ENDBRANCH  15  18
ENDBRANCH  11  12
ENDBRANCH   8  11
ENDBRANCH   3   7
BRANCH   1  20
HETATM   20  C   UNL     1       8.590  28.028  57.378  1.00  0.00    -0.060 C 
HETATM   21  C   UNL     1       8.249  26.960  56.948  1.00  0.00    -0.041 C 
BRANCH  21  22
HETATM   22  C   UNL     1       7.882  25.696  56.397  1.00  0.00     0.110 A 
HETATM   23  C   UNL     1       7.022  25.614  55.311  1.00  0.00     0.041 A 
HETATM   24  C   UNL     1       6.680  24.351  54.838  1.00  0.00     0.004 A 
HETATM   25  C   UNL     1       7.205  23.226  55.465  1.00  0.00     0.019 A 
HETATM   26  C   UNL     1       8.057  23.412  56.544  1.00  0.00     0.118 A 
HETATM   27  N   UNL     1       8.409  24.623  57.025  1.00  0.00    -0.252 NA
ENDBRANCH  21  22
ENDBRANCH   1  20
TORSDOF 6
ENDMDL
