MODEL 1
REMARK VINA RESULT:      -8.9      0.000      0.000
REMARK  6 active torsions:
REMARK  status: ('A' for Active; 'I' for Inactive)
REMARK    1  A    between atoms: C_6  and  C_7 
REMARK    2  A    between atoms: C_10  and  C_11 
REMARK       I    between atoms: C_11  and  N_12 
REMARK    3  A    between atoms: N_12  and  C_13 
REMARK    4  A    between atoms: C_13  and  C_14 
REMARK    5  A    between atoms: C_17  and  C_18 
REMARK       I    between atoms: C_18  and  N_19 
REMARK    6  A    between atoms: N_19  and  C_20 
ROOT
HETATM    1  C   UNL     1       7.871  28.999  57.859  1.00  0.00     0.256 C 
HETATM    2  N   UNL     1       6.901  29.270  56.921  1.00  0.00    -0.353 N 
HETATM    3  O   UNL     1       7.921  27.921  58.446  1.00  0.00    -0.268 OA
HETATM    4  H   UNL     1       6.750  30.232  56.660  1.00  0.00     0.163 HD
ENDROOT
BRANCH   2   5
HETATM    5  C   UNL     1       5.828  28.334  56.699  1.00  0.00     0.161 C 
BRANCH   5   6
HETATM    6  C   UNL     1       6.274  27.170  55.855  1.00  0.00    -0.040 A 
HETATM    7  C   UNL     1       7.035  27.396  54.698  1.00  0.00     0.010 A 
HETATM    8  C   UNL     1       7.492  26.323  53.929  1.00  0.00     0.017 A 
HETATM    9  C   UNL     1       7.199  25.010  54.313  1.00  0.00     0.032 A 
HETATM   10  C   UNL     1       6.400  24.777  55.438  1.00  0.00     0.017 A 
HETATM   11  C   UNL     1       5.940  25.854  56.204  1.00  0.00     0.010 A 
BRANCH   9  12
HETATM   12  C   UNL     1       7.749  23.895  53.494  1.00  0.00     0.252 C 
HETATM   13  N   UNL     1       8.100  22.755  54.193  1.00  0.00    -0.352 N 
HETATM   14  H   UNL     1       8.090  22.778  55.204  1.00  0.00     0.163 HD
HETATM   15  O   UNL     1       7.901  24.040  52.286  1.00  0.00    -0.268 OA
BRANCH  13  16
HETATM   16  C   UNL     1       8.742  21.646  53.558  1.00  0.00     0.084 A 
HETATM   17  C   UNL     1       8.722  20.287  54.203  1.00  0.00     0.027 A 
HETATM   18  C   UNL     1       7.930  20.534  52.953  1.00  0.00     0.027 A 
ENDBRANCH  13  16
ENDBRANCH   9  12
ENDBRANCH   5   6
ENDBRANCH   2   5
BRANCH   1  19
HETATM   19  C   UNL     1       8.794  30.087  58.165  1.00  0.00     0.082 A 
HETATM   20  C   UNL     1       9.965  30.408  57.412  1.00  0.00     0.068 A 
HETATM   21  C   UNL     1      10.480  29.737  56.189  1.00  0.00     0.073 C 
HETATM   22  N   UNL     1      10.638  31.436  57.938  1.00  0.00    -0.179 NA
HETATM   23  N   UNL     1       9.902  31.798  58.991  1.00  0.00    -0.281 N 
HETATM   24  H   UNL     1      10.223  32.588  59.541  1.00  0.00     0.189 HD
HETATM   25  C   UNL     1       8.766  31.048  59.174  1.00  0.00     0.049 A 
BRANCH  25  26
HETATM   26  C   UNL     1       7.796  31.370  60.278  1.00  0.00     0.030 C 
HETATM   27  C   UNL     1       8.485  32.176  61.381  1.00  0.00     0.016 C 
HETATM   28  C   UNL     1       6.561  32.118  59.763  1.00  0.00     0.016 C 
ENDBRANCH  25  26
ENDBRANCH   1  19
TORSDOF 6
ENDMDL
MODEL 2
REMARK VINA RESULT:      -8.7      1.275      2.645
REMARK  6 active torsions:
REMARK  status: ('A' for Active; 'I' for Inactive)
REMARK    1  A    between atoms: C_6  and  C_7 
REMARK    2  A    between atoms: C_10  and  C_11 
REMARK       I    between atoms: C_11  and  N_12 
REMARK    3  A    between atoms: N_12  and  C_13 
REMARK    4  A    between atoms: C_13  and  C_14 
REMARK    5  A    between atoms: C_17  and  C_18 
REMARK       I    between atoms: C_18  and  N_19 
REMARK    6  A    between atoms: N_19  and  C_20 
ROOT
HETATM    1  C   UNL     1       6.381  30.041  57.365  1.00  0.00     0.256 C 
HETATM    2  N   UNL     1       6.108  28.748  57.753  1.00  0.00    -0.353 N 
HETATM    3  O   UNL     1       5.729  30.606  56.491  1.00  0.00    -0.268 OA
HETATM    4  H   UNL     1       6.812  28.252  58.278  1.00  0.00     0.163 HD
ENDROOT
BRANCH   2   5
HETATM    5  C   UNL     1       5.125  27.972  57.041  1.00  0.00     0.161 C 
BRANCH   5   6
HETATM    6  C   UNL     1       5.767  26.901  56.200  1.00  0.00    -0.040 A 
HETATM    7  C   UNL     1       6.214  27.202  54.905  1.00  0.00     0.010 A 
HETATM    8  C   UNL     1       6.852  26.230  54.131  1.00  0.00     0.017 A 
HETATM    9  C   UNL     1       7.054  24.945  54.645  1.00  0.00     0.032 A 
HETATM   10  C   UNL     1       6.568  24.622  55.917  1.00  0.00     0.017 A 
HETATM   11  C   UNL     1       5.927  25.597  56.689  1.00  0.00     0.010 A 
BRANCH   9  12
HETATM   12  C   UNL     1       7.782  23.955  53.806  1.00  0.00     0.252 C 
HETATM   13  N   UNL     1       7.940  22.698  54.362  1.00  0.00    -0.352 N 
HETATM   14  H   UNL     1       7.679  22.555  55.329  1.00  0.00     0.163 HD
HETATM   15  O   UNL     1       8.232  24.290  52.716  1.00  0.00    -0.268 OA
BRANCH  13  16
HETATM   16  C   UNL     1       8.712  21.679  53.722  1.00  0.00     0.084 A 
HETATM   17  C   UNL     1       8.754  20.289  54.293  1.00  0.00     0.027 A 
HETATM   18  C   UNL     1       8.036  20.545  53.001  1.00  0.00     0.027 A 
ENDBRANCH  13  16
ENDBRANCH   9  12
ENDBRANCH   5   6
ENDBRANCH   2   5
BRANCH   1  19
HETATM   19  C   UNL     1       7.530  30.676  58.003  1.00  0.00     0.082 A 
HETATM   20  C   UNL     1       7.457  31.739  58.955  1.00  0.00     0.068 A 
HETATM   21  C   UNL     1       6.243  32.405  59.495  1.00  0.00     0.073 C 
HETATM   22  N   UNL     1       8.668  32.144  59.351  1.00  0.00    -0.179 NA
HETATM   23  N   UNL     1       9.508  31.340  58.697  1.00  0.00    -0.281 N 
HETATM   24  H   UNL     1      10.502  31.460  58.864  1.00  0.00     0.189 HD
HETATM   25  C   UNL     1       8.894  30.415  57.888  1.00  0.00     0.049 A 
BRANCH  25  26
HETATM   26  C   UNL     1       9.698  29.391  57.134  1.00  0.00     0.030 C 
HETATM   27  C   UNL     1       9.178  29.248  55.702  1.00  0.00     0.016 C 
HETATM   28  C   UNL     1      11.195  29.720  57.128  1.00  0.00     0.016 C 
ENDBRANCH  25  26
ENDBRANCH   1  19
TORSDOF 6
ENDMDL
MODEL 3
REMARK VINA RESULT:      -8.6      5.152     10.449
REMARK  6 active torsions:
REMARK  status: ('A' for Active; 'I' for Inactive)
REMARK    1  A    between atoms: C_6  and  C_7 
REMARK    2  A    between atoms: C_10  and  C_11 
REMARK       I    between atoms: C_11  and  N_12 
REMARK    3  A    between atoms: N_12  and  C_13 
REMARK    4  A    between atoms: C_13  and  C_14 
REMARK    5  A    between atoms: C_17  and  C_18 
REMARK       I    between atoms: C_18  and  N_19 
REMARK    6  A    between atoms: N_19  and  C_20 
ROOT
HETATM    1  C   UNL     1       9.280  31.174  59.009  1.00  0.00     0.256 C 
HETATM    2  N   UNL     1       9.072  30.636  60.259  1.00  0.00    -0.353 N 
HETATM    3  O   UNL     1       9.830  32.260  58.854  1.00  0.00    -0.268 OA
HETATM    4  H   UNL     1       8.407  29.884  60.347  1.00  0.00     0.163 HD
ENDROOT
BRANCH   2   5
HETATM    5  C   UNL     1       9.379  31.407  61.437  1.00  0.00     0.161 C 
BRANCH   5   6
HETATM    6  C   UNL     1       8.138  32.006  62.046  1.00  0.00    -0.040 A 
HETATM    7  C   UNL     1       8.179  32.524  63.349  1.00  0.00     0.010 A 
HETATM    8  C   UNL     1       7.048  33.122  63.910  1.00  0.00     0.017 A 
HETATM    9  C   UNL     1       5.863  33.213  63.172  1.00  0.00     0.032 A 
HETATM   10  C   UNL     1       5.800  32.655  61.890  1.00  0.00     0.017 A 
HETATM   11  C   UNL     1       6.933  32.054  61.332  1.00  0.00     0.010 A 
BRANCH   9  12
HETATM   12  C   UNL     1       4.698  33.903  63.789  1.00  0.00     0.252 C 
HETATM   13  N   UNL     1       4.999  34.988  64.591  1.00  0.00    -0.352 N 
HETATM   14  H   UNL     1       5.967  35.175  64.818  1.00  0.00     0.163 HD
HETATM   15  O   UNL     1       3.564  33.474  63.603  1.00  0.00    -0.268 OA
BRANCH  13  16
HETATM   16  C   UNL     1       3.994  35.681  65.336  1.00  0.00     0.084 A 
HETATM   17  C   UNL     1       3.400  35.058  66.569  1.00  0.00     0.027 A 
HETATM   18  C   UNL     1       4.302  36.251  66.694  1.00  0.00     0.027 A 
ENDBRANCH  13  16
ENDBRANCH   9  12
ENDBRANCH   5   6
ENDBRANCH   2   5
BRANCH   1  19
HETATM   19  C   UNL     1       8.750  30.410  57.883  1.00  0.00     0.082 A 
HETATM   20  C   UNL     1       9.539  29.696  56.931  1.00  0.00     0.068 A 
HETATM   21  C   UNL     1      11.020  29.567  56.879  1.00  0.00     0.073 C 
HETATM   22  N   UNL     1       8.789  29.111  55.991  1.00  0.00    -0.179 NA
HETATM   23  N   UNL     1       7.538  29.409  56.345  1.00  0.00    -0.281 N 
HETATM   24  H   UNL     1       6.786  29.045  55.770  1.00  0.00     0.189 HD
HETATM   25  C   UNL     1       7.436  30.166  57.487  1.00  0.00     0.049 A 
BRANCH  25  26
HETATM   26  C   UNL     1       6.093  30.532  58.056  1.00  0.00     0.030 C 
HETATM   27  C   UNL     1       5.805  32.019  57.840  1.00  0.00     0.016 C 
HETATM   28  C   UNL     1       4.963  29.679  57.469  1.00  0.00     0.016 C 
ENDBRANCH  25  26
ENDBRANCH   1  19
TORSDOF 6
ENDMDL
MODEL 4
REMARK VINA RESULT:      -8.5      2.111      8.610
REMARK  6 active torsions:
REMARK  status: ('A' for Active; 'I' for Inactive)
REMARK    1  A    between atoms: C_6  and  C_7 
REMARK    2  A    between atoms: C_10  and  C_11 
REMARK       I    between atoms: C_11  and  N_12 
REMARK    3  A    between atoms: N_12  and  C_13 
REMARK    4  A    between atoms: C_13  and  C_14 
REMARK    5  A    between atoms: C_17  and  C_18 
REMARK       I    between atoms: C_18  and  N_19 
REMARK    6  A    between atoms: N_19  and  C_20 
ROOT
HETATM    1  C   UNL     1       6.746  25.518  55.027  1.00  0.00     0.256 C 
HETATM    2  N   UNL     1       7.495  26.568  54.544  1.00  0.00    -0.353 N 
HETATM    3  O   UNL     1       5.528  25.598  55.156  1.00  0.00    -0.268 OA
HETATM    4  H   UNL     1       8.492  26.546  54.692  1.00  0.00     0.163 HD
ENDROOT
BRANCH   2   5
HETATM    5  C   UNL     1       6.876  27.846  54.302  1.00  0.00     0.161 C 
BRANCH   5   6
HETATM    6  C   UNL     1       6.903  28.716  55.532  1.00  0.00    -0.040 A 
HETATM    7  C   UNL     1       7.983  28.632  56.424  1.00  0.00     0.010 A 
HETATM    8  C   UNL     1       8.042  29.464  57.545  1.00  0.00     0.017 A 
HETATM    9  C   UNL     1       7.025  30.393  57.784  1.00  0.00     0.032 A 
HETATM   10  C   UNL     1       5.921  30.450  56.925  1.00  0.00     0.017 A 
HETATM   11  C   UNL     1       5.862  29.614  55.805  1.00  0.00     0.010 A 
BRANCH   9  12
HETATM   12  C   UNL     1       7.153  31.295  58.961  1.00  0.00     0.252 C 
HETATM   13  N   UNL     1       7.750  30.740  60.079  1.00  0.00    -0.352 N 
HETATM   14  H   UNL     1       7.945  29.748  60.087  1.00  0.00     0.163 HD
HETATM   15  O   UNL     1       6.706  32.435  58.910  1.00  0.00    -0.268 OA
BRANCH  13  16
HETATM   16  C   UNL     1       7.843  31.449  61.317  1.00  0.00     0.084 A 
HETATM   17  C   UNL     1       8.454  30.790  62.523  1.00  0.00     0.027 A 
HETATM   18  C   UNL     1       9.176  31.912  61.837  1.00  0.00     0.027 A 
ENDBRANCH  13  16
ENDBRANCH   9  12
ENDBRANCH   5   6
ENDBRANCH   2   5
BRANCH   1  19
HETATM   19  C   UNL     1       7.490  24.331  55.438  1.00  0.00     0.082 A 
HETATM   20  C   UNL     1       8.091  24.141  56.720  1.00  0.00     0.068 A 
HETATM   21  C   UNL     1       8.086  25.069  57.881  1.00  0.00     0.073 C 
HETATM   22  N   UNL     1       8.731  22.971  56.808  1.00  0.00    -0.179 NA
HETATM   23  N   UNL     1       8.523  22.398  55.620  1.00  0.00    -0.281 N 
HETATM   24  H   UNL     1       8.913  21.475  55.468  1.00  0.00     0.189 HD
HETATM   25  C   UNL     1       7.763  23.147  54.755  1.00  0.00     0.049 A 
BRANCH  25  26
HETATM   26  C   UNL     1       7.381  22.615  53.401  1.00  0.00     0.030 C 
HETATM   27  C   UNL     1       7.766  23.610  52.305  1.00  0.00     0.016 C 
HETATM   28  C   UNL     1       8.007  21.244  53.120  1.00  0.00     0.016 C 
ENDBRANCH  25  26
ENDBRANCH   1  19
TORSDOF 6
ENDMDL
MODEL 5
REMARK VINA RESULT:      -8.4      2.320      3.529
REMARK  6 active torsions:
REMARK  status: ('A' for Active; 'I' for Inactive)
REMARK    1  A    between atoms: C_6  and  C_7 
REMARK    2  A    between atoms: C_10  and  C_11 
REMARK       I    between atoms: C_11  and  N_12 
REMARK    3  A    between atoms: N_12  and  C_13 
REMARK    4  A    between atoms: C_13  and  C_14 
REMARK    5  A    between atoms: C_17  and  C_18 
REMARK       I    between atoms: C_18  and  N_19 
REMARK    6  A    between atoms: N_19  and  C_20 
ROOT
HETATM    1  C   UNL     1       8.058  31.797  59.235  1.00  0.00     0.256 C 
HETATM    2  N   UNL     1       7.768  30.557  58.712  1.00  0.00    -0.353 N 
HETATM    3  O   UNL     1       9.104  32.383  58.971  1.00  0.00    -0.268 OA
HETATM    4  H   UNL     1       7.035  30.018  59.147  1.00  0.00     0.163 HD
ENDROOT
BRANCH   2   5
HETATM    5  C   UNL     1       8.757  29.850  57.938  1.00  0.00     0.161 C 
BRANCH   5   6
HETATM    6  C   UNL     1       8.150  28.700  57.179  1.00  0.00    -0.040 A 
HETATM    7  C   UNL     1       8.035  28.767  55.782  1.00  0.00     0.010 A 
HETATM    8  C   UNL     1       7.514  27.689  55.062  1.00  0.00     0.017 A 
HETATM    9  C   UNL     1       7.105  26.530  55.730  1.00  0.00     0.032 A 
HETATM   10  C   UNL     1       7.171  26.474  57.127  1.00  0.00     0.017 A 
HETATM   11  C   UNL     1       7.690  27.556  57.846  1.00  0.00     0.010 A 
BRANCH   9  12
HETATM   12  C   UNL     1       6.604  25.387  54.919  1.00  0.00     0.252 C 
HETATM   13  N   UNL     1       7.488  24.337  54.752  1.00  0.00    -0.352 N 
HETATM   14  H   UNL     1       8.443  24.448  55.065  1.00  0.00     0.163 HD
HETATM   15  O   UNL     1       5.486  25.437  54.417  1.00  0.00    -0.268 OA
BRANCH  13  16
HETATM   16  C   UNL     1       7.187  23.222  53.909  1.00  0.00     0.084 A 
HETATM   17  C   UNL     1       8.259  22.611  53.049  1.00  0.00     0.027 A 
HETATM   18  C   UNL     1       7.724  21.853  54.228  1.00  0.00     0.027 A 
ENDBRANCH  13  16
ENDBRANCH   9  12
ENDBRANCH   5   6
ENDBRANCH   2   5
BRANCH   1  19
HETATM   19  C   UNL     1       7.083  32.344  60.173  1.00  0.00     0.082 A 
HETATM   20  C   UNL     1       5.766  32.778  59.829  1.00  0.00     0.068 A 
HETATM   21  C   UNL     1       5.115  32.763  58.493  1.00  0.00     0.073 C 
HETATM   22  N   UNL     1       5.102  33.261  60.885  1.00  0.00    -0.179 NA
HETATM   23  N   UNL     1       5.956  33.111  61.899  1.00  0.00    -0.281 N 
HETATM   24  H   UNL     1       5.648  33.402  62.821  1.00  0.00     0.189 HD
HETATM   25  C   UNL     1       7.157  32.543  61.551  1.00  0.00     0.049 A 
BRANCH  25  26
HETATM   26  C   UNL     1       8.203  32.246  62.590  1.00  0.00     0.030 C 
HETATM   27  C   UNL     1       7.783  32.807  63.950  1.00  0.00     0.016 C 
HETATM   28  C   UNL     1       8.501  30.747  62.700  1.00  0.00     0.016 C 
ENDBRANCH  25  26
ENDBRANCH   1  19
TORSDOF 6
ENDMDL
MODEL 6
REMARK VINA RESULT:      -8.3      1.828      2.116
REMARK  6 active torsions:
REMARK  status: ('A' for Active; 'I' for Inactive)
REMARK    1  A    between atoms: C_6  and  C_7 
REMARK    2  A    between atoms: C_10  and  C_11 
REMARK       I    between atoms: C_11  and  N_12 
REMARK    3  A    between atoms: N_12  and  C_13 
REMARK    4  A    between atoms: C_13  and  C_14 
REMARK    5  A    between atoms: C_17  and  C_18 
REMARK       I    between atoms: C_18  and  N_19 
REMARK    6  A    between atoms: N_19  and  C_20 
ROOT
HETATM    1  C   UNL     1       7.244  30.505  58.405  1.00  0.00     0.256 C 
HETATM    2  N   UNL     1       7.484  29.196  58.051  1.00  0.00    -0.353 N 
HETATM    3  O   UNL     1       6.239  31.104  58.031  1.00  0.00    -0.268 OA
HETATM    4  H   UNL     1       8.419  28.837  58.166  1.00  0.00     0.163 HD
ENDROOT
BRANCH   2   5
HETATM    5  C   UNL     1       6.617  28.532  57.110  1.00  0.00     0.161 C 
BRANCH   5   6
HETATM    6  C   UNL     1       7.125  27.157  56.764  1.00  0.00    -0.040 A 
HETATM    7  C   UNL     1       7.684  26.346  57.763  1.00  0.00     0.010 A 
HETATM    8  C   UNL     1       8.119  25.052  57.466  1.00  0.00     0.017 A 
HETATM    9  C   UNL     1       7.995  24.552  56.165  1.00  0.00     0.032 A 
HETATM   10  C   UNL     1       7.484  25.372  55.152  1.00  0.00     0.017 A 
HETATM   11  C   UNL     1       7.052  26.668  55.452  1.00  0.00     0.010 A 
BRANCH   9  12
HETATM   12  C   UNL     1       8.424  23.152  55.904  1.00  0.00     0.252 C 
HETATM   13  N   UNL     1       8.602  22.817  54.573  1.00  0.00    -0.352 N 
HETATM   14  H   UNL     1       8.317  23.477  53.861  1.00  0.00     0.163 HD
HETATM   15  O   UNL     1       8.557  22.368  56.837  1.00  0.00    -0.268 OA
BRANCH  13  16
HETATM   16  C   UNL     1       8.905  21.482  54.163  1.00  0.00     0.084 A 
HETATM   17  C   UNL     1       7.824  20.437  54.124  1.00  0.00     0.027 A 
HETATM   18  C   UNL     1       8.411  20.955  52.843  1.00  0.00     0.027 A 
ENDBRANCH  13  16
ENDBRANCH   9  12
ENDBRANCH   5   6
ENDBRANCH   2   5
BRANCH   1  19
HETATM   19  C   UNL     1       8.282  31.159  59.195  1.00  0.00     0.082 A 
HETATM   20  C   UNL     1       9.632  31.359  58.773  1.00  0.00     0.068 A 
HETATM   21  C   UNL     1      10.257  30.968  57.482  1.00  0.00     0.073 C 
HETATM   22  N   UNL     1      10.370  31.961  59.712  1.00  0.00    -0.179 NA
HETATM   23  N   UNL     1       9.510  32.179  60.708  1.00  0.00    -0.281 N 
HETATM   24  H   UNL     1       9.857  32.651  61.536  1.00  0.00     0.189 HD
HETATM   25  C   UNL     1       8.230  31.746  60.458  1.00  0.00     0.049 A 
BRANCH  25  26
HETATM   26  C   UNL     1       7.127  31.977  61.454  1.00  0.00     0.030 C 
HETATM   27  C   UNL     1       7.706  32.331  62.825  1.00  0.00     0.016 C 
HETATM   28  C   UNL     1       6.147  33.061  60.992  1.00  0.00     0.016 C 
ENDBRANCH  25  26
ENDBRANCH   1  19
TORSDOF 6
ENDMDL
MODEL 7
REMARK VINA RESULT:      -8.2      2.283      8.404
REMARK  6 active torsions:
REMARK  status: ('A' for Active; 'I' for Inactive)
REMARK    1  A    between atoms: C_6  and  C_7 
REMARK    2  A    between atoms: C_10  and  C_11 
REMARK       I    between atoms: C_11  and  N_12 
REMARK    3  A    between atoms: N_12  and  C_13 
REMARK    4  A    between atoms: C_13  and  C_14 
REMARK    5  A    between atoms: C_17  and  C_18 
REMARK       I    between atoms: C_18  and  N_19 
REMARK    6  A    between atoms: N_19  and  C_20 
ROOT
HETATM    1  C   UNL     1       6.122  25.528  54.988  1.00  0.00     0.256 C 
HETATM    2  N   UNL     1       6.348  26.826  54.589  1.00  0.00    -0.353 N 
HETATM    3  O   UNL     1       5.257  25.244  55.812  1.00  0.00    -0.268 OA
HETATM    4  H   UNL     1       7.214  27.033  54.116  1.00  0.00     0.163 HD
ENDROOT
BRANCH   2   5
HETATM    5  C   UNL     1       5.657  27.912  55.238  1.00  0.00     0.161 C 
BRANCH   5   6
HETATM    6  C   UNL     1       6.521  28.575  56.278  1.00  0.00    -0.040 A 
HETATM    7  C   UNL     1       6.018  29.655  57.019  1.00  0.00     0.010 A 
HETATM    8  C   UNL     1       6.793  30.251  58.017  1.00  0.00     0.017 A 
HETATM    9  C   UNL     1       8.078  29.771  58.289  1.00  0.00     0.032 A 
HETATM   10  C   UNL     1       8.605  28.726  57.522  1.00  0.00     0.017 A 
HETATM   11  C   UNL     1       7.829  28.132  56.521  1.00  0.00     0.010 A 
BRANCH   9  12
HETATM   12  C   UNL     1       8.849  30.402  59.395  1.00  0.00     0.252 C 
HETATM   13  N   UNL     1       8.325  30.233  60.664  1.00  0.00    -0.352 N 
HETATM   14  H   UNL     1       7.408  29.817  60.763  1.00  0.00     0.163 HD
HETATM   15  O   UNL     1       9.855  31.055  59.144  1.00  0.00    -0.268 OA
BRANCH  13  16
HETATM   16  C   UNL     1       8.894  30.873  61.809  1.00  0.00     0.084 A 
HETATM   17  C   UNL     1       8.785  32.363  61.978  1.00  0.00     0.027 A 
HETATM   18  C   UNL     1       8.012  31.449  62.883  1.00  0.00     0.027 A 
ENDBRANCH  13  16
ENDBRANCH   9  12
ENDBRANCH   5   6
ENDBRANCH   2   5
BRANCH   1  19
HETATM   19  C   UNL     1       7.011  24.517  54.425  1.00  0.00     0.082 A 
HETATM   20  C   UNL     1       7.342  24.392  53.040  1.00  0.00     0.068 A 
HETATM   21  C   UNL     1       6.879  25.236  51.908  1.00  0.00     0.073 C 
HETATM   22  N   UNL     1       8.157  23.358  52.808  1.00  0.00    -0.179 NA
HETATM   23  N   UNL     1       8.379  22.843  54.019  1.00  0.00    -0.281 N 
HETATM   24  H   UNL     1       8.999  22.043  54.084  1.00  0.00     0.189 HD
HETATM   25  C   UNL     1       7.744  23.504  55.042  1.00  0.00     0.049 A 
BRANCH  25  26
HETATM   26  C   UNL     1       7.944  23.089  56.473  1.00  0.00     0.030 C 
HETATM   27  C   UNL     1       8.555  21.688  56.546  1.00  0.00     0.016 C 
HETATM   28  C   UNL     1       8.808  24.089  57.251  1.00  0.00     0.016 C 
ENDBRANCH  25  26
ENDBRANCH   1  19
TORSDOF 6
ENDMDL
MODEL 8
REMARK VINA RESULT:      -8.1      7.805     13.216
REMARK  6 active torsions:
REMARK  status: ('A' for Active; 'I' for Inactive)
REMARK    1  A    between atoms: C_6  and  C_7 
REMARK    2  A    between atoms: C_10  and  C_11 
REMARK       I    between atoms: C_11  and  N_12 
REMARK    3  A    between atoms: N_12  and  C_13 
REMARK    4  A    between atoms: C_13  and  C_14 
REMARK    5  A    between atoms: C_17  and  C_18 
REMARK       I    between atoms: C_18  and  N_19 
REMARK    6  A    between atoms: N_19  and  C_20 
ROOT
HETATM    1  C   UNL     1       4.703  32.573  62.045  1.00  0.00     0.256 C 
HETATM    2  N   UNL     1       4.763  33.743  62.767  1.00  0.00    -0.353 N 
HETATM    3  O   UNL     1       3.847  31.719  62.264  1.00  0.00    -0.268 OA
HETATM    4  H   UNL     1       5.613  34.283  62.725  1.00  0.00     0.163 HD
ENDROOT
BRANCH   2   5
HETATM    5  C   UNL     1       3.895  33.938  63.900  1.00  0.00     0.161 C 
BRANCH   5   6
HETATM    6  C   UNL     1       4.679  34.117  65.174  1.00  0.00    -0.040 A 
HETATM    7  C   UNL     1       4.018  34.488  66.355  1.00  0.00     0.010 A 
HETATM    8  C   UNL     1       4.725  34.614  67.553  1.00  0.00     0.017 A 
HETATM    9  C   UNL     1       6.101  34.365  67.585  1.00  0.00     0.032 A 
HETATM   10  C   UNL     1       6.776  34.042  66.402  1.00  0.00     0.017 A 
HETATM   11  C   UNL     1       6.066  33.920  65.203  1.00  0.00     0.010 A 
BRANCH   9  12
HETATM   12  C   UNL     1       6.806  34.461  68.892  1.00  0.00     0.252 C 
HETATM   13  N   UNL     1       6.026  34.241  70.013  1.00  0.00    -0.352 N 
HETATM   14  H   UNL     1       5.024  34.158  69.901  1.00  0.00     0.163 HD
HETATM   15  O   UNL     1       7.995  34.761  68.926  1.00  0.00    -0.268 OA
BRANCH  13  16
HETATM   16  C   UNL     1       6.539  34.407  71.337  1.00  0.00     0.084 A 
HETATM   17  C   UNL     1       6.786  35.784  71.887  1.00  0.00     0.027 A 
HETATM   18  C   UNL     1       5.665  34.950  72.435  1.00  0.00     0.027 A 
ENDBRANCH  13  16
ENDBRANCH   9  12
ENDBRANCH   5   6
ENDBRANCH   2   5
BRANCH   1  19
HETATM   19  C   UNL     1       5.753  32.374  61.051  1.00  0.00     0.082 A 
HETATM   20  C   UNL     1       5.656  32.730  59.671  1.00  0.00     0.068 A 
HETATM   21  C   UNL     1       4.512  33.367  58.966  1.00  0.00     0.073 C 
HETATM   22  N   UNL     1       6.759  32.407  58.988  1.00  0.00    -0.179 NA
HETATM   23  N   UNL     1       7.568  31.884  59.911  1.00  0.00    -0.281 N 
HETATM   24  H   UNL     1       8.489  31.579  59.612  1.00  0.00     0.189 HD
HETATM   25  C   UNL     1       7.040  31.855  61.178  1.00  0.00     0.049 A 
BRANCH  25  26
HETATM   26  C   UNL     1       7.851  31.357  62.343  1.00  0.00     0.030 C 
HETATM   27  C   UNL     1       9.085  30.596  61.853  1.00  0.00     0.016 C 
HETATM   28  C   UNL     1       8.263  32.490  63.289  1.00  0.00     0.016 C 
ENDBRANCH  25  26
ENDBRANCH   1  19
TORSDOF 6
ENDMDL
MODEL 9
REMARK VINA RESULT:      -8.1      4.907      7.936
REMARK  6 active torsions:
REMARK  status: ('A' for Active; 'I' for Inactive)
REMARK    1  A    between atoms: C_6  and  C_7 
REMARK    2  A    between atoms: C_10  and  C_11 
REMARK       I    between atoms: C_11  and  N_12 
REMARK    3  A    between atoms: N_12  and  C_13 
REMARK    4  A    between atoms: C_13  and  C_14 
REMARK    5  A    between atoms: C_17  and  C_18 
REMARK       I    between atoms: C_18  and  N_19 
REMARK    6  A    between atoms: N_19  and  C_20 
ROOT
HETATM    1  C   UNL     1       6.596  25.768  54.971  1.00  0.00     0.256 C 
HETATM    2  N   UNL     1       7.248  26.572  54.064  1.00  0.00    -0.353 N 
HETATM    3  O   UNL     1       5.445  25.999  55.332  1.00  0.00    -0.268 OA
HETATM    4  H   UNL     1       8.250  26.492  53.994  1.00  0.00     0.163 HD
ENDROOT
BRANCH   2   5
HETATM    5  C   UNL     1       6.636  27.797  53.614  1.00  0.00     0.161 C 
BRANCH   5   6
HETATM    6  C   UNL     1       5.945  27.616  52.288  1.00  0.00    -0.040 A 
HETATM    7  C   UNL     1       5.516  28.739  51.564  1.00  0.00     0.010 A 
HETATM    8  C   UNL     1       4.913  28.588  50.313  1.00  0.00     0.017 A 
HETATM    9  C   UNL     1       4.737  27.311  49.768  1.00  0.00     0.032 A 
HETATM   10  C   UNL     1       5.118  26.184  50.505  1.00  0.00     0.017 A 
HETATM   11  C   UNL     1       5.718  26.338  51.759  1.00  0.00     0.010 A 
BRANCH   9  12
HETATM   12  C   UNL     1       4.137  27.199  48.411  1.00  0.00     0.252 C 
HETATM   13  N   UNL     1       3.019  27.981  48.183  1.00  0.00    -0.352 N 
HETATM   14  H   UNL     1       2.601  28.473  48.960  1.00  0.00     0.163 HD
HETATM   15  O   UNL     1       4.614  26.418  47.594  1.00  0.00    -0.268 OA
BRANCH  13  16
HETATM   16  C   UNL     1       2.273  27.896  46.966  1.00  0.00     0.084 A 
HETATM   17  C   UNL     1       1.058  27.014  46.881  1.00  0.00     0.027 A 
HETATM   18  C   UNL     1       0.902  28.506  46.864  1.00  0.00     0.027 A 
ENDBRANCH  13  16
ENDBRANCH   9  12
ENDBRANCH   5   6
ENDBRANCH   2   5
BRANCH   1  19
HETATM   19  C   UNL     1       7.372  24.664  55.528  1.00  0.00     0.082 A 
HETATM   20  C   UNL     1       7.928  24.631  56.843  1.00  0.00     0.068 A 
HETATM   21  C   UNL     1       7.838  25.670  57.902  1.00  0.00     0.073 C 
HETATM   22  N   UNL     1       8.614  23.507  57.073  1.00  0.00    -0.179 NA
HETATM   23  N   UNL     1       8.477  22.809  55.944  1.00  0.00    -0.281 N 
HETATM   24  H   UNL     1       8.913  21.893  55.901  1.00  0.00     0.189 HD
HETATM   25  C   UNL     1       7.722  23.431  54.980  1.00  0.00     0.049 A 
BRANCH  25  26
HETATM   26  C   UNL     1       7.418  22.747  53.675  1.00  0.00     0.030 C 
HETATM   27  C   UNL     1       8.011  23.536  52.505  1.00  0.00     0.016 C 
HETATM   28  C   UNL     1       7.918  21.299  53.649  1.00  0.00     0.016 C 
ENDBRANCH  25  26
ENDBRANCH   1  19
TORSDOF 6
ENDMDL
MODEL 10
REMARK VINA RESULT:      -7.8      4.379      5.824
REMARK  6 active torsions:
REMARK  status: ('A' for Active; 'I' for Inactive)
REMARK    1  A    between atoms: C_6  and  C_7 
REMARK    2  A    between atoms: C_10  and  C_11 
REMARK       I    between atoms: C_11  and  N_12 
REMARK    3  A    between atoms: N_12  and  C_13 
REMARK    4  A    between atoms: C_13  and  C_14 
REMARK    5  A    between atoms: C_17  and  C_18 
REMARK       I    between atoms: C_18  and  N_19 
REMARK    6  A    between atoms: N_19  and  C_20 
ROOT
HETATM    1  C   UNL     1       4.865  28.597  51.677  1.00  0.00     0.256 C 
HETATM    2  N   UNL     1       4.232  27.393  51.470  1.00  0.00    -0.353 N 
HETATM    3  O   UNL     1       6.011  28.803  51.287  1.00  0.00    -0.268 OA
HETATM    4  H   UNL     1       3.410  27.189  52.017  1.00  0.00     0.163 HD
ENDROOT
BRANCH   2   5
HETATM    5  C   UNL     1       4.957  26.284  50.902  1.00  0.00     0.161 C 
BRANCH   5   6
HETATM    6  C   UNL     1       5.839  25.616  51.924  1.00  0.00    -0.040 A 
HETATM    7  C   UNL     1       5.307  25.241  53.168  1.00  0.00     0.010 A 
HETATM    8  C   UNL     1       6.102  24.581  54.108  1.00  0.00     0.017 A 
HETATM    9  C   UNL     1       7.437  24.285  53.814  1.00  0.00     0.032 A 
HETATM   10  C   UNL     1       7.988  24.698  52.596  1.00  0.00     0.017 A 
HETATM   11  C   UNL     1       7.191  25.361  51.657  1.00  0.00     0.010 A 
BRANCH   9  12
HETATM   12  C   UNL     1       8.233  23.536  54.824  1.00  0.00     0.252 C 
HETATM   13  N   UNL     1       8.349  22.175  54.607  1.00  0.00    -0.352 N 
HETATM   14  H   UNL     1       7.800  21.748  53.873  1.00  0.00     0.163 HD
HETATM   15  O   UNL     1       8.702  24.124  55.793  1.00  0.00    -0.268 OA
BRANCH  13  16
HETATM   16  C   UNL     1       8.990  21.310  55.548  1.00  0.00     0.084 A 
HETATM   17  C   UNL     1       8.328  20.995  56.861  1.00  0.00     0.027 A 
HETATM   18  C   UNL     1       8.453  19.930  55.811  1.00  0.00     0.027 A 
ENDBRANCH  13  16
ENDBRANCH   9  12
ENDBRANCH   5   6
ENDBRANCH   2   5
BRANCH   1  19
HETATM   19  C   UNL     1       4.121  29.592  52.444  1.00  0.00     0.082 A 
HETATM   20  C   UNL     1       3.428  30.710  51.886  1.00  0.00     0.068 A 
HETATM   21  C   UNL     1       3.306  31.091  50.454  1.00  0.00     0.073 C 
HETATM   22  N   UNL     1       2.858  31.471  52.826  1.00  0.00    -0.179 NA
HETATM   23  N   UNL     1       3.145  30.842  53.968  1.00  0.00    -0.281 N 
HETATM   24  H   UNL     1       2.789  31.244  54.829  1.00  0.00     0.189 HD
HETATM   25  C   UNL     1       3.879  29.692  53.813  1.00  0.00     0.049 A 
BRANCH  25  26
HETATM   26  C   UNL     1       4.229  28.832  54.997  1.00  0.00     0.030 C 
HETATM   27  C   UNL     1       5.719  28.487  54.988  1.00  0.00     0.016 C 
HETATM   28  C   UNL     1       3.841  29.490  56.326  1.00  0.00     0.016 C 
ENDBRANCH  25  26
ENDBRANCH   1  19
TORSDOF 6
ENDMDL
