MODEL 1
REMARK VINA RESULT:      -9.0      0.000      0.000
REMARK  3 active torsions:
REMARK  status: ('A' for Active; 'I' for Inactive)
REMARK    1  A    between atoms: C_8  and  C_9 
REMARK       I    between atoms: C_9  and  N_10 
REMARK    2  A    between atoms: N_10  and  C_11 
REMARK    3  A    between atoms: C_18  and  C_19 
REMARK       I    between atoms: C_19  and  N_20 
ROOT
HETATM    1  C   UNL     1       5.175  26.260  52.187  1.00  0.00     0.036 A 
HETATM    2  C   UNL     1       5.200  26.355  50.788  1.00  0.00     0.046 A 
HETATM    3  C   UNL     1       4.560  27.440  50.151  1.00  0.00     0.030 A 
HETATM    4  C   UNL     1       3.950  28.412  50.935  1.00  0.00     0.063 A 
HETATM    5  N   UNL     1       3.442  29.323  50.050  1.00  0.00    -0.277 N 
HETATM    6  H   UNL     1       2.937  30.175  50.269  1.00  0.00     0.189 HD
HETATM    7  N   UNL     1       3.636  29.014  48.758  1.00  0.00    -0.168 NA
HETATM    8  C   UNL     1       4.322  27.848  48.804  1.00  0.00     0.156 A 
HETATM    9  C   UNL     1       3.919  28.358  52.330  1.00  0.00     0.034 A 
HETATM   10  C   UNL     1       4.530  27.254  52.936  1.00  0.00     0.032 A 
ENDROOT
BRANCH   1  11
HETATM   11  N   UNL     1       5.731  25.177  52.904  1.00  0.00    -0.323 N 
HETATM   12  C   UNL     1       7.073  24.964  53.174  1.00  0.00     0.258 C 
HETATM   13  O   UNL     1       7.990  25.743  52.961  1.00  0.00    -0.267 OA
HETATM   14  H   UNL     1       5.068  24.484  53.221  1.00  0.00     0.169 HD
BRANCH  12  15
HETATM   15  C   UNL     1       7.387  23.646  53.791  1.00  0.00     0.056 A 
HETATM   16  C   UNL     1       7.320  23.463  55.179  1.00  0.00     0.048 A 
HETATM   17  C   UNL     1       6.903  24.557  56.121  1.00  0.00     0.071 C 
HETATM   18  N   UNL     1       7.630  22.276  55.771  1.00  0.00    -0.241 NA
HETATM   19  C   UNL     1       7.994  21.256  54.969  1.00  0.00     0.126 A 
HETATM   20 CL   UNL     1       8.375  19.800  55.789  1.00  0.00    -0.063 Cl
HETATM   21  C   UNL     1       8.068  21.336  53.591  1.00  0.00     0.045 A 
HETATM   22  C   UNL     1       7.755  22.553  52.992  1.00  0.00     0.022 A 
ENDBRANCH  12  15
ENDBRANCH   1  11
BRANCH   8  23
HETATM   23  C   UNL     1       4.709  27.144  47.574  1.00  0.00     0.270 C 
HETATM   24  N   UNL     1       5.973  27.433  47.138  1.00  0.00    -0.365 N 
HETATM   25  H   UNL     1       6.523  28.106  47.659  1.00  0.00     0.159 HD
HETATM   26  H   UNL     1       6.308  27.027  46.279  1.00  0.00     0.159 HD
HETATM   27  O   UNL     1       3.986  26.371  46.954  1.00  0.00    -0.266 OA
ENDBRANCH   8  23
TORSDOF 3
ENDMDL
MODEL 2
REMARK VINA RESULT:      -8.7      4.888      7.044
REMARK  3 active torsions:
REMARK  status: ('A' for Active; 'I' for Inactive)
REMARK    1  A    between atoms: C_8  and  C_9 
REMARK       I    between atoms: C_9  and  N_10 
REMARK    2  A    between atoms: N_10  and  C_11 
REMARK    3  A    between atoms: C_18  and  C_19 
REMARK       I    between atoms: C_19  and  N_20 
ROOT
HETATM    1  C   UNL     1       7.344  27.409  56.547  1.00  0.00     0.036 A 
HETATM    2  C   UNL     1       8.331  28.318  56.956  1.00  0.00     0.046 A 
HETATM    3  C   UNL     1       7.952  29.514  57.602  1.00  0.00     0.030 A 
HETATM    4  C   UNL     1       6.604  29.744  57.850  1.00  0.00     0.063 A 
HETATM    5  N   UNL     1       6.555  30.952  58.488  1.00  0.00    -0.277 N 
HETATM    6  H   UNL     1       5.730  31.433  58.829  1.00  0.00     0.189 HD
HETATM    7  N   UNL     1       7.748  31.548  58.647  1.00  0.00    -0.168 NA
HETATM    8  C   UNL     1       8.622  30.672  58.099  1.00  0.00     0.156 A 
HETATM    9  C   UNL     1       5.596  28.855  57.471  1.00  0.00     0.034 A 
HETATM   10  C   UNL     1       5.995  27.692  56.801  1.00  0.00     0.032 A 
ENDROOT
BRANCH   1  11
HETATM   11  N   UNL     1       7.627  26.220  55.838  1.00  0.00    -0.323 N 
HETATM   12  C   UNL     1       6.763  25.522  55.012  1.00  0.00     0.258 C 
HETATM   13  O   UNL     1       5.656  25.887  54.643  1.00  0.00    -0.267 OA
HETATM   14  H   UNL     1       8.553  25.842  55.983  1.00  0.00     0.169 HD
BRANCH  12  15
HETATM   15  C   UNL     1       7.271  24.205  54.540  1.00  0.00     0.056 A 
HETATM   16  C   UNL     1       7.762  24.043  53.237  1.00  0.00     0.048 A 
HETATM   17  C   UNL     1       7.837  25.177  52.254  1.00  0.00     0.071 C 
HETATM   18  N   UNL     1       8.207  22.843  52.772  1.00  0.00    -0.241 NA
HETATM   19  C   UNL     1       8.177  21.796  53.619  1.00  0.00     0.126 A 
HETATM   20 CL   UNL     1       8.746  20.321  52.957  1.00  0.00    -0.063 Cl
HETATM   21  C   UNL     1       7.731  21.864  54.926  1.00  0.00     0.045 A 
HETATM   22  C   UNL     1       7.274  23.093  55.395  1.00  0.00     0.022 A 
ENDBRANCH  12  15
ENDBRANCH   1  11
BRANCH   8  23
HETATM   23  C   UNL     1      10.060  30.970  58.039  1.00  0.00     0.270 C 
HETATM   24  N   UNL     1      10.805  30.003  57.419  1.00  0.00    -0.365 N 
HETATM   25  H   UNL     1      10.336  29.171  57.082  1.00  0.00     0.159 HD
HETATM   26  H   UNL     1      11.806  30.103  57.368  1.00  0.00     0.159 HD
HETATM   27  O   UNL     1      10.587  31.974  58.505  1.00  0.00    -0.266 OA
ENDBRANCH   8  23
TORSDOF 3
ENDMDL
MODEL 3
REMARK VINA RESULT:      -8.6     10.516     12.678
REMARK  3 active torsions:
REMARK  status: ('A' for Active; 'I' for Inactive)
REMARK    1  A    between atoms: C_8  and  C_9 
REMARK       I    between atoms: C_9  and  N_10 
REMARK    2  A    between atoms: N_10  and  C_11 
REMARK    3  A    between atoms: C_18  and  C_19 
REMARK       I    between atoms: C_19  and  N_20 
ROOT
HETATM    1  C   UNL     1       7.002  32.199  61.980  1.00  0.00     0.036 A 
HETATM    2  C   UNL     1       5.786  32.849  62.230  1.00  0.00     0.046 A 
HETATM    3  C   UNL     1       5.618  33.576  63.428  1.00  0.00     0.030 A 
HETATM    4  C   UNL     1       6.683  33.660  64.316  1.00  0.00     0.063 A 
HETATM    5  N   UNL     1       6.229  34.427  65.353  1.00  0.00    -0.277 N 
HETATM    6  H   UNL     1       6.743  34.705  66.181  1.00  0.00     0.189 HD
HETATM    7  N   UNL     1       4.951  34.823  65.236  1.00  0.00    -0.168 NA
HETATM    8  C   UNL     1       4.558  34.300  64.052  1.00  0.00     0.156 A 
HETATM    9  C   UNL     1       7.913  33.038  64.093  1.00  0.00     0.034 A 
HETATM   10  C   UNL     1       8.043  32.294  62.914  1.00  0.00     0.032 A 
ENDROOT
BRANCH   1  11
HETATM   11  N   UNL     1       7.236  31.396  60.840  1.00  0.00    -0.323 N 
HETATM   12  C   UNL     1       7.994  31.733  59.731  1.00  0.00     0.258 C 
HETATM   13  O   UNL     1       8.703  32.720  59.607  1.00  0.00    -0.267 OA
HETATM   14  H   UNL     1       6.772  30.498  60.842  1.00  0.00     0.169 HD
BRANCH  12  15
HETATM   15  C   UNL     1       7.917  30.767  58.601  1.00  0.00     0.056 A 
HETATM   16  C   UNL     1       6.808  30.742  57.744  1.00  0.00     0.048 A 
HETATM   17  C   UNL     1       5.653  31.693  57.887  1.00  0.00     0.071 C 
HETATM   18  N   UNL     1       6.700  29.849  56.720  1.00  0.00    -0.241 NA
HETATM   19  C   UNL     1       7.717  28.983  56.539  1.00  0.00     0.126 A 
HETATM   20 CL   UNL     1       7.503  27.890  55.237  1.00  0.00    -0.063 Cl
HETATM   21  C   UNL     1       8.858  28.948  57.318  1.00  0.00     0.045 A 
HETATM   22  C   UNL     1       8.960  29.859  58.366  1.00  0.00     0.022 A 
ENDBRANCH  12  15
ENDBRANCH   1  11
BRANCH   8  23
HETATM   23  C   UNL     1       3.184  34.478  63.561  1.00  0.00     0.270 C 
HETATM   24  N   UNL     1       2.887  35.760  63.184  1.00  0.00    -0.365 N 
HETATM   25  H   UNL     1       3.599  36.473  63.291  1.00  0.00     0.159 HD
HETATM   26  H   UNL     1       1.956  35.984  62.873  1.00  0.00     0.159 HD
HETATM   27  O   UNL     1       2.343  33.587  63.495  1.00  0.00    -0.266 OA
ENDBRANCH   8  23
TORSDOF 3
ENDMDL
MODEL 4
REMARK VINA RESULT:      -8.5      5.434      7.408
REMARK  3 active torsions:
REMARK  status: ('A' for Active; 'I' for Inactive)
REMARK    1  A    between atoms: C_8  and  C_9 
REMARK       I    between atoms: C_9  and  N_10 
REMARK    2  A    between atoms: N_10  and  C_11 
REMARK    3  A    between atoms: C_18  and  C_19 
REMARK       I    between atoms: C_19  and  N_20 
ROOT
HETATM    1  C   UNL     1       6.546  28.364  56.746  1.00  0.00     0.036 A 
HETATM    2  C   UNL     1       7.477  29.119  57.473  1.00  0.00     0.046 A 
HETATM    3  C   UNL     1       7.084  30.349  58.043  1.00  0.00     0.030 A 
HETATM    4  C   UNL     1       5.766  30.764  57.899  1.00  0.00     0.063 A 
HETATM    5  N   UNL     1       5.689  31.959  58.558  1.00  0.00    -0.277 N 
HETATM    6  H   UNL     1       4.871  32.548  58.669  1.00  0.00     0.189 HD
HETATM    7  N   UNL     1       6.849  32.378  59.090  1.00  0.00    -0.168 NA
HETATM    8  C   UNL     1       7.723  31.395  58.775  1.00  0.00     0.156 A 
HETATM    9  C   UNL     1       4.809  30.031  57.195  1.00  0.00     0.034 A 
HETATM   10  C   UNL     1       5.232  28.832  56.609  1.00  0.00     0.032 A 
ENDROOT
BRANCH   1  11
HETATM   11  N   UNL     1       6.868  27.155  56.088  1.00  0.00    -0.323 N 
HETATM   12  C   UNL     1       6.463  25.882  56.449  1.00  0.00     0.258 C 
HETATM   13  O   UNL     1       5.646  25.596  57.312  1.00  0.00    -0.267 OA
HETATM   14  H   UNL     1       7.480  27.249  55.288  1.00  0.00     0.169 HD
BRANCH  12  15
HETATM   15  C   UNL     1       7.101  24.778  55.681  1.00  0.00     0.056 A 
HETATM   16  C   UNL     1       8.255  24.140  56.156  1.00  0.00     0.048 A 
HETATM   17  C   UNL     1       8.899  24.499  57.465  1.00  0.00     0.071 C 
HETATM   18  N   UNL     1       8.875  23.146  55.459  1.00  0.00    -0.241 NA
HETATM   19  C   UNL     1       8.329  22.774  54.285  1.00  0.00     0.126 A 
HETATM   20 CL   UNL     1       9.170  21.525  53.467  1.00  0.00    -0.063 Cl
HETATM   21  C   UNL     1       7.183  23.330  53.748  1.00  0.00     0.045 A 
HETATM   22  C   UNL     1       6.556  24.348  54.462  1.00  0.00     0.022 A 
ENDBRANCH  12  15
ENDBRANCH   1  11
BRANCH   8  23
HETATM   23  C   UNL     1       9.140  31.487  59.154  1.00  0.00     0.270 C 
HETATM   24  N   UNL     1       9.473  30.747  60.256  1.00  0.00    -0.365 N 
HETATM   25  H   UNL     1       8.743  30.229  60.731  1.00  0.00     0.159 HD
HETATM   26  H   UNL     1      10.415  30.782  60.612  1.00  0.00     0.159 HD
HETATM   27  O   UNL     1       9.977  32.167  58.570  1.00  0.00    -0.266 OA
ENDBRANCH   8  23
TORSDOF 3
ENDMDL
MODEL 5
REMARK VINA RESULT:      -8.5      5.100      6.954
REMARK  3 active torsions:
REMARK  status: ('A' for Active; 'I' for Inactive)
REMARK    1  A    between atoms: C_8  and  C_9 
REMARK       I    between atoms: C_9  and  N_10 
REMARK    2  A    between atoms: N_10  and  C_11 
REMARK    3  A    between atoms: C_18  and  C_19 
REMARK       I    between atoms: C_19  and  N_20 
ROOT
HETATM    1  C   UNL     1       7.609  28.066  56.686  1.00  0.00     0.036 A 
HETATM    2  C   UNL     1       6.443  28.821  56.872  1.00  0.00     0.046 A 
HETATM    3  C   UNL     1       6.492  30.002  57.645  1.00  0.00     0.030 A 
HETATM    4  C   UNL     1       7.711  30.406  58.173  1.00  0.00     0.063 A 
HETATM    5  N   UNL     1       7.446  31.567  58.845  1.00  0.00    -0.277 N 
HETATM    6  H   UNL     1       8.106  32.149  59.349  1.00  0.00     0.189 HD
HETATM    7  N   UNL     1       6.155  31.938  58.831  1.00  0.00    -0.168 NA
HETATM    8  C   UNL     1       5.551  30.976  58.096  1.00  0.00     0.156 A 
HETATM    9  C   UNL     1       8.895  29.688  57.997  1.00  0.00     0.034 A 
HETATM   10  C   UNL     1       8.814  28.503  57.256  1.00  0.00     0.032 A 
ENDROOT
BRANCH   1  11
HETATM   11  N   UNL     1       7.640  26.840  55.984  1.00  0.00    -0.323 N 
HETATM   12  C   UNL     1       7.174  25.616  56.432  1.00  0.00     0.258 C 
HETATM   13  O   UNL     1       6.531  25.412  57.452  1.00  0.00    -0.267 OA
HETATM   14  H   UNL     1       8.074  26.877  55.072  1.00  0.00     0.169 HD
BRANCH  12  15
HETATM   15  C   UNL     1       7.500  24.460  55.554  1.00  0.00     0.056 A 
HETATM   16  C   UNL     1       6.730  24.173  54.418  1.00  0.00     0.048 A 
HETATM   17  C   UNL     1       5.560  25.018  53.999  1.00  0.00     0.071 C 
HETATM   18  N   UNL     1       6.991  23.105  53.614  1.00  0.00    -0.241 NA
HETATM   19  C   UNL     1       8.040  22.324  53.936  1.00  0.00     0.126 A 
HETATM   20 CL   UNL     1       8.297  20.998  52.881  1.00  0.00    -0.063 Cl
HETATM   21  C   UNL     1       8.868  22.539  55.022  1.00  0.00     0.045 A 
HETATM   22  C   UNL     1       8.594  23.630  55.843  1.00  0.00     0.022 A 
ENDBRANCH  12  15
ENDBRANCH   1  11
BRANCH   8  23
HETATM   23  C   UNL     1       4.100  30.994  57.865  1.00  0.00     0.270 C 
HETATM   24  N   UNL     1       3.376  30.315  58.808  1.00  0.00    -0.365 N 
HETATM   25  H   UNL     1       3.873  29.845  59.554  1.00  0.00     0.159 HD
HETATM   26  H   UNL     1       2.376  30.240  58.707  1.00  0.00     0.159 HD
HETATM   27  O   UNL     1       3.549  31.542  56.916  1.00  0.00    -0.266 OA
ENDBRANCH   8  23
TORSDOF 3
ENDMDL
MODEL 6
REMARK VINA RESULT:      -8.3      3.361      7.943
REMARK  3 active torsions:
REMARK  status: ('A' for Active; 'I' for Inactive)
REMARK    1  A    between atoms: C_8  and  C_9 
REMARK       I    between atoms: C_9  and  N_10 
REMARK    2  A    between atoms: N_10  and  C_11 
REMARK    3  A    between atoms: C_18  and  C_19 
REMARK       I    between atoms: C_19  and  N_20 
ROOT
HETATM    1  C   UNL     1       6.979  25.102  54.026  1.00  0.00     0.036 A 
HETATM    2  C   UNL     1       7.239  23.725  54.007  1.00  0.00     0.046 A 
HETATM    3  C   UNL     1       7.694  23.085  55.180  1.00  0.00     0.030 A 
HETATM    4  C   UNL     1       7.837  23.836  56.341  1.00  0.00     0.063 A 
HETATM    5  N   UNL     1       8.269  22.953  57.291  1.00  0.00    -0.277 N 
HETATM    6  H   UNL     1       8.470  23.150  58.265  1.00  0.00     0.189 HD
HETATM    7  N   UNL     1       8.454  21.700  56.845  1.00  0.00    -0.168 NA
HETATM    8  C   UNL     1       8.107  21.767  55.539  1.00  0.00     0.156 A 
HETATM    9  C   UNL     1       7.572  25.205  56.400  1.00  0.00     0.034 A 
HETATM   10  C   UNL     1       7.156  25.824  55.215  1.00  0.00     0.032 A 
ENDROOT
BRANCH   1  11
HETATM   11  N   UNL     1       6.583  25.836  52.884  1.00  0.00    -0.323 N 
HETATM   12  C   UNL     1       5.295  26.219  52.550  1.00  0.00     0.258 C 
HETATM   13  O   UNL     1       4.300  26.112  53.252  1.00  0.00    -0.267 OA
HETATM   14  H   UNL     1       7.329  26.073  52.245  1.00  0.00     0.169 HD
BRANCH  12  15
HETATM   15  C   UNL     1       5.151  26.825  51.199  1.00  0.00     0.056 A 
HETATM   16  C   UNL     1       5.307  28.204  51.003  1.00  0.00     0.048 A 
HETATM   17  C   UNL     1       5.654  29.146  52.122  1.00  0.00     0.071 C 
HETATM   18  N   UNL     1       5.152  28.787  49.782  1.00  0.00    -0.241 NA
HETATM   19  C   UNL     1       4.856  27.984  48.741  1.00  0.00     0.126 A 
HETATM   20 CL   UNL     1       4.671  28.794  47.242  1.00  0.00    -0.063 Cl
HETATM   21  C   UNL     1       4.705  26.613  48.833  1.00  0.00     0.045 A 
HETATM   22  C   UNL     1       4.859  26.024  50.085  1.00  0.00     0.022 A 
ENDBRANCH  12  15
ENDBRANCH   1  11
BRANCH   8  23
HETATM   23  C   UNL     1       8.202  20.589  54.665  1.00  0.00     0.270 C 
HETATM   24  N   UNL     1       9.044  19.615  55.130  1.00  0.00    -0.365 N 
HETATM   25  H   UNL     1       9.542  19.779  55.997  1.00  0.00     0.159 HD
HETATM   26  H   UNL     1       9.202  18.789  54.576  1.00  0.00     0.159 HD
HETATM   27  O   UNL     1       7.611  20.459  53.599  1.00  0.00    -0.266 OA
ENDBRANCH   8  23
TORSDOF 3
ENDMDL
MODEL 7
REMARK VINA RESULT:      -8.2      3.638      5.483
REMARK  3 active torsions:
REMARK  status: ('A' for Active; 'I' for Inactive)
REMARK    1  A    between atoms: C_8  and  C_9 
REMARK       I    between atoms: C_9  and  N_10 
REMARK    2  A    between atoms: N_10  and  C_11 
REMARK    3  A    between atoms: C_18  and  C_19 
REMARK       I    between atoms: C_19  and  N_20 
ROOT
HETATM    1  C   UNL     1       4.732  27.266  54.387  1.00  0.00     0.036 A 
HETATM    2  C   UNL     1       4.689  28.081  55.527  1.00  0.00     0.046 A 
HETATM    3  C   UNL     1       4.072  29.348  55.454  1.00  0.00     0.030 A 
HETATM    4  C   UNL     1       3.488  29.741  54.257  1.00  0.00     0.063 A 
HETATM    5  N   UNL     1       2.969  30.984  54.499  1.00  0.00    -0.277 N 
HETATM    6  H   UNL     1       2.460  31.573  53.850  1.00  0.00     0.189 HD
HETATM    7  N   UNL     1       3.194  31.450  55.738  1.00  0.00    -0.168 NA
HETATM    8  C   UNL     1       3.880  30.451  56.340  1.00  0.00     0.156 A 
HETATM    9  C   UNL     1       3.499  28.951  53.107  1.00  0.00     0.034 A 
HETATM   10  C   UNL     1       4.147  27.713  53.194  1.00  0.00     0.032 A 
ENDROOT
BRANCH   1  11
HETATM   11  N   UNL     1       5.385  26.012  54.350  1.00  0.00    -0.323 N 
HETATM   12  C   UNL     1       6.717  25.763  54.634  1.00  0.00     0.258 C 
HETATM   13  O   UNL     1       7.523  26.556  55.099  1.00  0.00    -0.267 OA
HETATM   14  H   UNL     1       4.808  25.235  54.060  1.00  0.00     0.169 HD
BRANCH  12  15
HETATM   15  C   UNL     1       7.173  24.377  54.337  1.00  0.00     0.056 A 
HETATM   16  C   UNL     1       7.592  24.013  53.050  1.00  0.00     0.048 A 
HETATM   17  C   UNL     1       7.638  24.988  51.907  1.00  0.00     0.071 C 
HETATM   18  N   UNL     1       7.988  22.745  52.746  1.00  0.00    -0.241 NA
HETATM   19  C   UNL     1       7.981  21.835  53.740  1.00  0.00     0.126 A 
HETATM   20 CL   UNL     1       8.485  20.264  53.276  1.00  0.00    -0.063 Cl
HETATM   21  C   UNL     1       7.606  22.107  55.042  1.00  0.00     0.045 A 
HETATM   22  C   UNL     1       7.198  23.403  55.346  1.00  0.00     0.022 A 
ENDBRANCH  12  15
ENDBRANCH   1  11
BRANCH   8  23
HETATM   23  C   UNL     1       4.355  30.581  57.725  1.00  0.00     0.270 C 
HETATM   24  N   UNL     1       3.381  30.396  58.669  1.00  0.00    -0.365 N 
HETATM   25  H   UNL     1       2.434  30.215  58.359  1.00  0.00     0.159 HD
HETATM   26  H   UNL     1       3.607  30.507  59.644  1.00  0.00     0.159 HD
HETATM   27  O   UNL     1       5.508  30.847  58.047  1.00  0.00    -0.266 OA
ENDBRANCH   8  23
TORSDOF 3
ENDMDL
MODEL 8
REMARK VINA RESULT:      -8.1      6.808      8.688
REMARK  3 active torsions:
REMARK  status: ('A' for Active; 'I' for Inactive)
REMARK    1  A    between atoms: C_8  and  C_9 
REMARK       I    between atoms: C_9  and  N_10 
REMARK    2  A    between atoms: N_10  and  C_11 
REMARK    3  A    between atoms: C_18  and  C_19 
REMARK       I    between atoms: C_19  and  N_20 
ROOT
HETATM    1  C   UNL     1       7.081  28.248  57.551  1.00  0.00     0.036 A 
HETATM    2  C   UNL     1       6.160  28.394  56.504  1.00  0.00     0.046 A 
HETATM    3  C   UNL     1       6.163  27.468  55.439  1.00  0.00     0.030 A 
HETATM    4  C   UNL     1       7.060  26.407  55.477  1.00  0.00     0.063 A 
HETATM    5  N   UNL     1       6.816  25.688  54.339  1.00  0.00    -0.277 N 
HETATM    6  H   UNL     1       7.280  24.838  54.039  1.00  0.00     0.189 HD
HETATM    7  N   UNL     1       5.864  26.206  53.545  1.00  0.00    -0.168 NA
HETATM    8  C   UNL     1       5.454  27.310  54.210  1.00  0.00     0.156 A 
HETATM    9  C   UNL     1       7.979  26.221  56.510  1.00  0.00     0.034 A 
HETATM   10  C   UNL     1       7.980  27.173  57.537  1.00  0.00     0.032 A 
ENDROOT
BRANCH   1  11
HETATM   11  N   UNL     1       7.192  29.163  58.623  1.00  0.00    -0.323 N 
HETATM   12  C   UNL     1       8.143  30.159  58.766  1.00  0.00     0.258 C 
HETATM   13  O   UNL     1       8.961  30.510  57.928  1.00  0.00    -0.267 OA
HETATM   14  H   UNL     1       6.515  29.044  59.363  1.00  0.00     0.169 HD
BRANCH  12  15
HETATM   15  C   UNL     1       8.130  30.854  60.082  1.00  0.00     0.056 A 
HETATM   16  C   UNL     1       7.215  31.882  60.349  1.00  0.00     0.048 A 
HETATM   17  C   UNL     1       6.180  32.323  59.353  1.00  0.00     0.071 C 
HETATM   18  N   UNL     1       7.200  32.552  61.535  1.00  0.00    -0.241 NA
HETATM   19  C   UNL     1       8.098  32.185  62.470  1.00  0.00     0.126 A 
HETATM   20 CL   UNL     1       8.021  33.080  63.929  1.00  0.00    -0.063 Cl
HETATM   21  C   UNL     1       9.023  31.171  62.306  1.00  0.00     0.045 A 
HETATM   22  C   UNL     1       9.036  30.492  61.090  1.00  0.00     0.022 A 
ENDBRANCH  12  15
ENDBRANCH   1  11
BRANCH   8  23
HETATM   23  C   UNL     1       4.423  28.196  53.651  1.00  0.00     0.270 C 
HETATM   24  N   UNL     1       3.333  27.538  53.150  1.00  0.00    -0.365 N 
HETATM   25  H   UNL     1       3.325  26.525  53.174  1.00  0.00     0.159 HD
HETATM   26  H   UNL     1       2.595  28.063  52.709  1.00  0.00     0.159 HD
HETATM   27  O   UNL     1       4.503  29.419  53.604  1.00  0.00    -0.266 OA
ENDBRANCH   8  23
TORSDOF 3
ENDMDL
MODEL 9
REMARK VINA RESULT:      -8.0      3.669      7.759
REMARK  3 active torsions:
REMARK  status: ('A' for Active; 'I' for Inactive)
REMARK    1  A    between atoms: C_8  and  C_9 
REMARK       I    between atoms: C_9  and  N_10 
REMARK    2  A    between atoms: N_10  and  C_11 
REMARK    3  A    between atoms: C_18  and  C_19 
REMARK       I    between atoms: C_19  and  N_20 
ROOT
HETATM    1  C   UNL     1       5.212  25.804  52.278  1.00  0.00     0.036 A 
HETATM    2  C   UNL     1       6.022  24.692  52.547  1.00  0.00     0.046 A 
HETATM    3  C   UNL     1       6.787  24.658  53.732  1.00  0.00     0.030 A 
HETATM    4  C   UNL     1       6.689  25.718  54.624  1.00  0.00     0.063 A 
HETATM    5  N   UNL     1       7.519  25.396  55.662  1.00  0.00    -0.277 N 
HETATM    6  H   UNL     1       7.691  25.938  56.501  1.00  0.00     0.189 HD
HETATM    7  N   UNL     1       8.177  24.236  55.510  1.00  0.00    -0.168 NA
HETATM    8  C   UNL     1       7.739  23.769  54.318  1.00  0.00     0.156 A 
HETATM    9  C   UNL     1       5.882  26.834  54.396  1.00  0.00     0.034 A 
HETATM   10  C   UNL     1       5.159  26.860  53.197  1.00  0.00     0.032 A 
ENDROOT
BRANCH   1  11
HETATM   11  N   UNL     1       4.463  25.952  51.088  1.00  0.00    -0.323 N 
HETATM   12  C   UNL     1       4.687  26.871  50.077  1.00  0.00     0.258 C 
HETATM   13  O   UNL     1       5.650  27.617  49.972  1.00  0.00    -0.267 OA
HETATM   14  H   UNL     1       3.671  25.330  50.997  1.00  0.00     0.169 HD
BRANCH  12  15
HETATM   15  C   UNL     1       3.632  26.919  49.028  1.00  0.00     0.056 A 
HETATM   16  C   UNL     1       2.617  27.886  49.066  1.00  0.00     0.048 A 
HETATM   17  C   UNL     1       2.544  28.941  50.134  1.00  0.00     0.071 C 
HETATM   18  N   UNL     1       1.625  27.935  48.134  1.00  0.00    -0.241 NA
HETATM   19  C   UNL     1       1.653  27.021  47.145  1.00  0.00     0.126 A 
HETATM   20 CL   UNL     1       0.368  27.145  46.018  1.00  0.00    -0.063 Cl
HETATM   21  C   UNL     1       2.623  26.046  47.013  1.00  0.00     0.045 A 
HETATM   22  C   UNL     1       3.633  25.998  47.971  1.00  0.00     0.022 A 
ENDBRANCH  12  15
ENDBRANCH   1  11
BRANCH   8  23
HETATM   23  C   UNL     1       8.253  22.511  53.757  1.00  0.00     0.270 C 
HETATM   24  N   UNL     1       9.192  21.895  54.538  1.00  0.00    -0.365 N 
HETATM   25  H   UNL     1       9.476  22.344  55.401  1.00  0.00     0.159 HD
HETATM   26  H   UNL     1       9.630  21.047  54.213  1.00  0.00     0.159 HD
HETATM   27  O   UNL     1       7.908  22.032  52.682  1.00  0.00    -0.266 OA
ENDBRANCH   8  23
TORSDOF 3
ENDMDL
MODEL 10
REMARK VINA RESULT:      -7.6      5.204      7.024
REMARK  3 active torsions:
REMARK  status: ('A' for Active; 'I' for Inactive)
REMARK    1  A    between atoms: C_8  and  C_9 
REMARK       I    between atoms: C_9  and  N_10 
REMARK    2  A    between atoms: N_10  and  C_11 
REMARK    3  A    between atoms: C_18  and  C_19 
REMARK       I    between atoms: C_19  and  N_20 
ROOT
HETATM    1  C   UNL     1       5.817  29.002  55.848  1.00  0.00     0.036 A 
HETATM    2  C   UNL     1       6.363  29.664  56.957  1.00  0.00     0.046 A 
HETATM    3  C   UNL     1       5.907  30.958  57.289  1.00  0.00     0.030 A 
HETATM    4  C   UNL     1       4.897  31.530  56.525  1.00  0.00     0.063 A 
HETATM    5  N   UNL     1       4.666  32.754  57.089  1.00  0.00    -0.277 N 
HETATM    6  H   UNL     1       3.985  33.445  56.797  1.00  0.00     0.189 HD
HETATM    7  N   UNL     1       5.459  33.045  58.133  1.00  0.00    -0.168 NA
HETATM    8  C   UNL     1       6.236  31.946  58.265  1.00  0.00     0.156 A 
HETATM    9  C   UNL     1       4.321  30.894  55.424  1.00  0.00     0.034 A 
HETATM   10  C   UNL     1       4.814  29.626  55.094  1.00  0.00     0.032 A 
ENDROOT
BRANCH   1  11
HETATM   11  N   UNL     1       6.258  27.734  55.405  1.00  0.00    -0.323 N 
HETATM   12  C   UNL     1       7.373  27.469  54.628  1.00  0.00     0.258 C 
HETATM   13  O   UNL     1       8.244  28.266  54.310  1.00  0.00    -0.267 OA
HETATM   14  H   UNL     1       5.670  26.956  55.671  1.00  0.00     0.169 HD
BRANCH  12  15
HETATM   15  C   UNL     1       7.492  26.061  54.160  1.00  0.00     0.056 A 
HETATM   16  C   UNL     1       7.762  25.020  55.060  1.00  0.00     0.048 A 
HETATM   17  C   UNL     1       7.916  25.246  56.537  1.00  0.00     0.071 C 
HETATM   18  N   UNL     1       7.903  23.727  54.653  1.00  0.00    -0.241 NA
HETATM   19  C   UNL     1       7.758  23.467  53.339  1.00  0.00     0.126 A 
HETATM   20 CL   UNL     1       7.958  21.821  52.908  1.00  0.00    -0.063 Cl
HETATM   21  C   UNL     1       7.471  24.423  52.383  1.00  0.00     0.045 A 
HETATM   22  C   UNL     1       7.332  25.744  52.804  1.00  0.00     0.022 A 
ENDBRANCH  12  15
ENDBRANCH   1  11
BRANCH   8  23
HETATM   23  C   UNL     1       7.283  31.874  59.294  1.00  0.00     0.270 C 
HETATM   24  N   UNL     1       6.864  31.340  60.482  1.00  0.00    -0.365 N 
HETATM   25  H   UNL     1       5.893  31.066  60.574  1.00  0.00     0.159 HD
HETATM   26  H   UNL     1       7.504  31.289  61.259  1.00  0.00     0.159 HD
HETATM   27  O   UNL     1       8.437  32.264  59.147  1.00  0.00    -0.266 OA
ENDBRANCH   8  23
TORSDOF 3
ENDMDL
