MODEL 1
REMARK VINA RESULT:     -11.2      0.000      0.000
REMARK  6 active torsions:
REMARK  status: ('A' for Active; 'I' for Inactive)
REMARK    1  A    between atoms: C_2  and  O_4 
REMARK    2  A    between atoms: O_4  and  C_5 
REMARK    3  A    between atoms: C_9  and  N_10 
REMARK    4  A    between atoms: N_10  and  C_11 
REMARK    5  A    between atoms: N_14  and  C_17 
REMARK    6  A    between atoms: C_20  and  C_23 
ROOT
HETATM    1  C   UNL     1       7.337  32.022  60.760  1.00  0.00     0.176 C 
HETATM    2  C   UNL     1       6.427  32.727  59.765  1.00  0.00     0.055 C 
HETATM    3  C   UNL     1       5.910  31.600  58.892  1.00  0.00     0.135 C 
HETATM    4  N   UNL     1       6.996  30.651  58.839  1.00  0.00    -0.316 N 
HETATM    5  C   UNL     1       7.828  30.807  59.962  1.00  0.00     0.247 C 
HETATM    6  O   UNL     1       8.767  30.110  60.324  1.00  0.00    -0.271 OA
ENDROOT
BRANCH   4   7
HETATM    7  C   UNL     1       7.121  29.664  57.821  1.00  0.00     0.037 A 
HETATM    8  C   UNL     1       6.028  28.889  57.406  1.00  0.00     0.030 A 
HETATM    9  C   UNL     1       6.170  27.873  56.451  1.00  0.00     0.016 A 
HETATM   10  C   UNL     1       7.425  27.593  55.914  1.00  0.00    -0.005 A 
HETATM   11  C   UNL     1       8.516  28.384  56.269  1.00  0.00     0.016 A 
HETATM   12  C   UNL     1       8.363  29.409  57.213  1.00  0.00     0.030 A 
BRANCH  10  13
HETATM   13  C   UNL     1       7.609  26.500  54.924  1.00  0.00     0.098 A 
HETATM   14  N   UNL     1       7.536  26.832  53.669  1.00  0.00    -0.170 NA
HETATM   15  N   UNL     1       7.642  25.855  52.731  1.00  0.00    -0.242 N 
HETATM   16  C   UNL     1       7.770  24.510  52.975  1.00  0.00     0.272 A 
HETATM   17  H   UNL     1       7.547  26.143  51.762  1.00  0.00     0.192 HD
HETATM   18  O   UNL     1       7.794  23.679  52.075  1.00  0.00    -0.266 OA
HETATM   19  C   UNL     1       7.905  24.118  54.385  1.00  0.00     0.046 A 
HETATM   20  C   UNL     1       8.113  22.774  54.725  1.00  0.00     0.018 A 
HETATM   21  C   UNL     1       7.863  25.103  55.370  1.00  0.00     0.011 A 
HETATM   22  C   UNL     1       8.300  22.415  56.059  1.00  0.00     0.001 A 
HETATM   23  C   UNL     1       8.299  23.400  57.047  1.00  0.00     0.001 A 
HETATM   24  C   UNL     1       8.093  24.740  56.705  1.00  0.00     0.015 A 
ENDBRANCH  10  13
ENDBRANCH   4   7
BRANCH   1  25
HETATM   25  N   UNL     1       6.566  31.610  61.936  1.00  0.00    -0.377 N 
HETATM   26  H   UNL     1       6.572  30.602  62.097  1.00  0.00     0.160 HD
BRANCH  25  27
HETATM   27  C   UNL     1       6.563  32.344  63.122  1.00  0.00     0.031 A 
HETATM   28  C   UNL     1       7.692  32.954  63.679  1.00  0.00     0.029 A 
HETATM   29  C   UNL     1       7.601  33.725  64.843  1.00  0.00     0.005 A 
HETATM   30  C   UNL     1       6.363  33.945  65.439  1.00  0.00     0.037 A 
HETATM   31  C   UNL     1       5.215  33.406  64.866  1.00  0.00     0.077 A 
HETATM   32  C   UNL     1       5.323  32.592  63.733  1.00  0.00     0.066 A 
BRANCH  31  33
HETATM   33  O   UNL     1       4.041  33.708  65.500  1.00  0.00    -0.290 OA
BRANCH  33  34
HETATM   34  C   UNL     1       4.187  34.569  66.619  1.00  0.00     0.505 C 
HETATM   35  F   UNL     1       3.171  35.467  66.620  1.00  0.00    -0.184 F 
HETATM   36  F   UNL     1       4.034  33.811  67.735  1.00  0.00    -0.184 F 
ENDBRANCH  33  34
ENDBRANCH  31  33
ENDBRANCH  25  27
ENDBRANCH   1  25
TORSDOF 6
ENDMDL
MODEL 2
REMARK VINA RESULT:     -11.1      1.801      2.334
REMARK  6 active torsions:
REMARK  status: ('A' for Active; 'I' for Inactive)
REMARK    1  A    between atoms: C_2  and  O_4 
REMARK    2  A    between atoms: O_4  and  C_5 
REMARK    3  A    between atoms: C_9  and  N_10 
REMARK    4  A    between atoms: N_10  and  C_11 
REMARK    5  A    between atoms: N_14  and  C_17 
REMARK    6  A    between atoms: C_20  and  C_23 
ROOT
HETATM    1  C   UNL     1       6.923  31.994  59.478  1.00  0.00     0.176 C 
HETATM    2  C   UNL     1       6.196  32.246  58.166  1.00  0.00     0.055 C 
HETATM    3  C   UNL     1       5.780  30.859  57.715  1.00  0.00     0.135 C 
HETATM    4  N   UNL     1       6.831  29.990  58.188  1.00  0.00    -0.316 N 
HETATM    5  C   UNL     1       7.490  30.581  59.280  1.00  0.00     0.247 C 
HETATM    6  O   UNL     1       8.342  30.098  60.016  1.00  0.00    -0.271 OA
ENDROOT
BRANCH   4   7
HETATM    7  C   UNL     1       7.076  28.696  57.648  1.00  0.00     0.037 A 
HETATM    8  C   UNL     1       6.031  27.802  57.370  1.00  0.00     0.030 A 
HETATM    9  C   UNL     1       6.281  26.506  56.902  1.00  0.00     0.016 A 
HETATM   10  C   UNL     1       7.592  26.067  56.733  1.00  0.00    -0.005 A 
HETATM   11  C   UNL     1       8.646  26.953  56.951  1.00  0.00     0.016 A 
HETATM   12  C   UNL     1       8.388  28.254  57.403  1.00  0.00     0.030 A 
BRANCH  10  13
HETATM   13  C   UNL     1       7.886  24.686  56.269  1.00  0.00     0.098 A 
HETATM   14  N   UNL     1       8.175  23.813  57.188  1.00  0.00    -0.170 NA
HETATM   15  N   UNL     1       8.506  22.552  56.805  1.00  0.00    -0.242 N 
HETATM   16  C   UNL     1       8.622  22.103  55.513  1.00  0.00     0.272 A 
HETATM   17  H   UNL     1       8.758  21.903  57.545  1.00  0.00     0.192 HD
HETATM   18  O   UNL     1       8.989  20.965  55.243  1.00  0.00    -0.266 OA
HETATM   19  C   UNL     1       8.251  23.060  54.460  1.00  0.00     0.046 A 
HETATM   20  C   UNL     1       8.269  22.666  53.115  1.00  0.00     0.018 A 
HETATM   21  C   UNL     1       7.847  24.343  54.821  1.00  0.00     0.011 A 
HETATM   22  C   UNL     1       7.860  23.558  52.124  1.00  0.00     0.001 A 
HETATM   23  C   UNL     1       7.416  24.831  52.481  1.00  0.00     0.001 A 
HETATM   24  C   UNL     1       7.399  25.221  53.824  1.00  0.00     0.015 A 
ENDBRANCH  10  13
ENDBRANCH   4   7
BRANCH   1  25
HETATM   25  N   UNL     1       5.972  32.035  60.592  1.00  0.00    -0.377 N 
HETATM   26  H   UNL     1       5.270  31.295  60.558  1.00  0.00     0.160 HD
BRANCH  25  27
HETATM   27  C   UNL     1       6.360  32.349  61.894  1.00  0.00     0.031 A 
HETATM   28  C   UNL     1       7.672  32.645  62.281  1.00  0.00     0.029 A 
HETATM   29  C   UNL     1       7.976  33.009  63.597  1.00  0.00     0.005 A 
HETATM   30  C   UNL     1       6.959  33.139  64.538  1.00  0.00     0.037 A 
HETATM   31  C   UNL     1       5.637  32.916  64.162  1.00  0.00     0.077 A 
HETATM   32  C   UNL     1       5.349  32.500  62.857  1.00  0.00     0.066 A 
BRANCH  31  33
HETATM   33  O   UNL     1       4.705  33.105  65.144  1.00  0.00    -0.290 OA
BRANCH  33  34
HETATM   34  C   UNL     1       4.043  34.360  65.087  1.00  0.00     0.505 C 
HETATM   35  F   UNL     1       2.844  34.199  64.474  1.00  0.00    -0.184 F 
HETATM   36  F   UNL     1       3.777  34.735  66.365  1.00  0.00    -0.184 F 
ENDBRANCH  33  34
ENDBRANCH  31  33
ENDBRANCH  25  27
ENDBRANCH   1  25
TORSDOF 6
ENDMDL
MODEL 3
REMARK VINA RESULT:     -10.6      4.755     11.513
REMARK  6 active torsions:
REMARK  status: ('A' for Active; 'I' for Inactive)
REMARK    1  A    between atoms: C_2  and  O_4 
REMARK    2  A    between atoms: O_4  and  C_5 
REMARK    3  A    between atoms: C_9  and  N_10 
REMARK    4  A    between atoms: N_10  and  C_11 
REMARK    5  A    between atoms: N_14  and  C_17 
REMARK    6  A    between atoms: C_20  and  C_23 
ROOT
HETATM    1  C   UNL     1       6.741  26.666  55.011  1.00  0.00     0.176 C 
HETATM    2  C   UNL     1       7.525  27.714  54.236  1.00  0.00     0.055 C 
HETATM    3  C   UNL     1       7.939  28.712  55.300  1.00  0.00     0.135 C 
HETATM    4  N   UNL     1       6.857  28.697  56.256  1.00  0.00    -0.316 N 
HETATM    5  C   UNL     1       6.163  27.476  56.179  1.00  0.00     0.247 C 
HETATM    6  O   UNL     1       5.275  27.051  56.907  1.00  0.00    -0.271 OA
ENDROOT
BRANCH   4   7
HETATM    7  C   UNL     1       6.616  29.754  57.178  1.00  0.00     0.037 A 
HETATM    8  C   UNL     1       7.644  30.302  57.958  1.00  0.00     0.030 A 
HETATM    9  C   UNL     1       7.390  31.296  58.912  1.00  0.00     0.016 A 
HETATM   10  C   UNL     1       6.087  31.739  59.126  1.00  0.00    -0.005 A 
HETATM   11  C   UNL     1       5.055  31.249  58.327  1.00  0.00     0.016 A 
HETATM   12  C   UNL     1       5.319  30.267  57.363  1.00  0.00     0.030 A 
BRANCH  10  13
HETATM   13  C   UNL     1       5.785  32.768  60.154  1.00  0.00     0.098 A 
HETATM   14  N   UNL     1       4.876  33.648  59.849  1.00  0.00    -0.170 NA
HETATM   15  N   UNL     1       4.608  34.640  60.737  1.00  0.00    -0.242 N 
HETATM   16  C   UNL     1       5.250  34.851  61.933  1.00  0.00     0.272 A 
HETATM   17  H   UNL     1       3.918  35.329  60.455  1.00  0.00     0.192 HD
HETATM   18  O   UNL     1       4.997  35.810  62.653  1.00  0.00    -0.266 OA
HETATM   19  C   UNL     1       6.245  33.841  62.320  1.00  0.00     0.046 A 
HETATM   20  C   UNL     1       6.898  33.935  63.557  1.00  0.00     0.018 A 
HETATM   21  C   UNL     1       6.499  32.774  61.460  1.00  0.00     0.011 A 
HETATM   22  C   UNL     1       7.797  32.943  63.945  1.00  0.00     0.001 A 
HETATM   23  C   UNL     1       8.027  31.851  63.108  1.00  0.00     0.001 A 
HETATM   24  C   UNL     1       7.374  31.760  61.875  1.00  0.00     0.015 A 
ENDBRANCH  10  13
ENDBRANCH   4   7
BRANCH   1  25
HETATM   25  N   UNL     1       7.648  25.617  55.488  1.00  0.00    -0.377 N 
HETATM   26  H   UNL     1       7.648  25.507  56.502  1.00  0.00     0.160 HD
BRANCH  25  27
HETATM   27  C   UNL     1       7.807  24.406  54.815  1.00  0.00     0.031 A 
HETATM   28  C   UNL     1       7.512  24.205  53.462  1.00  0.00     0.029 A 
HETATM   29  C   UNL     1       7.754  22.975  52.841  1.00  0.00     0.005 A 
HETATM   30  C   UNL     1       8.351  21.940  53.553  1.00  0.00     0.037 A 
HETATM   31  C   UNL     1       8.717  22.136  54.882  1.00  0.00     0.077 A 
HETATM   32  C   UNL     1       8.422  23.351  55.509  1.00  0.00     0.066 A 
BRANCH  31  33
HETATM   33  O   UNL     1       9.332  21.075  55.487  1.00  0.00    -0.290 OA
BRANCH  33  34
HETATM   34  C   UNL     1       8.501  20.348  56.379  1.00  0.00     0.505 C 
HETATM   35  F   UNL     1       8.424  21.017  57.555  1.00  0.00    -0.184 F 
HETATM   36  F   UNL     1       7.249  20.344  55.853  1.00  0.00    -0.184 F 
ENDBRANCH  33  34
ENDBRANCH  31  33
ENDBRANCH  25  27
ENDBRANCH   1  25
TORSDOF 6
ENDMDL
MODEL 4
REMARK VINA RESULT:     -10.5      2.554      3.451
REMARK  6 active torsions:
REMARK  status: ('A' for Active; 'I' for Inactive)
REMARK    1  A    between atoms: C_2  and  O_4 
REMARK    2  A    between atoms: O_4  and  C_5 
REMARK    3  A    between atoms: C_9  and  N_10 
REMARK    4  A    between atoms: N_10  and  C_11 
REMARK    5  A    between atoms: N_14  and  C_17 
REMARK    6  A    between atoms: C_20  and  C_23 
ROOT
HETATM    1  C   UNL     1       6.318  31.815  58.609  1.00  0.00     0.176 C 
HETATM    2  C   UNL     1       5.542  31.702  57.305  1.00  0.00     0.055 C 
HETATM    3  C   UNL     1       5.273  30.215  57.176  1.00  0.00     0.135 C 
HETATM    4  N   UNL     1       6.423  29.582  57.777  1.00  0.00    -0.316 N 
HETATM    5  C   UNL     1       7.033  30.459  58.690  1.00  0.00     0.247 C 
HETATM    6  O   UNL     1       7.948  30.236  59.474  1.00  0.00    -0.271 OA
ENDROOT
BRANCH   4   7
HETATM    7  C   UNL     1       6.798  28.235  57.513  1.00  0.00     0.037 A 
HETATM    8  C   UNL     1       8.142  27.854  57.384  1.00  0.00     0.030 A 
HETATM    9  C   UNL     1       8.503  26.539  57.059  1.00  0.00     0.016 A 
HETATM   10  C   UNL     1       7.517  25.584  56.824  1.00  0.00    -0.005 A 
HETATM   11  C   UNL     1       6.176  25.924  56.999  1.00  0.00     0.016 A 
HETATM   12  C   UNL     1       5.823  27.236  57.340  1.00  0.00     0.030 A 
BRANCH  10  13
HETATM   13  C   UNL     1       7.871  24.192  56.445  1.00  0.00     0.098 A 
HETATM   14  N   UNL     1       8.170  23.382  57.418  1.00  0.00    -0.170 NA
HETATM   15  N   UNL     1       8.555  22.115  57.113  1.00  0.00    -0.242 N 
HETATM   16  C   UNL     1       8.719  21.600  55.851  1.00  0.00     0.272 A 
HETATM   17  H   UNL     1       8.813  21.518  57.893  1.00  0.00     0.192 HD
HETATM   18  O   UNL     1       9.134  20.464  55.653  1.00  0.00    -0.266 OA
HETATM   19  C   UNL     1       8.340  22.483  54.738  1.00  0.00     0.046 A 
HETATM   20  C   UNL     1       8.404  22.018  53.417  1.00  0.00     0.018 A 
HETATM   21  C   UNL     1       7.880  23.769  55.018  1.00  0.00     0.011 A 
HETATM   22  C   UNL     1       7.988  22.838  52.370  1.00  0.00     0.001 A 
HETATM   23  C   UNL     1       7.489  24.111  52.645  1.00  0.00     0.001 A 
HETATM   24  C   UNL     1       7.425  24.573  53.963  1.00  0.00     0.015 A 
ENDBRANCH  10  13
ENDBRANCH   4   7
BRANCH   1  25
HETATM   25  N   UNL     1       5.390  31.995  59.728  1.00  0.00    -0.377 N 
HETATM   26  H   UNL     1       5.263  31.156  60.295  1.00  0.00     0.160 HD
BRANCH  25  27
HETATM   27  C   UNL     1       5.354  33.165  60.486  1.00  0.00     0.031 A 
HETATM   28  C   UNL     1       4.545  34.271  60.199  1.00  0.00     0.029 A 
HETATM   29  C   UNL     1       4.519  35.388  61.041  1.00  0.00     0.005 A 
HETATM   30  C   UNL     1       5.261  35.394  62.217  1.00  0.00     0.037 A 
HETATM   31  C   UNL     1       6.020  34.279  62.561  1.00  0.00     0.077 A 
HETATM   32  C   UNL     1       6.083  33.188  61.686  1.00  0.00     0.066 A 
BRANCH  31  33
HETATM   33  O   UNL     1       6.684  34.361  63.753  1.00  0.00    -0.290 OA
BRANCH  33  34
HETATM   34  C   UNL     1       7.223  33.130  64.209  1.00  0.00     0.505 C 
HETATM   35  F   UNL     1       8.541  33.082  63.895  1.00  0.00    -0.184 F 
HETATM   36  F   UNL     1       7.147  33.132  65.564  1.00  0.00    -0.184 F 
ENDBRANCH  33  34
ENDBRANCH  31  33
ENDBRANCH  25  27
ENDBRANCH   1  25
TORSDOF 6
ENDMDL
MODEL 5
REMARK VINA RESULT:      -9.8      1.924      2.804
REMARK  6 active torsions:
REMARK  status: ('A' for Active; 'I' for Inactive)
REMARK    1  A    between atoms: C_2  and  O_4 
REMARK    2  A    between atoms: O_4  and  C_5 
REMARK    3  A    between atoms: C_9  and  N_10 
REMARK    4  A    between atoms: N_10  and  C_11 
REMARK    5  A    between atoms: N_14  and  C_17 
REMARK    6  A    between atoms: C_20  and  C_23 
ROOT
HETATM    1  C   UNL     1       6.191  31.477  58.118  1.00  0.00     0.176 C 
HETATM    2  C   UNL     1       4.952  31.518  57.237  1.00  0.00     0.055 C 
HETATM    3  C   UNL     1       4.672  30.057  56.944  1.00  0.00     0.135 C 
HETATM    4  N   UNL     1       5.974  29.436  56.905  1.00  0.00    -0.316 N 
HETATM    5  C   UNL     1       6.893  30.196  57.648  1.00  0.00     0.247 C 
HETATM    6  O   UNL     1       8.051  29.926  57.945  1.00  0.00    -0.271 OA
ENDROOT
BRANCH   4   7
HETATM    7  C   UNL     1       6.226  28.191  56.262  1.00  0.00     0.037 A 
HETATM    8  C   UNL     1       5.354  27.100  56.397  1.00  0.00     0.030 A 
HETATM    9  C   UNL     1       5.640  25.857  55.817  1.00  0.00     0.016 A 
HETATM   10  C   UNL     1       6.828  25.675  55.112  1.00  0.00    -0.005 A 
HETATM   11  C   UNL     1       7.684  26.757  54.918  1.00  0.00     0.016 A 
HETATM   12  C   UNL     1       7.384  28.002  55.487  1.00  0.00     0.030 A 
BRANCH  10  13
HETATM   13  C   UNL     1       7.171  24.358  54.515  1.00  0.00     0.098 A 
HETATM   14  N   UNL     1       7.024  24.246  53.228  1.00  0.00    -0.170 NA
HETATM   15  N   UNL     1       7.272  23.043  52.647  1.00  0.00    -0.242 N 
HETATM   16  C   UNL     1       7.620  21.886  53.300  1.00  0.00     0.272 A 
HETATM   17  H   UNL     1       7.116  22.980  51.646  1.00  0.00     0.192 HD
HETATM   18  O   UNL     1       7.765  20.820  52.715  1.00  0.00    -0.266 OA
HETATM   19  C   UNL     1       7.841  22.002  54.749  1.00  0.00     0.046 A 
HETATM   20  C   UNL     1       8.269  20.890  55.487  1.00  0.00     0.018 A 
HETATM   21  C   UNL     1       7.656  23.237  55.367  1.00  0.00     0.011 A 
HETATM   22  C   UNL     1       8.534  21.019  56.849  1.00  0.00     0.001 A 
HETATM   23  C   UNL     1       8.390  22.261  57.467  1.00  0.00     0.001 A 
HETATM   24  C   UNL     1       7.962  23.369  56.729  1.00  0.00     0.015 A 
ENDBRANCH  10  13
ENDBRANCH   4   7
BRANCH   1  25
HETATM   25  N   UNL     1       5.798  31.383  59.527  1.00  0.00    -0.377 N 
HETATM   26  H   UNL     1       6.201  30.580  60.012  1.00  0.00     0.160 HD
BRANCH  25  27
HETATM   27  C   UNL     1       5.685  32.505  60.348  1.00  0.00     0.031 A 
HETATM   28  C   UNL     1       4.741  33.523  60.174  1.00  0.00     0.029 A 
HETATM   29  C   UNL     1       4.650  34.590  61.074  1.00  0.00     0.005 A 
HETATM   30  C   UNL     1       5.468  34.626  62.198  1.00  0.00     0.037 A 
HETATM   31  C   UNL     1       6.369  33.591  62.431  1.00  0.00     0.077 A 
HETATM   32  C   UNL     1       6.491  32.555  61.497  1.00  0.00     0.066 A 
BRANCH  31  33
HETATM   33  O   UNL     1       7.102  33.694  63.580  1.00  0.00    -0.290 OA
BRANCH  33  34
HETATM   34  C   UNL     1       6.329  33.671  64.771  1.00  0.00     0.505 C 
HETATM   35  F   UNL     1       5.380  32.709  64.662  1.00  0.00    -0.184 F 
HETATM   36  F   UNL     1       7.153  33.290  65.781  1.00  0.00    -0.184 F 
ENDBRANCH  33  34
ENDBRANCH  31  33
ENDBRANCH  25  27
ENDBRANCH   1  25
TORSDOF 6
ENDMDL
MODEL 6
REMARK VINA RESULT:      -9.8      9.969     12.190
REMARK  6 active torsions:
REMARK  status: ('A' for Active; 'I' for Inactive)
REMARK    1  A    between atoms: C_2  and  O_4 
REMARK    2  A    between atoms: O_4  and  C_5 
REMARK    3  A    between atoms: C_9  and  N_10 
REMARK    4  A    between atoms: N_10  and  C_11 
REMARK    5  A    between atoms: N_14  and  C_17 
REMARK    6  A    between atoms: C_20  and  C_23 
ROOT
HETATM    1  C   UNL     1       4.882  28.926  49.284  1.00  0.00     0.176 C 
HETATM    2  C   UNL     1       4.860  27.630  48.487  1.00  0.00     0.055 C 
HETATM    3  C   UNL     1       4.715  26.559  49.551  1.00  0.00     0.135 C 
HETATM    4  N   UNL     1       5.422  27.081  50.696  1.00  0.00    -0.316 N 
HETATM    5  C   UNL     1       5.482  28.484  50.626  1.00  0.00     0.247 C 
HETATM    6  O   UNL     1       5.888  29.278  51.465  1.00  0.00    -0.271 OA
ENDROOT
BRANCH   4   7
HETATM    7  C   UNL     1       5.899  26.263  51.758  1.00  0.00     0.037 A 
HETATM    8  C   UNL     1       7.214  25.775  51.781  1.00  0.00     0.030 A 
HETATM    9  C   UNL     1       7.660  24.916  52.794  1.00  0.00     0.016 A 
HETATM   10  C   UNL     1       6.781  24.503  53.793  1.00  0.00    -0.005 A 
HETATM   11  C   UNL     1       5.485  25.016  53.823  1.00  0.00     0.016 A 
HETATM   12  C   UNL     1       5.051  25.888  52.815  1.00  0.00     0.030 A 
BRANCH  10  13
HETATM   13  C   UNL     1       7.218  23.566  54.860  1.00  0.00     0.098 A 
HETATM   14  N   UNL     1       7.100  23.984  56.086  1.00  0.00    -0.170 NA
HETATM   15  N   UNL     1       7.539  23.183  57.091  1.00  0.00    -0.242 N 
HETATM   16  C   UNL     1       8.161  21.968  56.944  1.00  0.00     0.272 A 
HETATM   17  H   UNL     1       7.463  23.552  58.034  1.00  0.00     0.192 HD
HETATM   18  O   UNL     1       8.591  21.330  57.898  1.00  0.00    -0.266 OA
HETATM   19  C   UNL     1       8.260  21.453  55.570  1.00  0.00     0.046 A 
HETATM   20  C   UNL     1       8.814  20.188  55.331  1.00  0.00     0.018 A 
HETATM   21  C   UNL     1       7.762  22.222  54.520  1.00  0.00     0.011 A 
HETATM   22  C   UNL     1       8.852  19.680  54.033  1.00  0.00     0.001 A 
HETATM   23  C   UNL     1       8.319  20.427  52.982  1.00  0.00     0.001 A 
HETATM   24  C   UNL     1       7.767  21.688  53.224  1.00  0.00     0.015 A 
ENDBRANCH  10  13
ENDBRANCH   4   7
BRANCH   1  25
HETATM   25  N   UNL     1       3.517  29.431  49.452  1.00  0.00    -0.377 N 
HETATM   26  H   UNL     1       3.346  29.853  50.365  1.00  0.00     0.160 HD
BRANCH  25  27
HETATM   27  C   UNL     1       2.828  30.076  48.425  1.00  0.00     0.031 A 
HETATM   28  C   UNL     1       3.312  31.182  47.718  1.00  0.00     0.029 A 
HETATM   29  C   UNL     1       2.587  31.740  46.659  1.00  0.00     0.005 A 
HETATM   30  C   UNL     1       1.389  31.162  46.253  1.00  0.00     0.037 A 
HETATM   31  C   UNL     1       0.919  30.021  46.895  1.00  0.00     0.077 A 
HETATM   32  C   UNL     1       1.623  29.502  47.988  1.00  0.00     0.066 A 
BRANCH  31  33
HETATM   33  O   UNL     1      -0.246  29.503  46.401  1.00  0.00    -0.290 OA
BRANCH  33  34
HETATM   34  C   UNL     1      -0.370  28.097  46.550  1.00  0.00     0.505 C 
HETATM   35  F   UNL     1      -1.661  27.742  46.334  1.00  0.00    -0.184 F 
HETATM   36  F   UNL     1       0.361  27.519  45.563  1.00  0.00    -0.184 F 
ENDBRANCH  33  34
ENDBRANCH  31  33
ENDBRANCH  25  27
ENDBRANCH   1  25
TORSDOF 6
ENDMDL
MODEL 7
REMARK VINA RESULT:      -9.6      9.878     12.351
REMARK  6 active torsions:
REMARK  status: ('A' for Active; 'I' for Inactive)
REMARK    1  A    between atoms: C_2  and  O_4 
REMARK    2  A    between atoms: O_4  and  C_5 
REMARK    3  A    between atoms: C_9  and  N_10 
REMARK    4  A    between atoms: N_10  and  C_11 
REMARK    5  A    between atoms: N_14  and  C_17 
REMARK    6  A    between atoms: C_20  and  C_23 
ROOT
HETATM    1  C   UNL     1       4.748  28.712  49.023  1.00  0.00     0.176 C 
HETATM    2  C   UNL     1       4.646  27.370  48.313  1.00  0.00     0.055 C 
HETATM    3  C   UNL     1       4.509  26.374  49.449  1.00  0.00     0.135 C 
HETATM    4  N   UNL     1       5.284  26.941  50.527  1.00  0.00    -0.316 N 
HETATM    5  C   UNL     1       5.390  28.333  50.365  1.00  0.00     0.247 C 
HETATM    6  O   UNL     1       5.860  29.162  51.134  1.00  0.00    -0.271 OA
ENDROOT
BRANCH   4   7
HETATM    7  C   UNL     1       5.778  26.173  51.619  1.00  0.00     0.037 A 
HETATM    8  C   UNL     1       7.130  25.812  51.716  1.00  0.00     0.030 A 
HETATM    9  C   UNL     1       7.599  25.001  52.758  1.00  0.00     0.016 A 
HETATM   10  C   UNL     1       6.711  24.508  53.711  1.00  0.00    -0.005 A 
HETATM   11  C   UNL     1       5.372  24.895  53.667  1.00  0.00     0.016 A 
HETATM   12  C   UNL     1       4.913  25.721  52.632  1.00  0.00     0.030 A 
BRANCH  10  13
HETATM   13  C   UNL     1       7.176  23.619  54.806  1.00  0.00     0.098 A 
HETATM   14  N   UNL     1       7.054  24.075  56.018  1.00  0.00    -0.170 NA
HETATM   15  N   UNL     1       7.519  23.319  57.047  1.00  0.00    -0.242 N 
HETATM   16  C   UNL     1       8.169  22.115  56.937  1.00  0.00     0.272 A 
HETATM   17  H   UNL     1       7.438  23.719  57.977  1.00  0.00     0.192 HD
HETATM   18  O   UNL     1       8.619  21.520  57.910  1.00  0.00    -0.266 OA
HETATM   19  C   UNL     1       8.273  21.557  55.581  1.00  0.00     0.046 A 
HETATM   20  C   UNL     1       8.855  20.298  55.381  1.00  0.00     0.018 A 
HETATM   21  C   UNL     1       7.750  22.278  54.509  1.00  0.00     0.011 A 
HETATM   22  C   UNL     1       8.898  19.747  54.101  1.00  0.00     0.001 A 
HETATM   23  C   UNL     1       8.342  20.444  53.029  1.00  0.00     0.001 A 
HETATM   24  C   UNL     1       7.760  21.700  53.232  1.00  0.00     0.015 A 
ENDBRANCH  10  13
ENDBRANCH   4   7
BRANCH   1  25
HETATM   25  N   UNL     1       3.410  29.278  49.215  1.00  0.00    -0.377 N 
HETATM   26  H   UNL     1       3.335  29.884  50.033  1.00  0.00     0.160 HD
BRANCH  25  27
HETATM   27  C   UNL     1       2.625  29.716  48.149  1.00  0.00     0.031 A 
HETATM   28  C   UNL     1       1.226  29.702  48.136  1.00  0.00     0.029 A 
HETATM   29  C   UNL     1       0.505  30.213  47.051  1.00  0.00     0.005 A 
HETATM   30  C   UNL     1       1.174  30.801  45.983  1.00  0.00     0.037 A 
HETATM   31  C   UNL     1       2.563  30.890  46.002  1.00  0.00     0.077 A 
HETATM   32  C   UNL     1       3.278  30.328  47.066  1.00  0.00     0.066 A 
BRANCH  31  33
HETATM   33  O   UNL     1       3.129  31.519  44.928  1.00  0.00    -0.290 OA
BRANCH  33  34
HETATM   34  C   UNL     1       4.381  32.130  45.201  1.00  0.00     0.505 C 
HETATM   35  F   UNL     1       5.004  32.402  44.028  1.00  0.00    -0.184 F 
HETATM   36  F   UNL     1       4.127  33.325  45.791  1.00  0.00    -0.184 F 
ENDBRANCH  33  34
ENDBRANCH  31  33
ENDBRANCH  25  27
ENDBRANCH   1  25
TORSDOF 6
ENDMDL
MODEL 8
REMARK VINA RESULT:      -9.5      5.218     11.973
REMARK  6 active torsions:
REMARK  status: ('A' for Active; 'I' for Inactive)
REMARK    1  A    between atoms: C_2  and  O_4 
REMARK    2  A    between atoms: O_4  and  C_5 
REMARK    3  A    between atoms: C_9  and  N_10 
REMARK    4  A    between atoms: N_10  and  C_11 
REMARK    5  A    between atoms: N_14  and  C_17 
REMARK    6  A    between atoms: C_20  and  C_23 
ROOT
HETATM    1  C   UNL     1       6.717  28.326  55.378  1.00  0.00     0.176 C 
HETATM    2  C   UNL     1       7.905  28.050  56.288  1.00  0.00     0.055 C 
HETATM    3  C   UNL     1       7.460  28.590  57.633  1.00  0.00     0.135 C 
HETATM    4  N   UNL     1       6.616  29.717  57.313  1.00  0.00    -0.316 N 
HETATM    5  C   UNL     1       6.089  29.572  56.018  1.00  0.00     0.247 C 
HETATM    6  O   UNL     1       5.245  30.255  55.452  1.00  0.00    -0.271 OA
ENDROOT
BRANCH   4   7
HETATM    7  C   UNL     1       6.323  30.759  58.237  1.00  0.00     0.037 A 
HETATM    8  C   UNL     1       7.327  31.376  58.997  1.00  0.00     0.030 A 
HETATM    9  C   UNL     1       7.025  32.355  59.953  1.00  0.00     0.016 A 
HETATM   10  C   UNL     1       5.700  32.713  60.188  1.00  0.00    -0.005 A 
HETATM   11  C   UNL     1       4.688  32.154  59.409  1.00  0.00     0.016 A 
HETATM   12  C   UNL     1       4.999  31.188  58.443  1.00  0.00     0.030 A 
BRANCH  10  13
HETATM   13  C   UNL     1       5.349  33.724  61.219  1.00  0.00     0.098 A 
HETATM   14  N   UNL     1       4.422  34.580  60.905  1.00  0.00    -0.170 NA
HETATM   15  N   UNL     1       4.109  35.557  61.796  1.00  0.00    -0.242 N 
HETATM   16  C   UNL     1       4.722  35.776  63.005  1.00  0.00     0.272 A 
HETATM   17  H   UNL     1       3.405  36.228  61.506  1.00  0.00     0.192 HD
HETATM   18  O   UNL     1       4.429  36.720  63.728  1.00  0.00    -0.266 OA
HETATM   19  C   UNL     1       5.739  34.791  63.402  1.00  0.00     0.046 A 
HETATM   20  C   UNL     1       6.366  34.892  64.652  1.00  0.00     0.018 A 
HETATM   21  C   UNL     1       6.040  33.739  62.539  1.00  0.00     0.011 A 
HETATM   22  C   UNL     1       7.285  33.923  65.049  1.00  0.00     0.001 A 
HETATM   23  C   UNL     1       7.562  32.846  64.207  1.00  0.00     0.001 A 
HETATM   24  C   UNL     1       6.935  32.747  62.961  1.00  0.00     0.015 A 
ENDBRANCH  10  13
ENDBRANCH   4   7
BRANCH   1  25
HETATM   25  N   UNL     1       5.792  27.189  55.407  1.00  0.00    -0.377 N 
HETATM   26  H   UNL     1       4.835  27.447  55.649  1.00  0.00     0.160 HD
BRANCH  25  27
HETATM   27  C   UNL     1       5.852  26.155  54.474  1.00  0.00     0.031 A 
HETATM   28  C   UNL     1       5.439  26.265  53.141  1.00  0.00     0.029 A 
HETATM   29  C   UNL     1       5.584  25.199  52.247  1.00  0.00     0.005 A 
HETATM   30  C   UNL     1       6.198  24.021  52.658  1.00  0.00     0.037 A 
HETATM   31  C   UNL     1       6.679  23.910  53.960  1.00  0.00     0.077 A 
HETATM   32  C   UNL     1       6.482  24.961  54.862  1.00  0.00     0.066 A 
BRANCH  31  33
HETATM   33  O   UNL     1       7.303  22.731  54.260  1.00  0.00    -0.290 OA
BRANCH  33  34
HETATM   34  C   UNL     1       8.107  22.211  53.212  1.00  0.00     0.505 C 
HETATM   35  F   UNL     1       9.348  21.956  53.694  1.00  0.00    -0.184 F 
HETATM   36  F   UNL     1       7.577  21.014  52.852  1.00  0.00    -0.184 F 
ENDBRANCH  33  34
ENDBRANCH  31  33
ENDBRANCH  25  27
ENDBRANCH   1  25
TORSDOF 6
ENDMDL
MODEL 9
REMARK VINA RESULT:      -9.4      9.293     10.924
REMARK  6 active torsions:
REMARK  status: ('A' for Active; 'I' for Inactive)
REMARK    1  A    between atoms: C_2  and  O_4 
REMARK    2  A    between atoms: O_4  and  C_5 
REMARK    3  A    between atoms: C_9  and  N_10 
REMARK    4  A    between atoms: N_10  and  C_11 
REMARK    5  A    between atoms: N_14  and  C_17 
REMARK    6  A    between atoms: C_20  and  C_23 
ROOT
HETATM    1  C   UNL     1       4.447  29.254  49.916  1.00  0.00     0.176 C 
HETATM    2  C   UNL     1       4.204  29.926  51.260  1.00  0.00     0.055 C 
HETATM    3  C   UNL     1       5.197  29.246  52.184  1.00  0.00     0.135 C 
HETATM    4  N   UNL     1       5.299  27.897  51.682  1.00  0.00    -0.316 N 
HETATM    5  C   UNL     1       4.940  27.859  50.324  1.00  0.00     0.247 C 
HETATM    6  O   UNL     1       5.020  26.926  49.534  1.00  0.00    -0.271 OA
ENDROOT
BRANCH   4   7
HETATM    7  C   UNL     1       5.777  26.808  52.464  1.00  0.00     0.037 A 
HETATM    8  C   UNL     1       4.921  25.798  52.926  1.00  0.00     0.030 A 
HETATM    9  C   UNL     1       5.384  24.764  53.751  1.00  0.00     0.016 A 
HETATM   10  C   UNL     1       6.717  24.741  54.157  1.00  0.00    -0.005 A 
HETATM   11  C   UNL     1       7.600  25.703  53.668  1.00  0.00     0.016 A 
HETATM   12  C   UNL     1       7.133  26.724  52.830  1.00  0.00     0.030 A 
BRANCH  10  13
HETATM   13  C   UNL     1       7.226  23.676  55.058  1.00  0.00     0.098 A 
HETATM   14  N   UNL     1       7.204  23.931  56.333  1.00  0.00    -0.170 NA
HETATM   15  N   UNL     1       7.713  23.008  57.190  1.00  0.00    -0.242 N 
HETATM   16  C   UNL     1       8.313  21.824  56.840  1.00  0.00     0.272 A 
HETATM   17  H   UNL     1       7.710  23.252  58.176  1.00  0.00     0.192 HD
HETATM   18  O   UNL     1       8.809  21.069  57.668  1.00  0.00    -0.266 OA
HETATM   19  C   UNL     1       8.304  21.492  55.408  1.00  0.00     0.046 A 
HETATM   20  C   UNL     1       8.830  20.270  54.966  1.00  0.00     0.018 A 
HETATM   21  C   UNL     1       7.734  22.389  54.507  1.00  0.00     0.011 A 
HETATM   22  C   UNL     1       8.766  19.934  53.614  1.00  0.00     0.001 A 
HETATM   23  C   UNL     1       8.160  20.809  52.712  1.00  0.00     0.001 A 
HETATM   24  C   UNL     1       7.636  22.027  53.156  1.00  0.00     0.015 A 
ENDBRANCH  10  13
ENDBRANCH   4   7
BRANCH   1  25
HETATM   25  N   UNL     1       5.475  29.986  49.171  1.00  0.00    -0.377 N 
HETATM   26  H   UNL     1       5.991  29.406  48.508  1.00  0.00     0.160 HD
BRANCH  25  27
HETATM   27  C   UNL     1       5.279  31.286  48.709  1.00  0.00     0.031 A 
HETATM   28  C   UNL     1       4.145  31.717  48.011  1.00  0.00     0.029 A 
HETATM   29  C   UNL     1       3.993  33.054  47.629  1.00  0.00     0.005 A 
HETATM   30  C   UNL     1       4.950  33.997  47.991  1.00  0.00     0.037 A 
HETATM   31  C   UNL     1       6.053  33.607  48.744  1.00  0.00     0.077 A 
HETATM   32  C   UNL     1       6.225  32.258  49.075  1.00  0.00     0.066 A 
BRANCH  31  33
HETATM   33  O   UNL     1       6.919  34.609  49.084  1.00  0.00    -0.290 OA
BRANCH  33  34
HETATM   34  C   UNL     1       7.733  35.068  48.015  1.00  0.00     0.505 C 
HETATM   35  F   UNL     1       7.834  36.418  48.085  1.00  0.00    -0.184 F 
HETATM   36  F   UNL     1       8.981  34.574  48.217  1.00  0.00    -0.184 F 
ENDBRANCH  33  34
ENDBRANCH  31  33
ENDBRANCH  25  27
ENDBRANCH   1  25
TORSDOF 6
ENDMDL
MODEL 10
REMARK VINA RESULT:      -9.3      5.101     11.516
REMARK  6 active torsions:
REMARK  status: ('A' for Active; 'I' for Inactive)
REMARK    1  A    between atoms: C_2  and  O_4 
REMARK    2  A    between atoms: O_4  and  C_5 
REMARK    3  A    between atoms: C_9  and  N_10 
REMARK    4  A    between atoms: N_10  and  C_11 
REMARK    5  A    between atoms: N_14  and  C_17 
REMARK    6  A    between atoms: C_20  and  C_23 
ROOT
HETATM    1  C   UNL     1       7.422  25.963  56.341  1.00  0.00     0.176 C 
HETATM    2  C   UNL     1       6.134  25.637  57.082  1.00  0.00     0.055 C 
HETATM    3  C   UNL     1       5.303  26.896  56.925  1.00  0.00     0.135 C 
HETATM    4  N   UNL     1       6.267  27.970  56.907  1.00  0.00    -0.316 N 
HETATM    5  C   UNL     1       7.520  27.487  56.494  1.00  0.00     0.247 C 
HETATM    6  O   UNL     1       8.540  28.116  56.241  1.00  0.00    -0.271 OA
ENDROOT
BRANCH   4   7
HETATM    7  C   UNL     1       5.932  29.324  57.195  1.00  0.00     0.037 A 
HETATM    8  C   UNL     1       6.782  30.153  57.941  1.00  0.00     0.030 A 
HETATM    9  C   UNL     1       6.418  31.463  58.278  1.00  0.00     0.016 A 
HETATM   10  C   UNL     1       5.174  31.960  57.897  1.00  0.00    -0.005 A 
HETATM   11  C   UNL     1       4.333  31.175  57.109  1.00  0.00     0.016 A 
HETATM   12  C   UNL     1       4.711  29.871  56.762  1.00  0.00     0.030 A 
BRANCH  10  13
HETATM   13  C   UNL     1       4.749  33.334  58.269  1.00  0.00     0.098 A 
HETATM   14  N   UNL     1       4.884  34.252  57.358  1.00  0.00    -0.170 NA
HETATM   15  N   UNL     1       4.561  35.533  57.674  1.00  0.00    -0.242 N 
HETATM   16  C   UNL     1       4.146  35.984  58.903  1.00  0.00     0.272 A 
HETATM   17  H   UNL     1       4.708  36.231  56.951  1.00  0.00     0.192 HD
HETATM   18  O   UNL     1       3.936  37.169  59.131  1.00  0.00    -0.266 OA
HETATM   19  C   UNL     1       3.940  34.956  59.934  1.00  0.00     0.046 A 
HETATM   20  C   UNL     1       3.449  35.314  61.196  1.00  0.00     0.018 A 
HETATM   21  C   UNL     1       4.202  33.622  59.624  1.00  0.00     0.011 A 
HETATM   22  C   UNL     1       3.199  34.329  62.150  1.00  0.00     0.001 A 
HETATM   23  C   UNL     1       3.420  32.988  61.834  1.00  0.00     0.001 A 
HETATM   24  C   UNL     1       3.909  32.634  60.573  1.00  0.00     0.015 A 
ENDBRANCH  10  13
ENDBRANCH   4   7
BRANCH   1  25
HETATM   25  N   UNL     1       7.300  25.576  54.933  1.00  0.00    -0.377 N 
HETATM   26  H   UNL     1       7.585  26.307  54.281  1.00  0.00     0.160 HD
BRANCH  25  27
HETATM   27  C   UNL     1       7.620  24.297  54.479  1.00  0.00     0.031 A 
HETATM   28  C   UNL     1       7.476  23.865  53.156  1.00  0.00     0.029 A 
HETATM   29  C   UNL     1       7.875  22.583  52.763  1.00  0.00     0.005 A 
HETATM   30  C   UNL     1       8.479  21.729  53.679  1.00  0.00     0.037 A 
HETATM   31  C   UNL     1       8.696  22.158  54.985  1.00  0.00     0.077 A 
HETATM   32  C   UNL     1       8.245  23.422  55.383  1.00  0.00     0.066 A 
BRANCH  31  33
HETATM   33  O   UNL     1       9.331  21.264  55.802  1.00  0.00    -0.290 OA
BRANCH  33  34
HETATM   34  C   UNL     1       8.465  20.548  56.670  1.00  0.00     0.505 C 
HETATM   35  F   UNL     1       8.290  21.263  57.808  1.00  0.00    -0.184 F 
HETATM   36  F   UNL     1       7.253  20.479  56.064  1.00  0.00    -0.184 F 
ENDBRANCH  33  34
ENDBRANCH  31  33
ENDBRANCH  25  27
ENDBRANCH   1  25
TORSDOF 6
ENDMDL
