MODEL 1
REMARK VINA RESULT:      -8.8      0.000      0.000
REMARK  4 active torsions:
REMARK  status: ('A' for Active; 'I' for Inactive)
REMARK    1  A    between atoms: C_2  and  C_3 
REMARK    2  A    between atoms: C_7  and  N_8 
REMARK       I    between atoms: N_8  and  C_9 
REMARK    3  A    between atoms: C_9  and  C_10 
REMARK    4  A    between atoms: C_12  and  C_13 
ROOT
HETATM    1  N   UNL     1       7.994  27.791  56.432  1.00  0.00    -0.308 N 
HETATM    2  C   UNL     1       7.905  26.449  56.768  1.00  0.00     0.257 C 
HETATM    3  O   UNL     1       8.095  25.997  57.895  1.00  0.00    -0.267 OA
HETATM    4  H   UNL     1       7.748  28.110  55.505  1.00  0.00     0.170 HD
ENDROOT
BRANCH   2   5
HETATM    5  C   UNL     1       7.511  25.530  55.664  1.00  0.00     0.033 A 
HETATM    6  C   UNL     1       7.920  24.189  55.630  1.00  0.00     0.029 A 
HETATM    7  C   UNL     1       7.558  23.366  54.553  1.00  0.00    -0.023 A 
HETATM    8  C   UNL     1       6.771  23.897  53.522  1.00  0.00     0.012 A 
HETATM    9  C   UNL     1       6.338  25.223  53.569  1.00  0.00     0.002 A 
HETATM   10  C   UNL     1       6.704  26.038  54.640  1.00  0.00     0.017 A 
BRANCH   7  11
HETATM   11  C   UNL     1       8.003  21.986  54.488  1.00  0.00    -0.002 A 
HETATM   12  C   UNL     1       8.012  21.220  53.340  1.00  0.00     0.153 A 
HETATM   13  O   UNL     1       8.479  19.971  53.597  1.00  0.00    -0.334 OA
HETATM   14  C   UNL     1       8.786  19.930  54.918  1.00  0.00     0.142 A 
HETATM   15  C   UNL     1       8.520  21.143  55.510  1.00  0.00     0.038 A 
ENDBRANCH   7  11
ENDBRANCH   2   5
BRANCH   1  16
HETATM   16  C   UNL     1       8.318  28.753  57.368  1.00  0.00     0.126 A 
HETATM   17  N   UNL     1       7.715  28.882  58.592  1.00  0.00    -0.262 N 
HETATM   18  N   UNL     1       8.188  29.910  59.319  1.00  0.00    -0.178 NA
HETATM   19  H   UNL     1       6.968  28.297  58.963  1.00  0.00     0.191 HD
HETATM   20  C   UNL     1       9.130  30.451  58.536  1.00  0.00     0.058 A 
HETATM   21  C   UNL     1       9.253  29.756  57.306  1.00  0.00     0.079 A 
BRANCH  20  22
HETATM   22  C   UNL     1       9.902  31.642  58.993  1.00  0.00     0.056 C 
HETATM   23  C   UNL     1       9.580  32.025  60.429  1.00  0.00     0.011 C 
ENDBRANCH  20  22
ENDBRANCH   1  16
TORSDOF 4
ENDMDL
MODEL 2
REMARK VINA RESULT:      -8.5      3.345      6.129
REMARK  4 active torsions:
REMARK  status: ('A' for Active; 'I' for Inactive)
REMARK    1  A    between atoms: C_2  and  C_3 
REMARK    2  A    between atoms: C_7  and  N_8 
REMARK       I    between atoms: N_8  and  C_9 
REMARK    3  A    between atoms: C_9  and  C_10 
REMARK    4  A    between atoms: C_12  and  C_13 
ROOT
HETATM    1  N   UNL     1       7.949  30.796  60.827  1.00  0.00    -0.308 N 
HETATM    2  C   UNL     1       8.559  31.430  59.757  1.00  0.00     0.257 C 
HETATM    3  O   UNL     1       8.749  32.642  59.678  1.00  0.00    -0.267 OA
HETATM    4  H   UNL     1       7.894  29.787  60.869  1.00  0.00     0.170 HD
ENDROOT
BRANCH   2   5
HETATM    5  C   UNL     1       9.039  30.537  58.664  1.00  0.00     0.033 A 
HETATM    6  C   UNL     1       8.324  29.398  58.266  1.00  0.00     0.029 A 
HETATM    7  C   UNL     1       8.828  28.563  57.258  1.00  0.00    -0.023 A 
HETATM    8  C   UNL     1      10.044  28.891  56.644  1.00  0.00     0.012 A 
HETATM    9  C   UNL     1      10.742  30.041  57.017  1.00  0.00     0.002 A 
HETATM   10  C   UNL     1      10.238  30.866  58.023  1.00  0.00     0.017 A 
BRANCH   7  11
HETATM   11  C   UNL     1       8.117  27.361  56.861  1.00  0.00    -0.002 A 
HETATM   12  C   UNL     1       7.422  27.218  55.677  1.00  0.00     0.153 A 
HETATM   13  O   UNL     1       6.862  25.984  55.594  1.00  0.00    -0.334 OA
HETATM   14  C   UNL     1       7.206  25.318  56.725  1.00  0.00     0.142 A 
HETATM   15  C   UNL     1       7.982  26.115  57.533  1.00  0.00     0.038 A 
ENDBRANCH   7  11
ENDBRANCH   2   5
BRANCH   1  16
HETATM   16  C   UNL     1       7.488  31.501  61.921  1.00  0.00     0.126 A 
HETATM   17  N   UNL     1       6.170  31.596  62.286  1.00  0.00    -0.262 N 
HETATM   18  N   UNL     1       5.968  32.358  63.377  1.00  0.00    -0.178 NA
HETATM   19  H   UNL     1       5.378  31.167  61.812  1.00  0.00     0.191 HD
HETATM   20  C   UNL     1       7.199  32.756  63.722  1.00  0.00     0.058 A 
HETATM   21  C   UNL     1       8.185  32.240  62.845  1.00  0.00     0.079 A 
BRANCH  20  22
HETATM   22  C   UNL     1       7.403  33.639  64.906  1.00  0.00     0.056 C 
HETATM   23  C   UNL     1       6.110  33.902  65.664  1.00  0.00     0.011 C 
ENDBRANCH  20  22
ENDBRANCH   1  16
TORSDOF 4
ENDMDL
MODEL 3
REMARK VINA RESULT:      -8.5      1.284      1.435
REMARK  4 active torsions:
REMARK  status: ('A' for Active; 'I' for Inactive)
REMARK    1  A    between atoms: C_2  and  C_3 
REMARK    2  A    between atoms: C_7  and  N_8 
REMARK       I    between atoms: N_8  and  C_9 
REMARK    3  A    between atoms: C_9  and  C_10 
REMARK    4  A    between atoms: C_12  and  C_13 
ROOT
HETATM    1  N   UNL     1       7.846  27.522  55.849  1.00  0.00    -0.308 N 
HETATM    2  C   UNL     1       6.876  26.572  55.569  1.00  0.00     0.257 C 
HETATM    3  O   UNL     1       5.767  26.530  56.096  1.00  0.00    -0.267 OA
HETATM    4  H   UNL     1       8.709  27.552  55.323  1.00  0.00     0.170 HD
ENDROOT
BRANCH   2   5
HETATM    5  C   UNL     1       7.231  25.575  54.521  1.00  0.00     0.033 A 
HETATM    6  C   UNL     1       7.478  24.229  54.827  1.00  0.00     0.029 A 
HETATM    7  C   UNL     1       7.846  23.329  53.816  1.00  0.00    -0.023 A 
HETATM    8  C   UNL     1       7.947  23.788  52.497  1.00  0.00     0.012 A 
HETATM    9  C   UNL     1       7.672  25.120  52.184  1.00  0.00     0.002 A 
HETATM   10  C   UNL     1       7.311  26.012  53.194  1.00  0.00     0.017 A 
BRANCH   7  11
HETATM   11  C   UNL     1       8.138  21.941  54.125  1.00  0.00    -0.002 A 
HETATM   12  C   UNL     1       8.438  20.976  53.184  1.00  0.00     0.153 A 
HETATM   13  O   UNL     1       8.661  19.776  53.779  1.00  0.00    -0.334 OA
HETATM   14  C   UNL     1       8.516  19.965  55.115  1.00  0.00     0.142 A 
HETATM   15  C   UNL     1       8.203  21.277  55.381  1.00  0.00     0.038 A 
ENDBRANCH   7  11
ENDBRANCH   2   5
BRANCH   1  16
HETATM   16  C   UNL     1       7.634  28.524  56.775  1.00  0.00     0.126 A 
HETATM   17  N   UNL     1       6.461  29.218  56.916  1.00  0.00    -0.262 N 
HETATM   18  N   UNL     1       6.506  30.162  57.874  1.00  0.00    -0.178 NA
HETATM   19  H   UNL     1       5.612  29.088  56.370  1.00  0.00     0.191 HD
HETATM   20  C   UNL     1       7.748  30.061  58.366  1.00  0.00     0.058 A 
HETATM   21  C   UNL     1       8.490  29.044  57.715  1.00  0.00     0.079 A 
BRANCH  20  22
HETATM   22  C   UNL     1       8.200  30.958  59.468  1.00  0.00     0.056 C 
HETATM   23  C   UNL     1       9.505  31.667  59.138  1.00  0.00     0.011 C 
ENDBRANCH  20  22
ENDBRANCH   1  16
TORSDOF 4
ENDMDL
MODEL 4
REMARK VINA RESULT:      -7.9      2.751      8.890
REMARK  4 active torsions:
REMARK  status: ('A' for Active; 'I' for Inactive)
REMARK    1  A    between atoms: C_2  and  C_3 
REMARK    2  A    between atoms: C_7  and  N_8 
REMARK       I    between atoms: N_8  and  C_9 
REMARK    3  A    between atoms: C_9  and  C_10 
REMARK    4  A    between atoms: C_12  and  C_13 
ROOT
HETATM    1  N   UNL     1       7.665  28.105  55.972  1.00  0.00    -0.308 N 
HETATM    2  C   UNL     1       8.139  28.005  57.271  1.00  0.00     0.257 C 
HETATM    3  O   UNL     1       8.086  26.987  57.958  1.00  0.00    -0.267 OA
HETATM    4  H   UNL     1       7.810  28.947  55.431  1.00  0.00     0.170 HD
ENDROOT
BRANCH   2   5
HETATM    5  C   UNL     1       8.784  29.230  57.820  1.00  0.00     0.033 A 
HETATM    6  C   UNL     1       8.306  29.871  58.972  1.00  0.00     0.029 A 
HETATM    7  C   UNL     1       8.920  31.043  59.436  1.00  0.00    -0.023 A 
HETATM    8  C   UNL     1      10.025  31.556  58.744  1.00  0.00     0.012 A 
HETATM    9  C   UNL     1      10.522  30.903  57.614  1.00  0.00     0.002 A 
HETATM   10  C   UNL     1       9.905  29.740  57.155  1.00  0.00     0.017 A 
BRANCH   7  11
HETATM   11  C   UNL     1       8.414  31.736  60.607  1.00  0.00    -0.002 A 
HETATM   12  C   UNL     1       7.257  32.488  60.633  1.00  0.00     0.153 A 
HETATM   13  O   UNL     1       7.051  33.013  61.869  1.00  0.00    -0.334 OA
HETATM   14  C   UNL     1       8.074  32.589  62.652  1.00  0.00     0.142 A 
HETATM   15  C   UNL     1       8.935  31.797  61.929  1.00  0.00     0.038 A 
ENDBRANCH   7  11
ENDBRANCH   2   5
BRANCH   1  16
HETATM   16  C   UNL     1       7.074  27.034  55.331  1.00  0.00     0.126 A 
HETATM   17  N   UNL     1       5.924  26.416  55.749  1.00  0.00    -0.262 N 
HETATM   18  N   UNL     1       5.558  25.381  54.970  1.00  0.00    -0.178 NA
HETATM   19  H   UNL     1       5.368  26.660  56.565  1.00  0.00     0.191 HD
HETATM   20  C   UNL     1       6.501  25.343  54.021  1.00  0.00     0.058 A 
HETATM   21  C   UNL     1       7.469  26.363  54.201  1.00  0.00     0.079 A 
BRANCH  20  22
HETATM   22  C   UNL     1       6.452  24.310  52.947  1.00  0.00     0.056 C 
HETATM   23  C   UNL     1       7.803  23.651  52.714  1.00  0.00     0.011 C 
ENDBRANCH  20  22
ENDBRANCH   1  16
TORSDOF 4
ENDMDL
MODEL 5
REMARK VINA RESULT:      -7.9      2.774      2.982
REMARK  4 active torsions:
REMARK  status: ('A' for Active; 'I' for Inactive)
REMARK    1  A    between atoms: C_2  and  C_3 
REMARK    2  A    between atoms: C_7  and  N_8 
REMARK       I    between atoms: N_8  and  C_9 
REMARK    3  A    between atoms: C_9  and  C_10 
REMARK    4  A    between atoms: C_12  and  C_13 
ROOT
HETATM    1  N   UNL     1       6.077  27.619  54.861  1.00  0.00    -0.308 N 
HETATM    2  C   UNL     1       6.986  26.687  55.336  1.00  0.00     0.257 C 
HETATM    3  O   UNL     1       7.481  26.704  56.461  1.00  0.00    -0.267 OA
HETATM    4  H   UNL     1       5.644  27.505  53.954  1.00  0.00     0.170 HD
ENDROOT
BRANCH   2   5
HETATM    5  C   UNL     1       7.331  25.583  54.397  1.00  0.00     0.033 A 
HETATM    6  C   UNL     1       7.523  24.265  54.837  1.00  0.00     0.029 A 
HETATM    7  C   UNL     1       7.883  23.261  53.927  1.00  0.00    -0.023 A 
HETATM    8  C   UNL     1       8.032  23.587  52.573  1.00  0.00     0.012 A 
HETATM    9  C   UNL     1       7.811  24.892  52.127  1.00  0.00     0.002 A 
HETATM   10  C   UNL     1       7.457  25.888  53.038  1.00  0.00     0.017 A 
BRANCH   7  11
HETATM   11  C   UNL     1       8.119  21.900  54.374  1.00  0.00    -0.002 A 
HETATM   12  C   UNL     1       8.579  20.880  53.566  1.00  0.00     0.153 A 
HETATM   13  O   UNL     1       8.697  19.724  54.270  1.00  0.00    -0.334 OA
HETATM   14  C   UNL     1       8.322  19.999  55.545  1.00  0.00     0.142 A 
HETATM   15  C   UNL     1       7.965  21.322  55.664  1.00  0.00     0.038 A 
ENDBRANCH   7  11
ENDBRANCH   2   5
BRANCH   1  16
HETATM   16  C   UNL     1       5.646  28.675  55.639  1.00  0.00     0.126 A 
HETATM   17  N   UNL     1       6.475  29.531  56.316  1.00  0.00    -0.262 N 
HETATM   18  N   UNL     1       5.818  30.468  57.024  1.00  0.00    -0.178 NA
HETATM   19  H   UNL     1       7.493  29.503  56.330  1.00  0.00     0.191 HD
HETATM   20  C   UNL     1       4.527  30.204  56.786  1.00  0.00     0.058 A 
HETATM   21  C   UNL     1       4.369  29.094  55.919  1.00  0.00     0.079 A 
BRANCH  20  22
HETATM   22  C   UNL     1       3.458  31.036  57.408  1.00  0.00     0.056 C 
HETATM   23  C   UNL     1       3.813  31.475  58.821  1.00  0.00     0.011 C 
ENDBRANCH  20  22
ENDBRANCH   1  16
TORSDOF 4
ENDMDL
MODEL 6
REMARK VINA RESULT:      -7.9      3.785      5.540
REMARK  4 active torsions:
REMARK  status: ('A' for Active; 'I' for Inactive)
REMARK    1  A    between atoms: C_2  and  C_3 
REMARK    2  A    between atoms: C_7  and  N_8 
REMARK       I    between atoms: N_8  and  C_9 
REMARK    3  A    between atoms: C_9  and  C_10 
REMARK    4  A    between atoms: C_12  and  C_13 
ROOT
HETATM    1  N   UNL     1       5.713  26.415  53.514  1.00  0.00    -0.308 N 
HETATM    2  C   UNL     1       5.959  26.411  54.877  1.00  0.00     0.257 C 
HETATM    3  O   UNL     1       5.460  27.197  55.680  1.00  0.00    -0.267 OA
HETATM    4  H   UNL     1       6.092  25.691  52.917  1.00  0.00     0.170 HD
ENDROOT
BRANCH   2   5
HETATM    5  C   UNL     1       6.869  25.339  55.368  1.00  0.00     0.033 A 
HETATM    6  C   UNL     1       7.102  24.167  54.633  1.00  0.00     0.029 A 
HETATM    7  C   UNL     1       7.938  23.164  55.147  1.00  0.00    -0.023 A 
HETATM    8  C   UNL     1       8.547  23.355  56.394  1.00  0.00     0.012 A 
HETATM    9  C   UNL     1       8.341  24.534  57.114  1.00  0.00     0.002 A 
HETATM   10  C   UNL     1       7.506  25.526  56.600  1.00  0.00     0.017 A 
BRANCH   7  11
HETATM   11  C   UNL     1       8.160  21.931  54.414  1.00  0.00    -0.002 A 
HETATM   12  C   UNL     1       8.563  20.742  54.986  1.00  0.00     0.153 A 
HETATM   13  O   UNL     1       8.687  19.771  54.044  1.00  0.00    -0.334 OA
HETATM   14  C   UNL     1       8.352  20.332  52.854  1.00  0.00     0.142 A 
HETATM   15  C   UNL     1       8.012  21.653  53.027  1.00  0.00     0.038 A 
ENDBRANCH   7  11
ENDBRANCH   2   5
BRANCH   1  16
HETATM   16  C   UNL     1       4.864  27.334  52.932  1.00  0.00     0.126 A 
HETATM   17  N   UNL     1       3.564  27.543  53.315  1.00  0.00    -0.262 N 
HETATM   18  N   UNL     1       2.932  28.478  52.582  1.00  0.00    -0.178 NA
HETATM   19  H   UNL     1       3.068  27.061  54.062  1.00  0.00     0.191 HD
HETATM   20  C   UNL     1       3.861  28.883  51.707  1.00  0.00     0.058 A 
HETATM   21  C   UNL     1       5.089  28.201  51.891  1.00  0.00     0.079 A 
BRANCH  20  22
HETATM   22  C   UNL     1       3.542  29.932  50.697  1.00  0.00     0.056 C 
HETATM   23  C   UNL     1       2.075  29.922  50.294  1.00  0.00     0.011 C 
ENDBRANCH  20  22
ENDBRANCH   1  16
TORSDOF 4
ENDMDL
MODEL 7
REMARK VINA RESULT:      -7.7      3.102      4.014
REMARK  4 active torsions:
REMARK  status: ('A' for Active; 'I' for Inactive)
REMARK    1  A    between atoms: C_2  and  C_3 
REMARK    2  A    between atoms: C_7  and  N_8 
REMARK       I    between atoms: N_8  and  C_9 
REMARK    3  A    between atoms: C_9  and  C_10 
REMARK    4  A    between atoms: C_12  and  C_13 
ROOT
HETATM    1  N   UNL     1       6.244  27.490  56.135  1.00  0.00    -0.308 N 
HETATM    2  C   UNL     1       6.140  26.347  55.357  1.00  0.00     0.257 C 
HETATM    3  O   UNL     1       5.379  26.219  54.401  1.00  0.00    -0.267 OA
HETATM    4  H   UNL     1       6.947  27.562  56.858  1.00  0.00     0.170 HD
ENDROOT
BRANCH   2   5
HETATM    5  C   UNL     1       7.063  25.234  55.717  1.00  0.00     0.033 A 
HETATM    6  C   UNL     1       7.226  24.108  54.896  1.00  0.00     0.029 A 
HETATM    7  C   UNL     1       8.077  23.064  55.289  1.00  0.00    -0.023 A 
HETATM    8  C   UNL     1       8.772  23.168  56.501  1.00  0.00     0.012 A 
HETATM    9  C   UNL     1       8.634  24.301  57.304  1.00  0.00     0.002 A 
HETATM   10  C   UNL     1       7.784  25.334  56.912  1.00  0.00     0.017 A 
BRANCH   7  11
HETATM   11  C   UNL     1       8.228  21.877  54.466  1.00  0.00    -0.002 A 
HETATM   12  C   UNL     1       8.681  20.658  54.927  1.00  0.00     0.153 A 
HETATM   13  O   UNL     1       8.716  19.745  53.922  1.00  0.00    -0.334 OA
HETATM   14  C   UNL     1       8.272  20.373  52.804  1.00  0.00     0.142 A 
HETATM   15  C   UNL     1       7.952  21.681  53.085  1.00  0.00     0.038 A 
ENDBRANCH   7  11
ENDBRANCH   2   5
BRANCH   1  16
HETATM   16  C   UNL     1       5.471  28.607  55.889  1.00  0.00     0.126 A 
HETATM   17  N   UNL     1       5.508  29.338  54.730  1.00  0.00    -0.262 N 
HETATM   18  N   UNL     1       4.677  30.397  54.737  1.00  0.00    -0.178 NA
HETATM   19  H   UNL     1       6.094  29.156  53.918  1.00  0.00     0.191 HD
HETATM   20  C   UNL     1       4.087  30.335  55.937  1.00  0.00     0.058 A 
HETATM   21  C   UNL     1       4.546  29.227  56.692  1.00  0.00     0.079 A 
BRANCH  20  22
HETATM   22  C   UNL     1       3.079  31.358  56.338  1.00  0.00     0.056 C 
HETATM   23  C   UNL     1       2.341  31.944  55.143  1.00  0.00     0.011 C 
ENDBRANCH  20  22
ENDBRANCH   1  16
TORSDOF 4
ENDMDL
MODEL 8
REMARK VINA RESULT:      -7.6      4.973      7.956
REMARK  4 active torsions:
REMARK  status: ('A' for Active; 'I' for Inactive)
REMARK    1  A    between atoms: C_2  and  C_3 
REMARK    2  A    between atoms: C_7  and  N_8 
REMARK       I    between atoms: N_8  and  C_9 
REMARK    3  A    between atoms: C_9  and  C_10 
REMARK    4  A    between atoms: C_12  and  C_13 
ROOT
HETATM    1  N   UNL     1       6.406  24.444  52.748  1.00  0.00    -0.308 N 
HETATM    2  C   UNL     1       6.484  25.804  53.002  1.00  0.00     0.257 C 
HETATM    3  O   UNL     1       7.055  26.303  53.969  1.00  0.00    -0.267 OA
HETATM    4  H   UNL     1       5.992  24.099  51.892  1.00  0.00     0.170 HD
ENDROOT
BRANCH   2   5
HETATM    5  C   UNL     1       5.853  26.689  51.983  1.00  0.00     0.033 A 
HETATM    6  C   UNL     1       5.175  26.175  50.868  1.00  0.00     0.029 A 
HETATM    7  C   UNL     1       4.626  27.043  49.913  1.00  0.00    -0.023 A 
HETATM    8  C   UNL     1       4.749  28.426  50.095  1.00  0.00     0.012 A 
HETATM    9  C   UNL     1       5.397  28.941  51.219  1.00  0.00     0.002 A 
HETATM   10  C   UNL     1       5.945  28.073  52.164  1.00  0.00     0.017 A 
BRANCH   7  11
HETATM   11  C   UNL     1       3.952  26.525  48.736  1.00  0.00    -0.002 A 
HETATM   12  C   UNL     1       3.691  27.258  47.596  1.00  0.00     0.153 A 
HETATM   13  O   UNL     1       3.047  26.500  46.672  1.00  0.00    -0.334 OA
HETATM   14  C   UNL     1       2.899  25.263  47.210  1.00  0.00     0.142 A 
HETATM   15  C   UNL     1       3.444  25.223  48.472  1.00  0.00     0.038 A 
ENDBRANCH   7  11
ENDBRANCH   2   5
BRANCH   1  16
HETATM   16  C   UNL     1       6.977  23.514  53.594  1.00  0.00     0.126 A 
HETATM   17  N   UNL     1       6.979  23.604  54.961  1.00  0.00    -0.262 N 
HETATM   18  N   UNL     1       7.618  22.586  55.566  1.00  0.00    -0.178 NA
HETATM   19  H   UNL     1       6.566  24.349  55.520  1.00  0.00     0.191 HD
HETATM   20  C   UNL     1       8.032  21.818  54.551  1.00  0.00     0.058 A 
HETATM   21  C   UNL     1       7.649  22.354  53.296  1.00  0.00     0.079 A 
BRANCH  20  22
HETATM   22  C   UNL     1       8.800  20.567  54.813  1.00  0.00     0.056 C 
HETATM   23  C   UNL     1       9.082  20.359  56.293  1.00  0.00     0.011 C 
ENDBRANCH  20  22
ENDBRANCH   1  16
TORSDOF 4
ENDMDL
MODEL 9
REMARK VINA RESULT:      -7.5      2.737      8.527
REMARK  4 active torsions:
REMARK  status: ('A' for Active; 'I' for Inactive)
REMARK    1  A    between atoms: C_2  and  C_3 
REMARK    2  A    between atoms: C_7  and  N_8 
REMARK       I    between atoms: N_8  and  C_9 
REMARK    3  A    between atoms: C_9  and  C_10 
REMARK    4  A    between atoms: C_12  and  C_13 
ROOT
HETATM    1  N   UNL     1       6.914  25.569  56.420  1.00  0.00    -0.308 N 
HETATM    2  C   UNL     1       7.703  26.504  57.070  1.00  0.00     0.257 C 
HETATM    3  O   UNL     1       8.817  26.277  57.537  1.00  0.00    -0.267 OA
HETATM    4  H   UNL     1       6.041  25.838  55.987  1.00  0.00     0.170 HD
ENDROOT
BRANCH   2   5
HETATM    5  C   UNL     1       7.138  27.880  57.153  1.00  0.00     0.033 A 
HETATM    6  C   UNL     1       7.654  28.845  58.031  1.00  0.00     0.029 A 
HETATM    7  C   UNL     1       7.071  30.118  58.105  1.00  0.00    -0.023 A 
HETATM    8  C   UNL     1       5.977  30.418  57.282  1.00  0.00     0.012 A 
HETATM    9  C   UNL     1       5.481  29.470  56.386  1.00  0.00     0.002 A 
HETATM   10  C   UNL     1       6.062  28.204  56.319  1.00  0.00     0.017 A 
BRANCH   7  11
HETATM   11  C   UNL     1       7.572  31.115  59.034  1.00  0.00    -0.002 A 
HETATM   12  C   UNL     1       6.777  31.930  59.813  1.00  0.00     0.153 A 
HETATM   13  O   UNL     1       7.536  32.759  60.575  1.00  0.00    -0.334 OA
HETATM   14  C   UNL     1       8.833  32.472  60.298  1.00  0.00     0.142 A 
HETATM   15  C   UNL     1       8.911  31.465  59.364  1.00  0.00     0.038 A 
ENDBRANCH   7  11
ENDBRANCH   2   5
BRANCH   1  16
HETATM   16  C   UNL     1       7.332  24.264  56.244  1.00  0.00     0.126 A 
HETATM   17  N   UNL     1       8.008  23.531  57.184  1.00  0.00    -0.262 N 
HETATM   18  N   UNL     1       8.327  22.291  56.770  1.00  0.00    -0.178 NA
HETATM   19  H   UNL     1       8.282  23.843  58.113  1.00  0.00     0.191 HD
HETATM   20  C   UNL     1       7.832  22.229  55.528  1.00  0.00     0.058 A 
HETATM   21  C   UNL     1       7.193  23.438  55.156  1.00  0.00     0.079 A 
BRANCH  20  22
HETATM   22  C   UNL     1       7.986  20.990  54.713  1.00  0.00     0.056 C 
HETATM   23  C   UNL     1       7.869  21.259  53.221  1.00  0.00     0.011 C 
ENDBRANCH  20  22
ENDBRANCH   1  16
TORSDOF 4
ENDMDL
MODEL 10
REMARK VINA RESULT:      -7.4      4.757     11.098
REMARK  4 active torsions:
REMARK  status: ('A' for Active; 'I' for Inactive)
REMARK    1  A    between atoms: C_2  and  C_3 
REMARK    2  A    between atoms: C_7  and  N_8 
REMARK       I    between atoms: N_8  and  C_9 
REMARK    3  A    between atoms: C_9  and  C_10 
REMARK    4  A    between atoms: C_12  and  C_13 
ROOT
HETATM    1  N   UNL     1       7.925  30.302  59.635  1.00  0.00    -0.308 N 
HETATM    2  C   UNL     1       7.519  31.625  59.702  1.00  0.00     0.257 C 
HETATM    3  O   UNL     1       7.244  32.322  58.728  1.00  0.00    -0.267 OA
HETATM    4  H   UNL     1       8.059  29.757  60.476  1.00  0.00     0.170 HD
ENDROOT
BRANCH   2   5
HETATM    5  C   UNL     1       7.382  32.191  61.074  1.00  0.00     0.033 A 
HETATM    6  C   UNL     1       6.444  33.188  61.377  1.00  0.00     0.029 A 
HETATM    7  C   UNL     1       6.372  33.721  62.673  1.00  0.00    -0.023 A 
HETATM    8  C   UNL     1       7.236  33.233  63.661  1.00  0.00     0.012 A 
HETATM    9  C   UNL     1       8.150  32.218  63.369  1.00  0.00     0.002 A 
HETATM   10  C   UNL     1       8.220  31.695  62.078  1.00  0.00     0.017 A 
BRANCH   7  11
HETATM   11  C   UNL     1       5.430  34.778  62.992  1.00  0.00    -0.002 A 
HETATM   12  C   UNL     1       4.100  34.576  63.299  1.00  0.00     0.153 A 
HETATM   13  O   UNL     1       3.477  35.757  63.548  1.00  0.00    -0.334 OA
HETATM   14  C   UNL     1       4.412  36.731  63.413  1.00  0.00     0.142 A 
HETATM   15  C   UNL     1       5.629  36.184  63.080  1.00  0.00     0.038 A 
ENDBRANCH   7  11
ENDBRANCH   2   5
BRANCH   1  16
HETATM   16  C   UNL     1       8.060  29.645  58.428  1.00  0.00     0.126 A 
HETATM   17  N   UNL     1       9.001  29.948  57.478  1.00  0.00    -0.262 N 
HETATM   18  N   UNL     1       8.919  29.181  56.376  1.00  0.00    -0.178 NA
HETATM   19  H   UNL     1       9.708  30.679  57.538  1.00  0.00     0.191 HD
HETATM   20  C   UNL     1       7.896  28.357  56.634  1.00  0.00     0.058 A 
HETATM   21  C   UNL     1       7.331  28.604  57.910  1.00  0.00     0.079 A 
BRANCH  20  22
HETATM   22  C   UNL     1       7.478  27.334  55.632  1.00  0.00     0.056 C 
HETATM   23  C   UNL     1       7.675  27.811  54.201  1.00  0.00     0.011 C 
ENDBRANCH  20  22
ENDBRANCH   1  16
TORSDOF 4
ENDMDL
