MODEL 1
REMARK VINA RESULT:     -10.2      0.000      0.000
REMARK  5 active torsions:
REMARK  status: ('A' for Active; 'I' for Inactive)
REMARK    1  A    between atoms: C_8  and  C_9 
REMARK    2  A    between atoms: C_9  and  C_10 
REMARK       I    between atoms: C_10  and  N_11 
REMARK    3  A    between atoms: N_11  and  N_12 
REMARK       I    between atoms: N_12  and  C_13 
REMARK    4  A    between atoms: C_13  and  C_14 
REMARK    5  A    between atoms: C_16  and  C_17 
ROOT
HETATM    1  C   UNL     1       7.596  25.678  57.189  1.00  0.00     0.240 C 
HETATM    2  N   UNL     1       7.162  26.981  57.020  1.00  0.00    -0.267 N 
HETATM    3  O   UNL     1       8.608  25.388  57.826  1.00  0.00    -0.272 OA
HETATM    4  H   UNL     1       6.536  27.232  56.256  1.00  0.00     0.190 HD
ENDROOT
BRANCH   2   5
HETATM    5  N   UNL     1       7.925  28.018  57.556  1.00  0.00    -0.263 N 
HETATM    6  C   UNL     1       7.289  29.182  57.930  1.00  0.00     0.270 C 
HETATM    7  O   UNL     1       6.097  29.401  57.739  1.00  0.00    -0.266 OA
HETATM    8  H   UNL     1       8.937  27.943  57.465  1.00  0.00     0.190 HD
BRANCH   6   9
HETATM    9  C   UNL     1       8.145  30.170  58.625  1.00  0.00     0.034 A 
HETATM   10  C   UNL     1       7.702  30.756  59.820  1.00  0.00     0.029 A 
HETATM   11  C   UNL     1       8.459  31.754  60.444  1.00  0.00    -0.023 A 
HETATM   12  C   UNL     1       9.681  32.133  59.866  1.00  0.00     0.012 A 
HETATM   13  C   UNL     1      10.119  31.549  58.672  1.00  0.00     0.002 A 
HETATM   14  C   UNL     1       9.344  30.578  58.040  1.00  0.00     0.017 A 
BRANCH  11  15
HETATM   15  C   UNL     1       7.957  32.391  61.652  1.00  0.00    -0.002 A 
HETATM   16  C   UNL     1       6.927  33.311  61.683  1.00  0.00     0.153 A 
HETATM   17  O   UNL     1       6.655  33.692  62.958  1.00  0.00    -0.334 OA
HETATM   18  C   UNL     1       7.508  33.011  63.762  1.00  0.00     0.142 A 
HETATM   19  C   UNL     1       8.326  32.197  63.014  1.00  0.00     0.038 A 
ENDBRANCH  11  15
ENDBRANCH   6   9
ENDBRANCH   2   5
BRANCH   1  20
HETATM   20  C   UNL     1       6.631  24.654  56.631  1.00  0.00     0.145 C 
BRANCH  20  21
HETATM   21  C   UNL     1       6.988  24.033  55.319  1.00  0.00    -0.021 A 
HETATM   22  C   UNL     1       7.431  22.699  55.011  1.00  0.00    -0.001 A 
HETATM   23  C   UNL     1       7.614  21.508  55.746  1.00  0.00     0.014 A 
HETATM   24  C   UNL     1       7.758  22.674  53.652  1.00  0.00     0.042 A 
HETATM   25  C   UNL     1       8.120  20.364  55.114  1.00  0.00     0.001 A 
HETATM   26  C   UNL     1       8.449  20.384  53.763  1.00  0.00     0.002 A 
HETATM   27  C   UNL     1       8.270  21.542  53.005  1.00  0.00     0.030 A 
HETATM   28  N   UNL     1       7.490  23.921  53.142  1.00  0.00    -0.365 N 
HETATM   29  H   UNL     1       7.633  24.188  52.178  1.00  0.00     0.165 HD
HETATM   30  C   UNL     1       7.034  24.744  54.131  1.00  0.00     0.097 A 
ENDBRANCH  20  21
ENDBRANCH   1  20
TORSDOF 5
ENDMDL
MODEL 2
REMARK VINA RESULT:     -10.1      2.281     10.337
REMARK  5 active torsions:
REMARK  status: ('A' for Active; 'I' for Inactive)
REMARK    1  A    between atoms: C_8  and  C_9 
REMARK    2  A    between atoms: C_9  and  C_10 
REMARK       I    between atoms: C_10  and  N_11 
REMARK    3  A    between atoms: N_11  and  N_12 
REMARK       I    between atoms: N_12  and  C_13 
REMARK    4  A    between atoms: C_13  and  C_14 
REMARK    5  A    between atoms: C_16  and  C_17 
ROOT
HETATM    1  C   UNL     1       9.385  29.679  57.296  1.00  0.00     0.240 C 
HETATM    2  N   UNL     1       8.647  28.550  57.612  1.00  0.00    -0.267 N 
HETATM    3  O   UNL     1       9.714  29.960  56.145  1.00  0.00    -0.272 OA
HETATM    4  H   UNL     1       8.654  28.165  58.556  1.00  0.00     0.190 HD
ENDROOT
BRANCH   2   5
HETATM    5  N   UNL     1       8.299  27.668  56.590  1.00  0.00    -0.263 N 
HETATM    6  C   UNL     1       8.020  26.357  56.915  1.00  0.00     0.270 C 
HETATM    7  O   UNL     1       8.146  25.891  58.042  1.00  0.00    -0.266 OA
HETATM    8  H   UNL     1       8.454  27.982  55.634  1.00  0.00     0.190 HD
BRANCH   6   9
HETATM    9  C   UNL     1       7.515  25.528  55.797  1.00  0.00     0.034 A 
HETATM   10  C   UNL     1       7.878  24.176  55.716  1.00  0.00     0.029 A 
HETATM   11  C   UNL     1       7.480  23.399  54.621  1.00  0.00    -0.023 A 
HETATM   12  C   UNL     1       6.688  23.993  53.627  1.00  0.00     0.012 A 
HETATM   13  C   UNL     1       6.329  25.343  53.709  1.00  0.00     0.002 A 
HETATM   14  C   UNL     1       6.755  26.118  54.787  1.00  0.00     0.017 A 
BRANCH  11  15
HETATM   15  C   UNL     1       7.914  22.014  54.524  1.00  0.00    -0.002 A 
HETATM   16  C   UNL     1       7.929  21.277  53.355  1.00  0.00     0.153 A 
HETATM   17  O   UNL     1       8.428  20.032  53.572  1.00  0.00    -0.334 OA
HETATM   18  C   UNL     1       8.747  19.961  54.888  1.00  0.00     0.142 A 
HETATM   19  C   UNL     1       8.456  21.148  55.517  1.00  0.00     0.038 A 
ENDBRANCH  11  15
ENDBRANCH   6   9
ENDBRANCH   2   5
BRANCH   1  20
HETATM   20  C   UNL     1       9.619  30.586  58.484  1.00  0.00     0.145 C 
BRANCH  20  21
HETATM   21  C   UNL     1       8.408  31.173  59.137  1.00  0.00    -0.021 A 
HETATM   22  C   UNL     1       8.216  31.653  60.480  1.00  0.00    -0.001 A 
HETATM   23  C   UNL     1       9.043  31.828  61.610  1.00  0.00     0.014 A 
HETATM   24  C   UNL     1       6.862  31.973  60.615  1.00  0.00     0.042 A 
HETATM   25  C   UNL     1       8.497  32.295  62.814  1.00  0.00     0.001 A 
HETATM   26  C   UNL     1       7.140  32.588  62.913  1.00  0.00     0.002 A 
HETATM   27  C   UNL     1       6.297  32.435  61.811  1.00  0.00     0.030 A 
HETATM   28  N   UNL     1       6.261  31.741  59.403  1.00  0.00    -0.365 N 
HETATM   29  H   UNL     1       5.280  31.888  59.213  1.00  0.00     0.165 HD
HETATM   30  C   UNL     1       7.175  31.256  58.511  1.00  0.00     0.097 A 
ENDBRANCH  20  21
ENDBRANCH   1  20
TORSDOF 5
ENDMDL
MODEL 3
REMARK VINA RESULT:     -10.0      2.191      9.991
REMARK  5 active torsions:
REMARK  status: ('A' for Active; 'I' for Inactive)
REMARK    1  A    between atoms: C_8  and  C_9 
REMARK    2  A    between atoms: C_9  and  C_10 
REMARK       I    between atoms: C_10  and  N_11 
REMARK    3  A    between atoms: N_11  and  N_12 
REMARK       I    between atoms: N_12  and  C_13 
REMARK    4  A    between atoms: C_13  and  C_14 
REMARK    5  A    between atoms: C_16  and  C_17 
ROOT
HETATM    1  C   UNL     1       8.282  29.051  57.619  1.00  0.00     0.240 C 
HETATM    2  N   UNL     1       8.483  28.834  56.266  1.00  0.00    -0.267 N 
HETATM    3  O   UNL     1       7.984  28.151  58.403  1.00  0.00    -0.272 OA
HETATM    4  H   UNL     1       8.413  29.598  55.595  1.00  0.00     0.190 HD
ENDROOT
BRANCH   2   5
HETATM    5  N   UNL     1       8.298  27.549  55.758  1.00  0.00    -0.263 N 
HETATM    6  C   UNL     1       7.507  27.387  54.641  1.00  0.00     0.270 C 
HETATM    7  O   UNL     1       6.877  28.298  54.112  1.00  0.00    -0.266 OA
HETATM    8  H   UNL     1       8.595  26.771  56.345  1.00  0.00     0.190 HD
BRANCH   6   9
HETATM    9  C   UNL     1       7.485  26.017  54.079  1.00  0.00     0.034 A 
HETATM   10  C   UNL     1       7.638  24.914  54.932  1.00  0.00     0.029 A 
HETATM   11  C   UNL     1       7.705  23.618  54.408  1.00  0.00    -0.023 A 
HETATM   12  C   UNL     1       7.587  23.444  53.021  1.00  0.00     0.012 A 
HETATM   13  C   UNL     1       7.437  24.548  52.172  1.00  0.00     0.002 A 
HETATM   14  C   UNL     1       7.401  25.837  52.698  1.00  0.00     0.017 A 
BRANCH  11  15
HETATM   15  C   UNL     1       7.922  22.490  55.301  1.00  0.00    -0.002 A 
HETATM   16  C   UNL     1       8.307  22.599  56.623  1.00  0.00     0.153 A 
HETATM   17  O   UNL     1       8.384  21.376  57.209  1.00  0.00    -0.334 OA
HETATM   18  C   UNL     1       8.039  20.465  56.265  1.00  0.00     0.142 A 
HETATM   19  C   UNL     1       7.743  21.094  55.079  1.00  0.00     0.038 A 
ENDBRANCH  11  15
ENDBRANCH   6   9
ENDBRANCH   2   5
BRANCH   1  20
HETATM   20  C   UNL     1       8.597  30.468  58.046  1.00  0.00     0.145 C 
BRANCH  20  21
HETATM   21  C   UNL     1       7.621  31.131  58.964  1.00  0.00    -0.021 A 
HETATM   22  C   UNL     1       7.773  31.562  60.328  1.00  0.00    -0.001 A 
HETATM   23  C   UNL     1       8.838  31.607  61.254  1.00  0.00     0.014 A 
HETATM   24  C   UNL     1       6.518  31.998  60.767  1.00  0.00     0.042 A 
HETATM   25  C   UNL     1       8.614  32.063  62.560  1.00  0.00     0.001 A 
HETATM   26  C   UNL     1       7.347  32.474  62.962  1.00  0.00     0.002 A 
HETATM   27  C   UNL     1       6.275  32.452  62.070  1.00  0.00     0.030 A 
HETATM   28  N   UNL     1       5.650  31.880  59.710  1.00  0.00    -0.365 N 
HETATM   29  H   UNL     1       4.670  32.126  59.745  1.00  0.00     0.165 HD
HETATM   30  C   UNL     1       6.296  31.357  58.627  1.00  0.00     0.097 A 
ENDBRANCH  20  21
ENDBRANCH   1  20
TORSDOF 5
ENDMDL
MODEL 4
REMARK VINA RESULT:      -9.9      2.326     10.376
REMARK  5 active torsions:
REMARK  status: ('A' for Active; 'I' for Inactive)
REMARK    1  A    between atoms: C_8  and  C_9 
REMARK    2  A    between atoms: C_9  and  C_10 
REMARK       I    between atoms: C_10  and  N_11 
REMARK    3  A    between atoms: N_11  and  N_12 
REMARK       I    between atoms: N_12  and  C_13 
REMARK    4  A    between atoms: C_13  and  C_14 
REMARK    5  A    between atoms: C_16  and  C_17 
ROOT
HETATM    1  C   UNL     1       7.513  29.420  56.867  1.00  0.00     0.240 C 
HETATM    2  N   UNL     1       6.926  28.175  57.020  1.00  0.00    -0.267 N 
HETATM    3  O   UNL     1       8.343  29.663  55.992  1.00  0.00    -0.272 OA
HETATM    4  H   UNL     1       6.503  27.899  57.906  1.00  0.00     0.190 HD
ENDROOT
BRANCH   2   5
HETATM    5  N   UNL     1       7.322  27.137  56.178  1.00  0.00    -0.263 N 
HETATM    6  C   UNL     1       6.373  26.535  55.380  1.00  0.00     0.270 C 
HETATM    7  O   UNL     1       5.176  26.795  55.427  1.00  0.00    -0.266 OA
HETATM    8  H   UNL     1       8.249  26.743  56.332  1.00  0.00     0.190 HD
BRANCH   6   9
HETATM    9  C   UNL     1       6.902  25.549  54.410  1.00  0.00     0.034 A 
HETATM   10  C   UNL     1       7.113  24.222  54.813  1.00  0.00     0.029 A 
HETATM   11  C   UNL     1       7.693  23.298  53.935  1.00  0.00    -0.023 A 
HETATM   12  C   UNL     1       8.028  23.719  52.640  1.00  0.00     0.012 A 
HETATM   13  C   UNL     1       7.819  25.045  52.241  1.00  0.00     0.002 A 
HETATM   14  C   UNL     1       7.270  25.966  53.131  1.00  0.00     0.017 A 
BRANCH  11  15
HETATM   15  C   UNL     1       7.958  21.941  54.389  1.00  0.00    -0.002 A 
HETATM   16  C   UNL     1       8.379  20.910  53.572  1.00  0.00     0.153 A 
HETATM   17  O   UNL     1       8.586  19.775  54.289  1.00  0.00    -0.334 OA
HETATM   18  C   UNL     1       8.306  20.072  55.583  1.00  0.00     0.142 A 
HETATM   19  C   UNL     1       7.920  21.387  55.701  1.00  0.00     0.038 A 
ENDBRANCH  11  15
ENDBRANCH   6   9
ENDBRANCH   2   5
BRANCH   1  20
HETATM   20  C   UNL     1       6.930  30.469  57.789  1.00  0.00     0.145 C 
BRANCH  20  21
HETATM   21  C   UNL     1       7.649  30.712  59.077  1.00  0.00    -0.021 A 
HETATM   22  C   UNL     1       7.295  31.544  60.197  1.00  0.00    -0.001 A 
HETATM   23  C   UNL     1       6.182  32.338  60.544  1.00  0.00     0.014 A 
HETATM   24  C   UNL     1       8.375  31.522  61.086  1.00  0.00     0.042 A 
HETATM   25  C   UNL     1       6.190  33.076  61.736  1.00  0.00     0.001 A 
HETATM   26  C   UNL     1       7.290  33.040  62.587  1.00  0.00     0.002 A 
HETATM   27  C   UNL     1       8.403  32.257  62.278  1.00  0.00     0.030 A 
HETATM   28  N   UNL     1       9.326  30.684  60.558  1.00  0.00    -0.365 N 
HETATM   29  H   UNL     1      10.214  30.480  60.993  1.00  0.00     0.165 HD
HETATM   30  C   UNL     1       8.906  30.198  59.353  1.00  0.00     0.097 A 
ENDBRANCH  20  21
ENDBRANCH   1  20
TORSDOF 5
ENDMDL
MODEL 5
REMARK VINA RESULT:      -9.7      6.562     10.485
REMARK  5 active torsions:
REMARK  status: ('A' for Active; 'I' for Inactive)
REMARK    1  A    between atoms: C_8  and  C_9 
REMARK    2  A    between atoms: C_9  and  C_10 
REMARK       I    between atoms: C_10  and  N_11 
REMARK    3  A    between atoms: N_11  and  N_12 
REMARK       I    between atoms: N_12  and  C_13 
REMARK    4  A    between atoms: C_13  and  C_14 
REMARK    5  A    between atoms: C_16  and  C_17 
ROOT
HETATM    1  C   UNL     1       6.197  25.695  52.643  1.00  0.00     0.240 C 
HETATM    2  N   UNL     1       6.432  26.035  51.322  1.00  0.00    -0.267 N 
HETATM    3  O   UNL     1       5.099  25.316  53.050  1.00  0.00    -0.272 OA
HETATM    4  H   UNL     1       7.218  26.632  51.065  1.00  0.00     0.190 HD
ENDROOT
BRANCH   2   5
HETATM    5  N   UNL     1       5.372  25.991  50.418  1.00  0.00    -0.263 N 
HETATM    6  C   UNL     1       4.918  27.173  49.873  1.00  0.00     0.270 C 
HETATM    7  O   UNL     1       5.332  28.280  50.201  1.00  0.00    -0.266 OA
HETATM    8  H   UNL     1       4.856  25.115  50.351  1.00  0.00     0.190 HD
BRANCH   6   9
HETATM    9  C   UNL     1       3.894  27.024  48.814  1.00  0.00     0.034 A 
HETATM   10  C   UNL     1       3.022  28.086  48.536  1.00  0.00     0.029 A 
HETATM   11  C   UNL     1       1.994  27.933  47.598  1.00  0.00    -0.023 A 
HETATM   12  C   UNL     1       1.874  26.708  46.924  1.00  0.00     0.012 A 
HETATM   13  C   UNL     1       2.745  25.649  47.205  1.00  0.00     0.002 A 
HETATM   14  C   UNL     1       3.747  25.800  48.162  1.00  0.00     0.017 A 
BRANCH  11  15
HETATM   15  C   UNL     1       1.061  29.025  47.365  1.00  0.00    -0.002 A 
HETATM   16  C   UNL     1       0.914  30.121  48.193  1.00  0.00     0.153 A 
HETATM   17  O   UNL     1       0.001  30.991  47.688  1.00  0.00    -0.334 OA
HETATM   18  C   UNL     1      -0.442  30.463  46.521  1.00  0.00     0.142 A 
HETATM   19  C   UNL     1       0.177  29.261  46.272  1.00  0.00     0.038 A 
ENDBRANCH  11  15
ENDBRANCH   6   9
ENDBRANCH   2   5
BRANCH   1  20
HETATM   20  C   UNL     1       7.450  25.707  53.492  1.00  0.00     0.145 C 
BRANCH  20  21
HETATM   21  C   UNL     1       7.639  24.561  54.434  1.00  0.00    -0.021 A 
HETATM   22  C   UNL     1       7.803  23.156  54.169  1.00  0.00    -0.001 A 
HETATM   23  C   UNL     1       7.925  22.362  53.009  1.00  0.00     0.014 A 
HETATM   24  C   UNL     1       7.806  22.500  55.404  1.00  0.00     0.042 A 
HETATM   25  C   UNL     1       8.031  20.969  53.121  1.00  0.00     0.001 A 
HETATM   26  C   UNL     1       8.015  20.352  54.367  1.00  0.00     0.002 A 
HETATM   27  C   UNL     1       7.905  21.109  55.534  1.00  0.00     0.030 A 
HETATM   28  N   UNL     1       7.692  23.459  56.380  1.00  0.00    -0.365 N 
HETATM   29  H   UNL     1       7.668  23.266  57.372  1.00  0.00     0.165 HD
HETATM   30  C   UNL     1       7.585  24.696  55.812  1.00  0.00     0.097 A 
ENDBRANCH  20  21
ENDBRANCH   1  20
TORSDOF 5
ENDMDL
MODEL 6
REMARK VINA RESULT:      -9.5      6.282      9.878
REMARK  5 active torsions:
REMARK  status: ('A' for Active; 'I' for Inactive)
REMARK    1  A    between atoms: C_8  and  C_9 
REMARK    2  A    between atoms: C_9  and  C_10 
REMARK       I    between atoms: C_10  and  N_11 
REMARK    3  A    between atoms: N_11  and  N_12 
REMARK       I    between atoms: N_12  and  C_13 
REMARK    4  A    between atoms: C_13  and  C_14 
REMARK    5  A    between atoms: C_16  and  C_17 
ROOT
HETATM    1  C   UNL     1       4.949  28.838  52.050  1.00  0.00     0.240 C 
HETATM    2  N   UNL     1       4.172  27.922  52.737  1.00  0.00    -0.267 N 
HETATM    3  O   UNL     1       6.172  28.904  52.174  1.00  0.00    -0.272 OA
HETATM    4  H   UNL     1       3.173  28.077  52.874  1.00  0.00     0.190 HD
ENDROOT
BRANCH   2   5
HETATM    5  N   UNL     1       4.791  27.063  53.644  1.00  0.00    -0.263 N 
HETATM    6  C   UNL     1       5.182  25.814  53.210  1.00  0.00     0.270 C 
HETATM    7  O   UNL     1       4.940  25.373  52.091  1.00  0.00    -0.266 OA
HETATM    8  H   UNL     1       4.750  27.320  54.629  1.00  0.00     0.190 HD
BRANCH   6   9
HETATM    9  C   UNL     1       5.963  25.025  54.189  1.00  0.00     0.034 A 
HETATM   10  C   UNL     1       6.613  23.852  53.778  1.00  0.00     0.029 A 
HETATM   11  C   UNL     1       7.283  23.049  54.708  1.00  0.00    -0.023 A 
HETATM   12  C   UNL     1       7.315  23.456  56.050  1.00  0.00     0.012 A 
HETATM   13  C   UNL     1       6.663  24.626  56.459  1.00  0.00     0.002 A 
HETATM   14  C   UNL     1       5.972  25.404  55.532  1.00  0.00     0.017 A 
BRANCH  11  15
HETATM   15  C   UNL     1       7.903  21.806  54.274  1.00  0.00    -0.002 A 
HETATM   16  C   UNL     1       8.350  20.815  55.125  1.00  0.00     0.153 A 
HETATM   17  O   UNL     1       8.839  19.758  54.424  1.00  0.00    -0.334 OA
HETATM   18  C   UNL     1       8.700  20.060  53.110  1.00  0.00     0.142 A 
HETATM   19  C   UNL     1       8.129  21.302  52.961  1.00  0.00     0.038 A 
ENDBRANCH  11  15
ENDBRANCH   6   9
ENDBRANCH   2   5
BRANCH   1  20
HETATM   20  C   UNL     1       4.162  29.647  51.041  1.00  0.00     0.145 C 
BRANCH  20  21
HETATM   21  C   UNL     1       3.183  28.901  50.192  1.00  0.00    -0.021 A 
HETATM   22  C   UNL     1       3.395  27.837  49.246  1.00  0.00    -0.001 A 
HETATM   23  C   UNL     1       4.505  27.071  48.829  1.00  0.00     0.014 A 
HETATM   24  C   UNL     1       2.168  27.587  48.624  1.00  0.00     0.042 A 
HETATM   25  C   UNL     1       4.355  26.112  47.817  1.00  0.00     0.001 A 
HETATM   26  C   UNL     1       3.120  25.903  47.212  1.00  0.00     0.002 A 
HETATM   27  C   UNL     1       2.001  26.636  47.608  1.00  0.00     0.030 A 
HETATM   28  N   UNL     1       1.240  28.426  49.190  1.00  0.00    -0.365 N 
HETATM   29  H   UNL     1       0.265  28.460  48.930  1.00  0.00     0.165 HD
HETATM   30  C   UNL     1       1.837  29.222  50.126  1.00  0.00     0.097 A 
ENDBRANCH  20  21
ENDBRANCH   1  20
TORSDOF 5
ENDMDL
MODEL 7
REMARK VINA RESULT:      -9.4      2.452     10.152
REMARK  5 active torsions:
REMARK  status: ('A' for Active; 'I' for Inactive)
REMARK    1  A    between atoms: C_8  and  C_9 
REMARK    2  A    between atoms: C_9  and  C_10 
REMARK       I    between atoms: C_10  and  N_11 
REMARK    3  A    between atoms: N_11  and  N_12 
REMARK       I    between atoms: N_12  and  C_13 
REMARK    4  A    between atoms: C_13  and  C_14 
REMARK    5  A    between atoms: C_16  and  C_17 
ROOT
HETATM    1  C   UNL     1       5.573  29.566  56.557  1.00  0.00     0.240 C 
HETATM    2  N   UNL     1       5.766  28.224  56.840  1.00  0.00    -0.267 N 
HETATM    3  O   UNL     1       5.898  30.076  55.486  1.00  0.00    -0.272 OA
HETATM    4  H   UNL     1       5.794  27.888  57.802  1.00  0.00     0.190 HD
ENDROOT
BRANCH   2   5
HETATM    5  N   UNL     1       6.397  27.422  55.890  1.00  0.00    -0.263 N 
HETATM    6  C   UNL     1       6.077  26.082  55.839  1.00  0.00     0.270 C 
HETATM    7  O   UNL     1       5.333  25.526  56.641  1.00  0.00    -0.266 OA
HETATM    8  H   UNL     1       7.203  27.818  55.410  1.00  0.00     0.190 HD
BRANCH   6   9
HETATM    9  C   UNL     1       6.676  25.335  54.710  1.00  0.00     0.034 A 
HETATM   10  C   UNL     1       7.002  23.980  54.867  1.00  0.00     0.029 A 
HETATM   11  C   UNL     1       7.647  23.282  53.839  1.00  0.00    -0.023 A 
HETATM   12  C   UNL     1       7.933  23.958  52.642  1.00  0.00     0.012 A 
HETATM   13  C   UNL     1       7.609  25.311  52.489  1.00  0.00     0.002 A 
HETATM   14  C   UNL     1       6.994  26.007  53.529  1.00  0.00     0.017 A 
BRANCH  11  15
HETATM   15  C   UNL     1       8.030  21.893  54.040  1.00  0.00    -0.002 A 
HETATM   16  C   UNL     1       8.251  20.986  53.022  1.00  0.00     0.153 A 
HETATM   17  O   UNL     1       8.639  19.783  53.520  1.00  0.00    -0.334 OA
HETATM   18  C   UNL     1       8.678  19.910  54.870  1.00  0.00     0.142 A 
HETATM   19  C   UNL     1       8.318  21.184  55.242  1.00  0.00     0.038 A 
ENDBRANCH  11  15
ENDBRANCH   6   9
ENDBRANCH   2   5
BRANCH   1  20
HETATM   20  C   UNL     1       4.805  30.295  57.638  1.00  0.00     0.145 C 
BRANCH  20  21
HETATM   21  C   UNL     1       5.586  31.220  58.516  1.00  0.00    -0.021 A 
HETATM   22  C   UNL     1       6.993  31.251  58.815  1.00  0.00    -0.001 A 
HETATM   23  C   UNL     1       8.128  30.537  58.375  1.00  0.00     0.014 A 
HETATM   24  C   UNL     1       7.186  32.227  59.797  1.00  0.00     0.042 A 
HETATM   25  C   UNL     1       9.387  30.808  58.929  1.00  0.00     0.001 A 
HETATM   26  C   UNL     1       9.535  31.778  59.916  1.00  0.00     0.002 A 
HETATM   27  C   UNL     1       8.435  32.509  60.366  1.00  0.00     0.030 A 
HETATM   28  N   UNL     1       5.963  32.796  60.058  1.00  0.00    -0.365 N 
HETATM   29  H   UNL     1       5.807  33.534  60.730  1.00  0.00     0.165 HD
HETATM   30  C   UNL     1       4.997  32.197  59.302  1.00  0.00     0.097 A 
ENDBRANCH  20  21
ENDBRANCH   1  20
TORSDOF 5
ENDMDL
MODEL 8
REMARK VINA RESULT:      -9.2      5.697      9.042
REMARK  5 active torsions:
REMARK  status: ('A' for Active; 'I' for Inactive)
REMARK    1  A    between atoms: C_8  and  C_9 
REMARK    2  A    between atoms: C_9  and  C_10 
REMARK       I    between atoms: C_10  and  N_11 
REMARK    3  A    between atoms: N_11  and  N_12 
REMARK       I    between atoms: N_12  and  C_13 
REMARK    4  A    between atoms: C_13  and  C_14 
REMARK    5  A    between atoms: C_16  and  C_17 
ROOT
HETATM    1  C   UNL     1       7.023  25.774  55.645  1.00  0.00     0.240 C 
HETATM    2  N   UNL     1       7.491  26.755  54.788  1.00  0.00    -0.267 N 
HETATM    3  O   UNL     1       5.841  25.436  55.690  1.00  0.00    -0.272 OA
HETATM    4  H   UNL     1       8.369  27.240  54.973  1.00  0.00     0.190 HD
ENDROOT
BRANCH   2   5
HETATM    5  N   UNL     1       6.581  27.422  53.969  1.00  0.00    -0.263 N 
HETATM    6  C   UNL     1       6.409  26.981  52.675  1.00  0.00     0.270 C 
HETATM    7  O   UNL     1       7.076  26.086  52.164  1.00  0.00    -0.266 OA
HETATM    8  H   UNL     1       6.231  28.320  54.300  1.00  0.00     0.190 HD
BRANCH   6   9
HETATM    9  C   UNL     1       5.321  27.646  51.923  1.00  0.00     0.034 A 
HETATM   10  C   UNL     1       4.836  27.066  50.742  1.00  0.00     0.029 A 
HETATM   11  C   UNL     1       3.868  27.724  49.974  1.00  0.00    -0.023 A 
HETATM   12  C   UNL     1       3.374  28.957  50.426  1.00  0.00     0.012 A 
HETATM   13  C   UNL     1       3.861  29.535  51.605  1.00  0.00     0.002 A 
HETATM   14  C   UNL     1       4.847  28.888  52.347  1.00  0.00     0.017 A 
BRANCH  11  15
HETATM   15  C   UNL     1       3.419  27.136  48.721  1.00  0.00    -0.002 A 
HETATM   16  C   UNL     1       4.209  26.369  47.888  1.00  0.00     0.153 A 
HETATM   17  O   UNL     1       3.498  25.924  46.819  1.00  0.00    -0.334 OA
HETATM   18  C   UNL     1       2.235  26.399  46.961  1.00  0.00     0.142 A 
HETATM   19  C   UNL     1       2.131  27.145  48.112  1.00  0.00     0.038 A 
ENDBRANCH  11  15
ENDBRANCH   6   9
ENDBRANCH   2   5
BRANCH   1  20
HETATM   20  C   UNL     1       8.127  25.078  56.411  1.00  0.00     0.145 C 
BRANCH  20  21
HETATM   21  C   UNL     1       8.244  23.598  56.233  1.00  0.00    -0.021 A 
HETATM   22  C   UNL     1       8.161  22.795  55.042  1.00  0.00    -0.001 A 
HETATM   23  C   UNL     1       8.029  23.059  53.661  1.00  0.00     0.014 A 
HETATM   24  C   UNL     1       8.203  21.456  55.441  1.00  0.00     0.042 A 
HETATM   25  C   UNL     1       7.933  21.998  52.750  1.00  0.00     0.001 A 
HETATM   26  C   UNL     1       7.963  20.679  53.189  1.00  0.00     0.002 A 
HETATM   27  C   UNL     1       8.103  20.383  54.546  1.00  0.00     0.030 A 
HETATM   28  N   UNL     1       8.347  21.439  56.807  1.00  0.00    -0.365 N 
HETATM   29  H   UNL     1       8.406  20.599  57.365  1.00  0.00     0.165 HD
HETATM   30  C   UNL     1       8.367  22.714  57.293  1.00  0.00     0.097 A 
ENDBRANCH  20  21
ENDBRANCH   1  20
TORSDOF 5
ENDMDL
MODEL 9
REMARK VINA RESULT:      -9.2      2.412      4.538
REMARK  5 active torsions:
REMARK  status: ('A' for Active; 'I' for Inactive)
REMARK    1  A    between atoms: C_8  and  C_9 
REMARK    2  A    between atoms: C_9  and  C_10 
REMARK       I    between atoms: C_10  and  N_11 
REMARK    3  A    between atoms: N_11  and  N_12 
REMARK       I    between atoms: N_12  and  C_13 
REMARK    4  A    between atoms: C_13  and  C_14 
REMARK    5  A    between atoms: C_16  and  C_17 
ROOT
HETATM    1  C   UNL     1       7.709  29.661  58.355  1.00  0.00     0.240 C 
HETATM    2  N   UNL     1       8.322  29.951  59.562  1.00  0.00    -0.267 N 
HETATM    3  O   UNL     1       6.632  30.153  58.018  1.00  0.00    -0.272 OA
HETATM    4  H   UNL     1       9.019  29.323  59.962  1.00  0.00     0.190 HD
ENDROOT
BRANCH   2   5
HETATM    5  N   UNL     1       7.676  30.802  60.457  1.00  0.00    -0.263 N 
HETATM    6  C   UNL     1       8.372  31.259  61.556  1.00  0.00     0.270 C 
HETATM    7  O   UNL     1       9.506  30.891  61.847  1.00  0.00    -0.266 OA
HETATM    8  H   UNL     1       6.665  30.892  60.364  1.00  0.00     0.190 HD
BRANCH   6   9
HETATM    9  C   UNL     1       7.665  32.272  62.371  1.00  0.00     0.034 A 
HETATM   10  C   UNL     1       6.684  33.080  61.778  1.00  0.00     0.029 A 
HETATM   11  C   UNL     1       6.067  34.101  62.512  1.00  0.00    -0.023 A 
HETATM   12  C   UNL     1       6.429  34.277  63.856  1.00  0.00     0.012 A 
HETATM   13  C   UNL     1       7.410  33.470  64.445  1.00  0.00     0.002 A 
HETATM   14  C   UNL     1       8.042  32.477  63.699  1.00  0.00     0.017 A 
BRANCH  11  15
HETATM   15  C   UNL     1       5.094  34.967  61.865  1.00  0.00    -0.002 A 
HETATM   16  C   UNL     1       4.474  34.690  60.662  1.00  0.00     0.153 A 
HETATM   17  O   UNL     1       3.584  35.664  60.339  1.00  0.00    -0.334 OA
HETATM   18  C   UNL     1       3.619  36.577  61.340  1.00  0.00     0.142 A 
HETATM   19  C   UNL     1       4.525  36.198  62.303  1.00  0.00     0.038 A 
ENDBRANCH  11  15
ENDBRANCH   6   9
ENDBRANCH   2   5
BRANCH   1  20
HETATM   20  C   UNL     1       8.557  28.795  57.450  1.00  0.00     0.145 C 
BRANCH  20  21
HETATM   21  C   UNL     1       7.837  27.809  56.587  1.00  0.00    -0.021 A 
HETATM   22  C   UNL     1       7.851  26.370  56.608  1.00  0.00    -0.001 A 
HETATM   23  C   UNL     1       8.434  25.385  57.432  1.00  0.00     0.014 A 
HETATM   24  C   UNL     1       7.112  25.934  55.504  1.00  0.00     0.042 A 
HETATM   25  C   UNL     1       8.272  24.027  57.125  1.00  0.00     0.001 A 
HETATM   26  C   UNL     1       7.541  23.633  56.008  1.00  0.00     0.002 A 
HETATM   27  C   UNL     1       6.943  24.582  55.178  1.00  0.00     0.030 A 
HETATM   28  N   UNL     1       6.633  27.049  54.862  1.00  0.00    -0.365 N 
HETATM   29  H   UNL     1       6.062  27.029  54.028  1.00  0.00     0.165 HD
HETATM   30  C   UNL     1       7.065  28.178  55.497  1.00  0.00     0.097 A 
ENDBRANCH  20  21
ENDBRANCH   1  20
TORSDOF 5
ENDMDL
MODEL 10
REMARK VINA RESULT:      -9.2      7.037     10.800
REMARK  5 active torsions:
REMARK  status: ('A' for Active; 'I' for Inactive)
REMARK    1  A    between atoms: C_8  and  C_9 
REMARK    2  A    between atoms: C_9  and  C_10 
REMARK       I    between atoms: C_10  and  N_11 
REMARK    3  A    between atoms: N_11  and  N_12 
REMARK       I    between atoms: N_12  and  C_13 
REMARK    4  A    between atoms: C_13  and  C_14 
REMARK    5  A    between atoms: C_16  and  C_17 
ROOT
HETATM    1  C   UNL     1       6.656  25.940  51.914  1.00  0.00     0.240 C 
HETATM    2  N   UNL     1       5.652  25.660  51.003  1.00  0.00    -0.267 N 
HETATM    3  O   UNL     1       6.686  26.977  52.576  1.00  0.00    -0.272 OA
HETATM    4  H   UNL     1       5.795  24.983  50.254  1.00  0.00     0.190 HD
ENDROOT
BRANCH   2   5
HETATM    5  N   UNL     1       4.654  26.610  50.790  1.00  0.00    -0.263 N 
HETATM    6  C   UNL     1       4.402  27.027  49.501  1.00  0.00     0.270 C 
HETATM    7  O   UNL     1       5.064  26.679  48.528  1.00  0.00    -0.266 OA
HETATM    8  H   UNL     1       4.292  27.094  51.610  1.00  0.00     0.190 HD
BRANCH   6   9
HETATM    9  C   UNL     1       3.231  27.920  49.347  1.00  0.00     0.034 A 
HETATM   10  C   UNL     1       2.395  27.784  48.229  1.00  0.00     0.029 A 
HETATM   11  C   UNL     1       1.334  28.675  48.024  1.00  0.00    -0.023 A 
HETATM   12  C   UNL     1       1.110  29.685  48.973  1.00  0.00     0.012 A 
HETATM   13  C   UNL     1       1.948  29.820  50.087  1.00  0.00     0.002 A 
HETATM   14  C   UNL     1       3.020  28.948  50.267  1.00  0.00     0.017 A 
BRANCH  11  15
HETATM   15  C   UNL     1       0.512  28.556  46.830  1.00  0.00    -0.002 A 
HETATM   16  C   UNL     1      -0.024  29.624  46.137  1.00  0.00     0.153 A 
HETATM   17  O   UNL     1      -0.705  29.199  45.041  1.00  0.00    -0.334 OA
HETATM   18  C   UNL     1      -0.605  27.847  45.016  1.00  0.00     0.142 A 
HETATM   19  C   UNL     1       0.133  27.400  46.087  1.00  0.00     0.038 A 
ENDBRANCH  11  15
ENDBRANCH   6   9
ENDBRANCH   2   5
BRANCH   1  20
HETATM   20  C   UNL     1       7.622  24.791  52.105  1.00  0.00     0.145 C 
BRANCH  20  21
HETATM   21  C   UNL     1       7.578  24.082  53.421  1.00  0.00    -0.021 A 
HETATM   22  C   UNL     1       7.867  22.711  53.749  1.00  0.00    -0.001 A 
HETATM   23  C   UNL     1       8.348  21.590  53.039  1.00  0.00     0.014 A 
HETATM   24  C   UNL     1       7.541  22.530  55.097  1.00  0.00     0.042 A 
HETATM   25  C   UNL     1       8.473  20.352  53.684  1.00  0.00     0.001 A 
HETATM   26  C   UNL     1       8.123  20.209  55.023  1.00  0.00     0.002 A 
HETATM   27  C   UNL     1       7.653  21.299  55.756  1.00  0.00     0.030 A 
HETATM   28  N   UNL     1       7.113  23.741  55.582  1.00  0.00    -0.365 N 
HETATM   29  H   UNL     1       6.813  23.902  56.534  1.00  0.00     0.165 HD
HETATM   30  C   UNL     1       7.125  24.677  54.588  1.00  0.00     0.097 A 
ENDBRANCH  20  21
ENDBRANCH   1  20
TORSDOF 5
ENDMDL
