MODEL 1
REMARK VINA RESULT:      -8.1      0.000      0.000
REMARK  2 active torsions:
REMARK  status: ('A' for Active; 'I' for Inactive)
REMARK    1  A    between atoms: C_6  and  N_7 
REMARK       I    between atoms: N_7  and  C_8 
REMARK       I    between atoms: C_8  and  N_9 
REMARK    2  A    between atoms: N_9  and  C_10 
ROOT
HETATM    1  N   UNL     1       6.889  27.733  56.980  1.00  0.00    -0.306 N 
HETATM    2  C   UNL     1       6.663  26.427  56.677  1.00  0.00     0.321 C 
HETATM    3  N   UNL     1       7.656  25.715  56.082  1.00  0.00    -0.338 N 
HETATM    4  O   UNL     1       5.628  25.895  57.075  1.00  0.00    -0.247 OA
HETATM    5  H   UNL     1       6.202  28.050  57.656  1.00  0.00     0.171 HD
HETATM    6  H   UNL     1       8.250  26.235  55.453  1.00  0.00     0.164 HD
ENDROOT
BRANCH   3   7
HETATM    7  C   UNL     1       7.582  24.278  55.846  1.00  0.00     0.092 C 
HETATM    8  C   UNL     1       7.722  23.934  54.335  1.00  0.00     0.084 C 
HETATM    9  C   UNL     1       7.890  22.479  54.180  1.00  0.00     0.034 A 
HETATM   10  C   UNL     1       8.197  21.594  55.188  1.00  0.00     0.033 A 
HETATM   11  N   UNL     1       7.807  21.732  53.023  1.00  0.00    -0.354 N 
HETATM   12  N   UNL     1       8.276  20.351  54.597  1.00  0.00    -0.354 N 
HETATM   13  C   UNL     1       8.368  21.941  56.612  1.00  0.00     0.061 C 
HETATM   14  H   UNL     1       8.490  19.481  55.082  1.00  0.00     0.166 HD
HETATM   15  C   UNL     1       8.049  20.443  53.282  1.00  0.00     0.180 A 
HETATM   16  C   UNL     1       8.556  23.467  56.750  1.00  0.00     0.031 C 
HETATM   17  H   UNL     1       7.611  22.106  52.096  1.00  0.00     0.166 HD
ENDBRANCH   3   7
BRANCH   1  18
HETATM   18  C   UNL     1       8.017  28.566  56.801  1.00  0.00     0.077 A 
HETATM   19  C   UNL     1       8.702  28.852  55.616  1.00  0.00     0.152 A 
HETATM   20  N   UNL     1       9.819  29.613  55.537  1.00  0.00    -0.247 NA
HETATM   21 CL   UNL     1       8.126  28.425  54.047  1.00  0.00    -0.060 Cl
HETATM   22  C   UNL     1      10.265  30.163  56.683  1.00  0.00     0.118 A 
HETATM   23  C   UNL     1       9.632  30.003  57.901  1.00  0.00     0.022 A 
HETATM   24  C   UNL     1       8.490  29.206  57.954  1.00  0.00     0.034 A 
ENDBRANCH   1  18
TORSDOF 2
ENDMDL
MODEL 2
REMARK VINA RESULT:      -8.1      5.833     10.147
REMARK  2 active torsions:
REMARK  status: ('A' for Active; 'I' for Inactive)
REMARK    1  A    between atoms: C_6  and  N_7 
REMARK       I    between atoms: N_7  and  C_8 
REMARK       I    between atoms: C_8  and  N_9 
REMARK    2  A    between atoms: N_9  and  C_10 
ROOT
HETATM    1  N   UNL     1       6.461  31.183  57.973  1.00  0.00    -0.306 N 
HETATM    2  C   UNL     1       6.305  31.951  59.085  1.00  0.00     0.321 C 
HETATM    3  N   UNL     1       6.679  31.438  60.287  1.00  0.00    -0.338 N 
HETATM    4  O   UNL     1       5.966  33.126  58.953  1.00  0.00    -0.247 OA
HETATM    5  H   UNL     1       6.419  31.770  57.146  1.00  0.00     0.171 HD
HETATM    6  H   UNL     1       6.554  30.442  60.395  1.00  0.00     0.164 HD
ENDROOT
BRANCH   3   7
HETATM    7  C   UNL     1       6.696  32.216  61.519  1.00  0.00     0.092 C 
HETATM    8  C   UNL     1       5.311  32.201  62.230  1.00  0.00     0.084 C 
HETATM    9  C   UNL     1       5.447  32.784  63.576  1.00  0.00     0.034 A 
HETATM   10  C   UNL     1       6.633  33.010  64.236  1.00  0.00     0.033 A 
HETATM   11  N   UNL     1       4.444  33.180  64.436  1.00  0.00    -0.354 N 
HETATM   12  N   UNL     1       6.295  33.543  65.462  1.00  0.00    -0.354 N 
HETATM   13  C   UNL     1       7.981  32.752  63.694  1.00  0.00     0.061 C 
HETATM   14  H   UNL     1       6.954  33.818  66.187  1.00  0.00     0.166 HD
HETATM   15  C   UNL     1       4.965  33.633  65.581  1.00  0.00     0.180 A 
HETATM   16  C   UNL     1       7.870  31.826  62.463  1.00  0.00     0.031 C 
HETATM   17  H   UNL     1       3.446  33.119  64.242  1.00  0.00     0.166 HD
ENDBRANCH   3   7
BRANCH   1  18
HETATM   18  C   UNL     1       6.970  29.878  57.786  1.00  0.00     0.077 A 
HETATM   19  C   UNL     1       8.294  29.443  57.888  1.00  0.00     0.152 A 
HETATM   20  N   UNL     1       8.712  28.182  57.629  1.00  0.00    -0.247 NA
HETATM   21 CL   UNL     1       9.573  30.403  58.533  1.00  0.00    -0.060 Cl
HETATM   22  C   UNL     1       7.768  27.282  57.293  1.00  0.00     0.118 A 
HETATM   23  C   UNL     1       6.420  27.583  57.225  1.00  0.00     0.022 A 
HETATM   24  C   UNL     1       6.020  28.892  57.487  1.00  0.00     0.034 A 
ENDBRANCH   1  18
TORSDOF 2
ENDMDL
MODEL 3
REMARK VINA RESULT:      -7.8      2.470      7.448
REMARK  2 active torsions:
REMARK  status: ('A' for Active; 'I' for Inactive)
REMARK    1  A    between atoms: C_6  and  N_7 
REMARK       I    between atoms: N_7  and  C_8 
REMARK       I    between atoms: C_8  and  N_9 
REMARK    2  A    between atoms: N_9  and  C_10 
ROOT
HETATM    1  N   UNL     1       6.411  26.699  54.205  1.00  0.00    -0.306 N 
HETATM    2  C   UNL     1       6.708  27.816  54.922  1.00  0.00     0.321 C 
HETATM    3  N   UNL     1       7.617  27.721  55.928  1.00  0.00    -0.338 N 
HETATM    4  O   UNL     1       6.255  28.898  54.551  1.00  0.00    -0.247 OA
HETATM    5  H   UNL     1       5.959  26.963  53.336  1.00  0.00     0.171 HD
HETATM    6  H   UNL     1       7.631  26.841  56.422  1.00  0.00     0.164 HD
ENDROOT
BRANCH   3   7
HETATM    7  C   UNL     1       8.120  28.873  56.664  1.00  0.00     0.092 C 
HETATM    8  C   UNL     1       7.479  28.980  58.078  1.00  0.00     0.084 C 
HETATM    9  C   UNL     1       8.196  29.999  58.864  1.00  0.00     0.034 A 
HETATM   10  C   UNL     1       9.419  30.544  58.546  1.00  0.00     0.033 A 
HETATM   11  N   UNL     1       7.815  30.575  60.058  1.00  0.00    -0.354 N 
HETATM   12  N   UNL     1       9.718  31.433  59.557  1.00  0.00    -0.354 N 
HETATM   13  C   UNL     1      10.207  30.237  57.337  1.00  0.00     0.061 C 
HETATM   14  H   UNL     1      10.562  31.999  59.613  1.00  0.00     0.166 HD
HETATM   15  C   UNL     1       8.746  31.439  60.476  1.00  0.00     0.180 A 
HETATM   16  C   UNL     1       9.676  28.939  56.693  1.00  0.00     0.031 C 
HETATM   17  H   UNL     1       6.958  30.362  60.565  1.00  0.00     0.166 HD
ENDBRANCH   3   7
BRANCH   1  18
HETATM   18  C   UNL     1       6.883  25.369  54.283  1.00  0.00     0.077 A 
HETATM   19  C   UNL     1       6.815  24.490  55.366  1.00  0.00     0.152 A 
HETATM   20  N   UNL     1       7.350  23.247  55.384  1.00  0.00    -0.247 NA
HETATM   21 CL   UNL     1       5.882  24.786  56.787  1.00  0.00    -0.060 Cl
HETATM   22  C   UNL     1       7.950  22.824  54.254  1.00  0.00     0.118 A 
HETATM   23  C   UNL     1       8.019  23.582  53.100  1.00  0.00     0.022 A 
HETATM   24  C   UNL     1       7.468  24.862  53.115  1.00  0.00     0.034 A 
ENDBRANCH   1  18
TORSDOF 2
ENDMDL
MODEL 4
REMARK VINA RESULT:      -7.7      2.746      7.175
REMARK  2 active torsions:
REMARK  status: ('A' for Active; 'I' for Inactive)
REMARK    1  A    between atoms: C_6  and  N_7 
REMARK       I    between atoms: N_7  and  C_8 
REMARK       I    between atoms: C_8  and  N_9 
REMARK    2  A    between atoms: N_9  and  C_10 
ROOT
HETATM    1  N   UNL     1       8.063  23.463  53.750  1.00  0.00    -0.306 N 
HETATM    2  C   UNL     1       7.718  24.739  54.070  1.00  0.00     0.321 C 
HETATM    3  N   UNL     1       7.461  25.037  55.371  1.00  0.00    -0.338 N 
HETATM    4  O   UNL     1       7.788  25.609  53.203  1.00  0.00    -0.247 OA
HETATM    5  H   UNL     1       8.494  23.447  52.832  1.00  0.00     0.171 HD
HETATM    6  H   UNL     1       7.038  24.297  55.913  1.00  0.00     0.164 HD
ENDROOT
BRANCH   3   7
HETATM    7  C   UNL     1       7.227  26.393  55.851  1.00  0.00     0.092 C 
HETATM    8  C   UNL     1       5.708  26.716  55.952  1.00  0.00     0.084 C 
HETATM    9  C   UNL     1       5.526  27.989  56.670  1.00  0.00     0.034 A 
HETATM   10  C   UNL     1       6.488  28.636  57.413  1.00  0.00     0.033 A 
HETATM   11  N   UNL     1       4.383  28.754  56.767  1.00  0.00    -0.354 N 
HETATM   12  N   UNL     1       5.885  29.769  57.917  1.00  0.00    -0.354 N 
HETATM   13  C   UNL     1       7.884  28.192  57.584  1.00  0.00     0.061 C 
HETATM   14  H   UNL     1       6.336  30.461  58.512  1.00  0.00     0.166 HD
HETATM   15  C   UNL     1       4.606  29.829  57.530  1.00  0.00     0.180 A 
HETATM   16  C   UNL     1       8.007  26.712  57.160  1.00  0.00     0.031 C 
HETATM   17  H   UNL     1       3.487  28.528  56.338  1.00  0.00     0.166 HD
ENDBRANCH   3   7
BRANCH   1  18
HETATM   18  C   UNL     1       8.228  22.300  54.536  1.00  0.00     0.077 A 
HETATM   19  C   UNL     1       8.263  20.969  54.113  1.00  0.00     0.152 A 
HETATM   20  N   UNL     1       8.361  19.901  54.939  1.00  0.00    -0.247 NA
HETATM   21 CL   UNL     1       8.368  20.488  52.460  1.00  0.00    -0.060 Cl
HETATM   22  C   UNL     1       8.476  20.157  56.257  1.00  0.00     0.118 A 
HETATM   23  C   UNL     1       8.519  21.434  56.783  1.00  0.00     0.022 A 
HETATM   24  C   UNL     1       8.406  22.514  55.909  1.00  0.00     0.034 A 
ENDBRANCH   1  18
TORSDOF 2
ENDMDL
MODEL 5
REMARK VINA RESULT:      -7.6      5.068      6.466
REMARK  2 active torsions:
REMARK  status: ('A' for Active; 'I' for Inactive)
REMARK    1  A    between atoms: C_6  and  N_7 
REMARK       I    between atoms: N_7  and  C_8 
REMARK       I    between atoms: C_8  and  N_9 
REMARK    2  A    between atoms: N_9  and  C_10 
ROOT
HETATM    1  N   UNL     1       4.334  26.039  50.843  1.00  0.00    -0.306 N 
HETATM    2  C   UNL     1       5.096  25.415  51.780  1.00  0.00     0.321 C 
HETATM    3  N   UNL     1       6.446  25.410  51.623  1.00  0.00    -0.338 N 
HETATM    4  O   UNL     1       4.557  25.002  52.805  1.00  0.00    -0.247 OA
HETATM    5  H   UNL     1       3.408  26.214  51.218  1.00  0.00     0.171 HD
HETATM    6  H   UNL     1       6.775  25.378  50.669  1.00  0.00     0.164 HD
ENDROOT
BRANCH   3   7
HETATM    7  C   UNL     1       7.368  24.904  52.632  1.00  0.00     0.092 C 
HETATM    8  C   UNL     1       7.098  25.534  54.029  1.00  0.00     0.084 C 
HETATM    9  C   UNL     1       7.880  24.815  55.049  1.00  0.00     0.034 A 
HETATM   10  C   UNL     1       8.495  23.595  54.876  1.00  0.00     0.033 A 
HETATM   11  N   UNL     1       8.122  25.188  56.354  1.00  0.00    -0.354 N 
HETATM   12  N   UNL     1       9.090  23.291  56.082  1.00  0.00    -0.354 N 
HETATM   13  C   UNL     1       8.518  22.815  53.624  1.00  0.00     0.061 C 
HETATM   14  H   UNL     1       9.626  22.448  56.279  1.00  0.00     0.166 HD
HETATM   15  C   UNL     1       8.851  24.257  56.977  1.00  0.00     0.180 A 
HETATM   16  C   UNL     1       7.431  23.348  52.667  1.00  0.00     0.031 C 
HETATM   17  H   UNL     1       7.779  26.040  56.794  1.00  0.00     0.166 HD
ENDBRANCH   3   7
BRANCH   1  18
HETATM   18  C   UNL     1       4.668  26.737  49.660  1.00  0.00     0.077 A 
HETATM   19  C   UNL     1       4.415  26.367  48.337  1.00  0.00     0.152 A 
HETATM   20  N   UNL     1       4.826  27.062  47.250  1.00  0.00    -0.247 NA
HETATM   21 CL   UNL     1       3.384  25.059  47.885  1.00  0.00    -0.060 Cl
HETATM   22  C   UNL     1       5.487  28.214  47.477  1.00  0.00     0.118 A 
HETATM   23  C   UNL     1       5.737  28.711  48.742  1.00  0.00     0.022 A 
HETATM   24  C   UNL     1       5.311  27.969  49.842  1.00  0.00     0.034 A 
ENDBRANCH   1  18
TORSDOF 2
ENDMDL
MODEL 6
REMARK VINA RESULT:      -7.5      4.011      7.171
REMARK  2 active torsions:
REMARK  status: ('A' for Active; 'I' for Inactive)
REMARK    1  A    between atoms: C_6  and  N_7 
REMARK       I    between atoms: N_7  and  C_8 
REMARK       I    between atoms: C_8  and  N_9 
REMARK    2  A    between atoms: N_9  and  C_10 
ROOT
HETATM    1  N   UNL     1       8.551  23.558  53.287  1.00  0.00    -0.306 N 
HETATM    2  C   UNL     1       7.867  24.692  52.975  1.00  0.00     0.321 C 
HETATM    3  N   UNL     1       6.812  25.051  53.753  1.00  0.00    -0.338 N 
HETATM    4  O   UNL     1       8.307  25.427  52.092  1.00  0.00    -0.247 OA
HETATM    5  H   UNL     1       9.453  23.567  52.823  1.00  0.00     0.171 HD
HETATM    6  H   UNL     1       6.280  24.288  54.147  1.00  0.00     0.164 HD
ENDROOT
BRANCH   3   7
HETATM    7  C   UNL     1       6.100  26.314  53.605  1.00  0.00     0.092 C 
HETATM    8  C   UNL     1       5.194  26.321  52.340  1.00  0.00     0.084 C 
HETATM    9  C   UNL     1       4.319  27.505  52.373  1.00  0.00     0.034 A 
HETATM   10  C   UNL     1       4.092  28.305  53.470  1.00  0.00     0.033 A 
HETATM   11  N   UNL     1       3.548  28.021  51.352  1.00  0.00    -0.354 N 
HETATM   12  N   UNL     1       3.201  29.275  53.060  1.00  0.00    -0.354 N 
HETATM   13  C   UNL     1       4.721  28.144  54.794  1.00  0.00     0.061 C 
HETATM   14  H   UNL     1       2.833  30.021  53.646  1.00  0.00     0.166 HD
HETATM   15  C   UNL     1       2.867  29.090  51.778  1.00  0.00     0.180 A 
HETATM   16  C   UNL     1       5.345  26.736  54.899  1.00  0.00     0.031 C 
HETATM   17  H   UNL     1       3.484  27.635  50.412  1.00  0.00     0.166 HD
ENDBRANCH   3   7
BRANCH   1  18
HETATM   18  C   UNL     1       8.391  22.610  54.322  1.00  0.00     0.077 A 
HETATM   19  C   UNL     1       8.065  21.256  54.212  1.00  0.00     0.152 A 
HETATM   20  N   UNL     1       7.866  20.423  55.260  1.00  0.00    -0.247 NA
HETATM   21 CL   UNL     1       8.038  20.392  52.718  1.00  0.00    -0.060 Cl
HETATM   22  C   UNL     1       8.043  20.940  56.492  1.00  0.00     0.118 A 
HETATM   23  C   UNL     1       8.430  22.247  56.720  1.00  0.00     0.022 A 
HETATM   24  C   UNL     1       8.617  23.084  55.621  1.00  0.00     0.034 A 
ENDBRANCH   1  18
TORSDOF 2
ENDMDL
MODEL 7
REMARK VINA RESULT:      -7.4      3.369      5.061
REMARK  2 active torsions:
REMARK  status: ('A' for Active; 'I' for Inactive)
REMARK    1  A    between atoms: C_6  and  N_7 
REMARK       I    between atoms: N_7  and  C_8 
REMARK       I    between atoms: C_8  and  N_9 
REMARK    2  A    between atoms: N_9  and  C_10 
ROOT
HETATM    1  N   UNL     1       9.589  30.947  58.871  1.00  0.00    -0.306 N 
HETATM    2  C   UNL     1       9.585  30.036  57.862  1.00  0.00     0.321 C 
HETATM    3  N   UNL     1       8.628  29.070  57.860  1.00  0.00    -0.338 N 
HETATM    4  O   UNL     1      10.352  30.196  56.914  1.00  0.00    -0.247 OA
HETATM    5  H   UNL     1      10.150  31.749  58.604  1.00  0.00     0.171 HD
HETATM    6  H   UNL     1       8.330  28.749  58.770  1.00  0.00     0.164 HD
ENDROOT
BRANCH   3   7
HETATM    7  C   UNL     1       8.435  28.136  56.759  1.00  0.00     0.092 C 
HETATM    8  C   UNL     1       7.922  26.754  57.258  1.00  0.00     0.084 C 
HETATM    9  C   UNL     1       7.509  25.939  56.102  1.00  0.00     0.034 A 
HETATM   10  C   UNL     1       7.300  26.407  54.825  1.00  0.00     0.033 A 
HETATM   11  N   UNL     1       7.228  24.589  56.071  1.00  0.00    -0.354 N 
HETATM   12  N   UNL     1       6.910  25.316  54.076  1.00  0.00    -0.354 N 
HETATM   13  C   UNL     1       7.495  27.799  54.377  1.00  0.00     0.061 C 
HETATM   14  H   UNL     1       6.679  25.335  53.085  1.00  0.00     0.166 HD
HETATM   15  C   UNL     1       6.859  24.220  54.840  1.00  0.00     0.180 A 
HETATM   16  C   UNL     1       7.570  28.728  55.608  1.00  0.00     0.031 C 
HETATM   17  H   UNL     1       7.272  23.962  56.872  1.00  0.00     0.166 HD
ENDBRANCH   3   7
BRANCH   1  18
HETATM   18  C   UNL     1       8.750  31.120  59.995  1.00  0.00     0.077 A 
HETATM   19  C   UNL     1       7.454  31.641  60.033  1.00  0.00     0.152 A 
HETATM   20  N   UNL     1       6.735  31.836  61.164  1.00  0.00    -0.247 NA
HETATM   21 CL   UNL     1       6.500  31.950  58.630  1.00  0.00    -0.060 Cl
HETATM   22  C   UNL     1       7.306  31.455  62.324  1.00  0.00     0.118 A 
HETATM   23  C   UNL     1       8.555  30.868  62.400  1.00  0.00     0.022 A 
HETATM   24  C   UNL     1       9.276  30.690  61.220  1.00  0.00     0.034 A 
ENDBRANCH   1  18
TORSDOF 2
ENDMDL
MODEL 8
REMARK VINA RESULT:      -7.4      2.938      7.444
REMARK  2 active torsions:
REMARK  status: ('A' for Active; 'I' for Inactive)
REMARK    1  A    between atoms: C_6  and  N_7 
REMARK       I    between atoms: N_7  and  C_8 
REMARK       I    between atoms: C_8  and  N_9 
REMARK    2  A    between atoms: N_9  and  C_10 
ROOT
HETATM    1  N   UNL     1       7.500  25.762  55.743  1.00  0.00    -0.306 N 
HETATM    2  C   UNL     1       7.984  26.746  56.547  1.00  0.00     0.321 C 
HETATM    3  N   UNL     1       8.089  28.005  56.046  1.00  0.00    -0.338 N 
HETATM    4  O   UNL     1       8.177  26.499  57.737  1.00  0.00    -0.247 OA
HETATM    5  H   UNL     1       7.212  24.971  56.308  1.00  0.00     0.171 HD
HETATM    6  H   UNL     1       8.310  28.066  55.062  1.00  0.00     0.164 HD
ENDROOT
BRANCH   3   7
HETATM    7  C   UNL     1       8.453  29.162  56.854  1.00  0.00     0.092 C 
HETATM    8  C   UNL     1       7.685  29.185  58.207  1.00  0.00     0.084 C 
HETATM    9  C   UNL     1       8.264  30.220  59.080  1.00  0.00     0.034 A 
HETATM   10  C   UNL     1       9.474  30.848  58.887  1.00  0.00     0.033 A 
HETATM   11  N   UNL     1       7.744  30.735  60.249  1.00  0.00    -0.354 N 
HETATM   12  N   UNL     1       9.626  31.721  59.943  1.00  0.00    -0.354 N 
HETATM   13  C   UNL     1      10.383  30.627  57.746  1.00  0.00     0.061 C 
HETATM   14  H   UNL     1      10.425  32.335  60.089  1.00  0.00     0.166 HD
HETATM   15  C   UNL     1       8.579  31.640  60.771  1.00  0.00     0.180 A 
HETATM   16  C   UNL     1       9.992  29.320  57.024  1.00  0.00     0.031 C 
HETATM   17  H   UNL     1       6.861  30.454  60.672  1.00  0.00     0.166 HD
ENDBRANCH   3   7
BRANCH   1  18
HETATM   18  C   UNL     1       7.046  25.770  54.404  1.00  0.00     0.077 A 
HETATM   19  C   UNL     1       5.888  26.357  53.888  1.00  0.00     0.152 A 
HETATM   20  N   UNL     1       5.487  26.265  52.598  1.00  0.00    -0.247 NA
HETATM   21 CL   UNL     1       4.881  27.440  54.777  1.00  0.00    -0.060 Cl
HETATM   22  C   UNL     1       6.295  25.595  51.754  1.00  0.00     0.118 A 
HETATM   23  C   UNL     1       7.496  25.029  52.139  1.00  0.00     0.022 A 
HETATM   24  C   UNL     1       7.878  25.131  53.476  1.00  0.00     0.034 A 
ENDBRANCH   1  18
TORSDOF 2
ENDMDL
MODEL 9
REMARK VINA RESULT:      -7.3      6.390      7.961
REMARK  2 active torsions:
REMARK  status: ('A' for Active; 'I' for Inactive)
REMARK    1  A    between atoms: C_6  and  N_7 
REMARK       I    between atoms: N_7  and  C_8 
REMARK       I    between atoms: C_8  and  N_9 
REMARK    2  A    between atoms: N_9  and  C_10 
ROOT
HETATM    1  N   UNL     1       3.907  28.753  49.544  1.00  0.00    -0.306 N 
HETATM    2  C   UNL     1       4.624  28.440  50.656  1.00  0.00     0.321 C 
HETATM    3  N   UNL     1       4.690  27.140  51.044  1.00  0.00    -0.338 N 
HETATM    4  O   UNL     1       5.303  29.316  51.190  1.00  0.00    -0.247 OA
HETATM    5  H   UNL     1       4.172  29.675  49.215  1.00  0.00     0.171 HD
HETATM    6  H   UNL     1       3.866  26.586  50.860  1.00  0.00     0.164 HD
ENDROOT
BRANCH   3   7
HETATM    7  C   UNL     1       5.544  26.669  52.127  1.00  0.00     0.092 C 
HETATM    8  C   UNL     1       4.725  26.352  53.412  1.00  0.00     0.084 C 
HETATM    9  C   UNL     1       5.586  25.653  54.381  1.00  0.00     0.034 A 
HETATM   10  C   UNL     1       6.807  25.080  54.102  1.00  0.00     0.033 A 
HETATM   11  N   UNL     1       5.341  25.409  55.716  1.00  0.00    -0.354 N 
HETATM   12  N   UNL     1       7.249  24.524  55.284  1.00  0.00    -0.354 N 
HETATM   13  C   UNL     1       7.488  25.106  52.794  1.00  0.00     0.061 C 
HETATM   14  H   UNL     1       8.126  24.024  55.407  1.00  0.00     0.166 HD
HETATM   15  C   UNL     1       6.350  24.718  56.256  1.00  0.00     0.180 A 
HETATM   16  C   UNL     1       6.478  25.500  51.696  1.00  0.00     0.031 C 
HETATM   17  H   UNL     1       4.502  25.693  56.220  1.00  0.00     0.166 HD
ENDBRANCH   3   7
BRANCH   1  18
HETATM   18  C   UNL     1       3.167  27.958  48.639  1.00  0.00     0.077 A 
HETATM   19  C   UNL     1       3.650  27.091  47.655  1.00  0.00     0.152 A 
HETATM   20  N   UNL     1       2.874  26.410  46.780  1.00  0.00    -0.247 NA
HETATM   21 CL   UNL     1       5.304  26.617  47.519  1.00  0.00    -0.060 Cl
HETATM   22  C   UNL     1       1.540  26.553  46.907  1.00  0.00     0.118 A 
HETATM   23  C   UNL     1       0.948  27.331  47.884  1.00  0.00     0.022 A 
HETATM   24  C   UNL     1       1.773  28.029  48.765  1.00  0.00     0.034 A 
ENDBRANCH   1  18
TORSDOF 2
ENDMDL
MODEL 10
REMARK VINA RESULT:      -7.2      2.426      7.270
REMARK  2 active torsions:
REMARK  status: ('A' for Active; 'I' for Inactive)
REMARK    1  A    between atoms: C_6  and  N_7 
REMARK       I    between atoms: N_7  and  C_8 
REMARK       I    between atoms: C_8  and  N_9 
REMARK    2  A    between atoms: N_9  and  C_10 
ROOT
HETATM    1  N   UNL     1       8.079  24.415  53.450  1.00  0.00    -0.306 N 
HETATM    2  C   UNL     1       7.520  25.479  54.087  1.00  0.00     0.321 C 
HETATM    3  N   UNL     1       7.003  25.294  55.331  1.00  0.00    -0.338 N 
HETATM    4  O   UNL     1       7.625  26.596  53.583  1.00  0.00    -0.247 OA
HETATM    5  H   UNL     1       8.663  24.743  52.688  1.00  0.00     0.171 HD
HETATM    6  H   UNL     1       6.593  24.388  55.504  1.00  0.00     0.164 HD
ENDROOT
BRANCH   3   7
HETATM    7  C   UNL     1       6.514  26.385  56.165  1.00  0.00     0.092 C 
HETATM    8  C   UNL     1       7.677  27.273  56.693  1.00  0.00     0.084 C 
HETATM    9  C   UNL     1       7.121  28.488  57.314  1.00  0.00     0.034 A 
HETATM   10  C   UNL     1       5.827  28.938  57.178  1.00  0.00     0.033 A 
HETATM   11  N   UNL     1       7.770  29.410  58.109  1.00  0.00    -0.354 N 
HETATM   12  N   UNL     1       5.750  30.108  57.904  1.00  0.00    -0.354 N 
HETATM   13  C   UNL     1       4.757  28.260  56.422  1.00  0.00     0.061 C 
HETATM   14  H   UNL     1       4.918  30.686  58.001  1.00  0.00     0.166 HD
HETATM   15  C   UNL     1       6.933  30.393  58.458  1.00  0.00     0.180 A 
HETATM   16  C   UNL     1       5.381  27.206  55.482  1.00  0.00     0.031 C 
HETATM   17  H   UNL     1       8.751  29.366  58.378  1.00  0.00     0.166 HD
ENDBRANCH   3   7
BRANCH   1  18
HETATM   18  C   UNL     1       8.256  23.066  53.833  1.00  0.00     0.077 A 
HETATM   19  C   UNL     1       8.881  22.567  54.979  1.00  0.00     0.152 A 
HETATM   20  N   UNL     1       9.068  21.253  55.244  1.00  0.00    -0.247 NA
HETATM   21 CL   UNL     1       9.354  23.546  56.319  1.00  0.00    -0.060 Cl
HETATM   22  C   UNL     1       8.570  20.374  54.353  1.00  0.00     0.118 A 
HETATM   23  C   UNL     1       7.876  20.751  53.218  1.00  0.00     0.022 A 
HETATM   24  C   UNL     1       7.709  22.111  52.966  1.00  0.00     0.034 A 
ENDBRANCH   1  18
TORSDOF 2
ENDMDL
