MODEL 1
REMARK VINA RESULT:      -9.2      0.000      0.000
REMARK  3 active torsions:
REMARK  status: ('A' for Active; 'I' for Inactive)
REMARK    1  A    between atoms: C_9  and  C_10 
REMARK       I    between atoms: C_10  and  N_11 
REMARK    2  A    between atoms: N_11  and  C_12 
REMARK    3  A    between atoms: C_13  and  O_14 
ROOT
HETATM    1  C   UNL     1       5.421  27.872  51.867  1.00  0.00     0.268 C 
HETATM    2  N   UNL     1       4.260  27.709  51.159  1.00  0.00    -0.344 N 
HETATM    3  O   UNL     1       6.091  28.899  51.776  1.00  0.00    -0.266 OA
HETATM    4  H   UNL     1       3.697  26.883  51.299  1.00  0.00     0.163 HD
ENDROOT
BRANCH   1   5
HETATM    5  C   UNL     1       5.807  26.757  52.697  1.00  0.00     0.102 A 
HETATM    6  N   UNL     1       5.622  26.778  54.061  1.00  0.00    -0.351 N 
HETATM    7  C   UNL     1       6.142  25.650  54.650  1.00  0.00     0.043 A 
HETATM    8  H   UNL     1       5.194  27.549  54.556  1.00  0.00     0.166 HD
HETATM    9  C   UNL     1       6.633  24.838  53.632  1.00  0.00    -0.001 A 
HETATM   10  C   UNL     1       6.209  25.301  55.999  1.00  0.00     0.031 A 
HETATM   11  C   UNL     1       7.229  23.589  53.954  1.00  0.00    -0.043 A 
HETATM   12  C   UNL     1       6.403  25.542  52.410  1.00  0.00     0.049 A 
HETATM   13  C   UNL     1       7.332  23.237  55.327  1.00  0.00    -0.055 A 
HETATM   14  C   UNL     1       7.770  22.665  52.893  1.00  0.00     0.049 C 
HETATM   15  C   UNL     1       7.972  21.940  55.751  1.00  0.00     0.049 C 
HETATM   16  C   UNL     1       6.815  24.085  56.318  1.00  0.00     0.009 A 
ENDBRANCH   1   5
BRANCH   2  17
HETATM   17  C   UNL     1       3.828  28.670  50.165  1.00  0.00     0.147 C 
HETATM   18  C   UNL     1       2.667  29.611  50.620  1.00  0.00     0.149 C 
HETATM   19  C   UNL     1       1.356  28.921  50.193  1.00  0.00     0.073 C 
HETATM   20  C   UNL     1       1.803  28.098  49.024  1.00  0.00    -0.047 A 
HETATM   21  C   UNL     1       3.195  27.961  49.003  1.00  0.00    -0.027 A 
HETATM   22  C   UNL     1       1.011  27.477  48.073  1.00  0.00     0.008 A 
HETATM   23  C   UNL     1       3.823  27.199  48.029  1.00  0.00     0.010 A 
HETATM   24  C   UNL     1       3.033  26.577  47.061  1.00  0.00     0.001 A 
HETATM   25  C   UNL     1       1.636  26.716  47.083  1.00  0.00     0.001 A 
BRANCH  18  26
HETATM   26  O   UNL     1       2.648  29.903  52.013  1.00  0.00    -0.393 OA
HETATM   27  H   UNL     1       1.726  30.141  52.240  1.00  0.00     0.210 HD
ENDBRANCH  18  26
ENDBRANCH   2  17
TORSDOF 3
ENDMDL
MODEL 2
REMARK VINA RESULT:      -8.8      1.560      2.257
REMARK  3 active torsions:
REMARK  status: ('A' for Active; 'I' for Inactive)
REMARK    1  A    between atoms: C_9  and  C_10 
REMARK       I    between atoms: C_10  and  N_11 
REMARK    2  A    between atoms: N_11  and  C_12 
REMARK    3  A    between atoms: C_13  and  O_14 
ROOT
HETATM    1  C   UNL     1       6.970  27.218  53.429  1.00  0.00     0.268 C 
HETATM    2  N   UNL     1       5.898  27.344  52.586  1.00  0.00    -0.344 N 
HETATM    3  O   UNL     1       7.680  28.181  53.715  1.00  0.00    -0.266 OA
HETATM    4  H   UNL     1       5.296  26.553  52.417  1.00  0.00     0.163 HD
ENDROOT
BRANCH   1   5
HETATM    5  C   UNL     1       7.215  25.889  53.932  1.00  0.00     0.102 A 
HETATM    6  N   UNL     1       7.409  25.653  55.275  1.00  0.00    -0.351 N 
HETATM    7  C   UNL     1       7.710  24.332  55.509  1.00  0.00     0.043 A 
HETATM    8  H   UNL     1       7.374  26.376  55.982  1.00  0.00     0.166 HD
HETATM    9  C   UNL     1       7.656  23.670  54.285  1.00  0.00    -0.001 A 
HETATM   10  C   UNL     1       8.024  23.689  56.706  1.00  0.00     0.031 A 
HETATM   11  C   UNL     1       7.920  22.276  54.227  1.00  0.00    -0.043 A 
HETATM   12  C   UNL     1       7.330  24.660  53.307  1.00  0.00     0.049 A 
HETATM   13  C   UNL     1       8.272  21.616  55.435  1.00  0.00    -0.055 A 
HETATM   14  C   UNL     1       7.867  21.506  52.932  1.00  0.00     0.049 C 
HETATM   15  C   UNL     1       8.590  20.143  55.452  1.00  0.00     0.049 C 
HETATM   16  C   UNL     1       8.307  22.324  56.646  1.00  0.00     0.009 A 
ENDBRANCH   1   5
BRANCH   2  17
HETATM   17  C   UNL     1       5.623  28.577  51.876  1.00  0.00     0.147 C 
HETATM   18  C   UNL     1       4.653  29.556  52.611  1.00  0.00     0.149 C 
HETATM   19  C   UNL     1       3.234  29.218  52.113  1.00  0.00     0.073 C 
HETATM   20  C   UNL     1       3.507  28.644  50.757  1.00  0.00    -0.047 A 
HETATM   21  C   UNL     1       4.853  28.288  50.620  1.00  0.00    -0.027 A 
HETATM   22  C   UNL     1       2.602  28.414  49.736  1.00  0.00     0.008 A 
HETATM   23  C   UNL     1       5.320  27.694  49.457  1.00  0.00     0.010 A 
HETATM   24  C   UNL     1       4.416  27.467  48.418  1.00  0.00     0.001 A 
HETATM   25  C   UNL     1       3.065  27.825  48.558  1.00  0.00     0.001 A 
BRANCH  18  26
HETATM   26  O   UNL     1       4.712  29.497  54.033  1.00  0.00    -0.393 OA
HETATM   27  H   UNL     1       5.396  30.139  54.315  1.00  0.00     0.210 HD
ENDBRANCH  18  26
ENDBRANCH   2  17
TORSDOF 3
ENDMDL
MODEL 3
REMARK VINA RESULT:      -8.7      8.315     10.940
REMARK  3 active torsions:
REMARK  status: ('A' for Active; 'I' for Inactive)
REMARK    1  A    between atoms: C_9  and  C_10 
REMARK       I    between atoms: C_10  and  N_11 
REMARK    2  A    between atoms: N_11  and  C_12 
REMARK    3  A    between atoms: C_13  and  O_14 
ROOT
HETATM    1  C   UNL     1       5.790  32.342  58.942  1.00  0.00     0.268 C 
HETATM    2  N   UNL     1       5.818  30.999  58.679  1.00  0.00    -0.344 N 
HETATM    3  O   UNL     1       5.675  33.172  58.042  1.00  0.00    -0.266 OA
HETATM    4  H   UNL     1       5.850  30.337  59.440  1.00  0.00     0.163 HD
ENDROOT
BRANCH   1   5
HETATM    5  C   UNL     1       5.924  32.708  60.331  1.00  0.00     0.102 A 
HETATM    6  N   UNL     1       7.107  32.524  61.013  1.00  0.00    -0.351 N 
HETATM    7  C   UNL     1       6.974  32.863  62.338  1.00  0.00     0.043 A 
HETATM    8  H   UNL     1       7.944  32.148  60.589  1.00  0.00     0.166 HD
HETATM    9  C   UNL     1       5.678  33.337  62.519  1.00  0.00    -0.001 A 
HETATM   10  C   UNL     1       7.903  32.780  63.375  1.00  0.00     0.031 A 
HETATM   11  C   UNL     1       5.260  33.770  63.805  1.00  0.00    -0.043 A 
HETATM   12  C   UNL     1       5.036  33.247  61.245  1.00  0.00     0.049 A 
HETATM   13  C   UNL     1       6.188  33.661  64.876  1.00  0.00    -0.055 A 
HETATM   14  C   UNL     1       3.872  34.301  64.057  1.00  0.00     0.049 C 
HETATM   15  C   UNL     1       5.811  34.076  66.275  1.00  0.00     0.049 C 
HETATM   16  C   UNL     1       7.486  33.182  64.644  1.00  0.00     0.009 A 
ENDBRANCH   1   5
BRANCH   2  17
HETATM   17  C   UNL     1       5.856  30.485  57.325  1.00  0.00     0.147 C 
HETATM   18  C   UNL     1       4.590  29.679  56.892  1.00  0.00     0.149 C 
HETATM   19  C   UNL     1       4.883  28.201  57.220  1.00  0.00     0.073 C 
HETATM   20  C   UNL     1       6.378  28.155  57.146  1.00  0.00    -0.047 A 
HETATM   21  C   UNL     1       6.928  29.440  57.200  1.00  0.00    -0.027 A 
HETATM   22  C   UNL     1       7.189  27.035  57.084  1.00  0.00     0.008 A 
HETATM   23  C   UNL     1       8.302  29.630  57.192  1.00  0.00     0.010 A 
HETATM   24  C   UNL     1       9.127  28.508  57.120  1.00  0.00     0.001 A 
HETATM   25  C   UNL     1       8.574  27.218  57.066  1.00  0.00     0.001 A 
BRANCH  18  26
HETATM   26  O   UNL     1       3.377  30.098  57.509  1.00  0.00    -0.393 OA
HETATM   27  H   UNL     1       2.725  29.381  57.367  1.00  0.00     0.210 HD
ENDBRANCH  18  26
ENDBRANCH   2  17
TORSDOF 3
ENDMDL
MODEL 4
REMARK VINA RESULT:      -8.7     14.711     18.461
REMARK  3 active torsions:
REMARK  status: ('A' for Active; 'I' for Inactive)
REMARK    1  A    between atoms: C_9  and  C_10 
REMARK       I    between atoms: C_10  and  N_11 
REMARK    2  A    between atoms: N_11  and  C_12 
REMARK    3  A    between atoms: C_13  and  O_14 
ROOT
HETATM    1  C   UNL     1       5.263  34.288  67.612  1.00  0.00     0.268 C 
HETATM    2  N   UNL     1       6.338  34.474  68.439  1.00  0.00    -0.344 N 
HETATM    3  O   UNL     1       4.111  34.479  68.001  1.00  0.00    -0.266 OA
HETATM    4  H   UNL     1       7.274  34.370  68.077  1.00  0.00     0.163 HD
ENDROOT
BRANCH   1   5
HETATM    5  C   UNL     1       5.572  33.836  66.277  1.00  0.00     0.102 A 
HETATM    6  N   UNL     1       6.861  33.532  65.902  1.00  0.00    -0.351 N 
HETATM    7  C   UNL     1       6.927  33.209  64.567  1.00  0.00     0.043 A 
HETATM    8  H   UNL     1       7.654  33.584  66.528  1.00  0.00     0.166 HD
HETATM    9  C   UNL     1       5.629  33.249  64.066  1.00  0.00    -0.001 A 
HETATM   10  C   UNL     1       8.034  32.890  63.782  1.00  0.00     0.031 A 
HETATM   11  C   UNL     1       5.394  32.948  62.698  1.00  0.00    -0.043 A 
HETATM   12  C   UNL     1       4.788  33.631  65.156  1.00  0.00     0.049 A 
HETATM   13  C   UNL     1       6.519  32.652  61.880  1.00  0.00    -0.055 A 
HETATM   14  C   UNL     1       4.010  32.966  62.102  1.00  0.00     0.049 C 
HETATM   15  C   UNL     1       6.354  32.347  60.413  1.00  0.00     0.049 C 
HETATM   16  C   UNL     1       7.808  32.618  62.433  1.00  0.00     0.009 A 
ENDBRANCH   1   5
BRANCH   2  17
HETATM   17  C   UNL     1       6.179  34.768  69.848  1.00  0.00     0.147 C 
HETATM   18  C   UNL     1       7.162  35.844  70.410  1.00  0.00     0.149 C 
HETATM   19  C   UNL     1       8.389  35.077  70.941  1.00  0.00     0.073 C 
HETATM   20  C   UNL     1       7.800  33.743  71.281  1.00  0.00    -0.047 A 
HETATM   21  C   UNL     1       6.553  33.569  70.671  1.00  0.00    -0.027 A 
HETATM   22  C   UNL     1       8.366  32.736  72.045  1.00  0.00     0.008 A 
HETATM   23  C   UNL     1       5.846  32.385  70.815  1.00  0.00     0.010 A 
HETATM   24  C   UNL     1       6.404  31.369  71.591  1.00  0.00     0.001 A 
HETATM   25  C   UNL     1       7.656  31.544  72.202  1.00  0.00     0.001 A 
BRANCH  18  26
HETATM   26  O   UNL     1       7.561  36.836  69.469  1.00  0.00    -0.393 OA
HETATM   27  H   UNL     1       7.057  37.648  69.683  1.00  0.00     0.210 HD
ENDBRANCH  18  26
ENDBRANCH   2  17
TORSDOF 3
ENDMDL
MODEL 5
REMARK VINA RESULT:      -8.6      6.749      9.562
REMARK  3 active torsions:
REMARK  status: ('A' for Active; 'I' for Inactive)
REMARK    1  A    between atoms: C_9  and  C_10 
REMARK       I    between atoms: C_10  and  N_11 
REMARK    2  A    between atoms: N_11  and  C_12 
REMARK    3  A    between atoms: C_13  and  O_14 
ROOT
HETATM    1  C   UNL     1       8.227  30.243  57.767  1.00  0.00     0.268 C 
HETATM    2  N   UNL     1       7.128  29.760  57.108  1.00  0.00    -0.344 N 
HETATM    3  O   UNL     1       9.365  30.065  57.336  1.00  0.00    -0.266 OA
HETATM    4  H   UNL     1       6.203  29.974  57.450  1.00  0.00     0.163 HD
ENDROOT
BRANCH   1   5
HETATM    5  C   UNL     1       7.958  30.947  58.997  1.00  0.00     0.102 A 
HETATM    6  N   UNL     1       8.742  30.768  60.114  1.00  0.00    -0.351 N 
HETATM    7  C   UNL     1       8.247  31.471  61.187  1.00  0.00     0.043 A 
HETATM    8  H   UNL     1       9.551  30.161  60.140  1.00  0.00     0.166 HD
HETATM    9  C   UNL     1       7.134  32.179  60.742  1.00  0.00    -0.001 A 
HETATM   10  C   UNL     1       8.704  31.526  62.503  1.00  0.00     0.031 A 
HETATM   11  C   UNL     1       6.418  33.007  61.647  1.00  0.00    -0.043 A 
HETATM   12  C   UNL     1       6.974  31.849  59.360  1.00  0.00     0.049 A 
HETATM   13  C   UNL     1       6.856  33.045  62.999  1.00  0.00    -0.055 A 
HETATM   14  C   UNL     1       5.211  33.802  61.220  1.00  0.00     0.049 C 
HETATM   15  C   UNL     1       6.135  33.881  64.025  1.00  0.00     0.049 C 
HETATM   16  C   UNL     1       7.988  32.320  63.399  1.00  0.00     0.009 A 
ENDBRANCH   1   5
BRANCH   2  17
HETATM   17  C   UNL     1       7.246  28.898  55.950  1.00  0.00     0.147 C 
HETATM   18  C   UNL     1       6.033  28.946  54.967  1.00  0.00     0.149 C 
HETATM   19  C   UNL     1       5.067  27.832  55.416  1.00  0.00     0.073 C 
HETATM   20  C   UNL     1       5.995  26.861  56.078  1.00  0.00    -0.047 A 
HETATM   21  C   UNL     1       7.225  27.458  56.375  1.00  0.00    -0.027 A 
HETATM   22  C   UNL     1       5.736  25.548  56.433  1.00  0.00     0.008 A 
HETATM   23  C   UNL     1       8.221  26.752  57.032  1.00  0.00     0.010 A 
HETATM   24  C   UNL     1       7.972  25.425  57.385  1.00  0.00     0.001 A 
HETATM   25  C   UNL     1       6.738  24.827  57.087  1.00  0.00     0.001 A 
BRANCH  18  26
HETATM   26  O   UNL     1       5.360  30.200  54.913  1.00  0.00    -0.393 OA
HETATM   27  H   UNL     1       6.042  30.879  54.725  1.00  0.00     0.210 HD
ENDBRANCH  18  26
ENDBRANCH   2  17
TORSDOF 3
ENDMDL
MODEL 6
REMARK VINA RESULT:      -8.5     15.523     17.792
REMARK  3 active torsions:
REMARK  status: ('A' for Active; 'I' for Inactive)
REMARK    1  A    between atoms: C_9  and  C_10 
REMARK       I    between atoms: C_10  and  N_11 
REMARK    2  A    between atoms: N_11  and  C_12 
REMARK    3  A    between atoms: C_13  and  O_14 
ROOT
HETATM    1  C   UNL     1       4.410  35.511  66.552  1.00  0.00     0.268 C 
HETATM    2  N   UNL     1       5.117  36.147  65.567  1.00  0.00    -0.344 N 
HETATM    3  O   UNL     1       3.192  35.356  66.473  1.00  0.00    -0.266 OA
HETATM    4  H   UNL     1       6.122  36.205  65.627  1.00  0.00     0.163 HD
ENDROOT
BRANCH   1   5
HETATM    5  C   UNL     1       5.184  35.061  67.684  1.00  0.00     0.102 A 
HETATM    6  N   UNL     1       6.337  35.707  68.070  1.00  0.00    -0.351 N 
HETATM    7  C   UNL     1       6.948  35.053  69.112  1.00  0.00     0.043 A 
HETATM    8  H   UNL     1       6.697  36.532  67.608  1.00  0.00     0.166 HD
HETATM    9  C   UNL     1       6.139  33.974  69.458  1.00  0.00    -0.001 A 
HETATM   10  C   UNL     1       8.148  35.341  69.763  1.00  0.00     0.031 A 
HETATM   11  C   UNL     1       6.526  33.117  70.522  1.00  0.00    -0.043 A 
HETATM   12  C   UNL     1       5.028  34.002  68.560  1.00  0.00     0.049 A 
HETATM   13  C   UNL     1       7.762  33.381  71.172  1.00  0.00    -0.055 A 
HETATM   14  C   UNL     1       5.686  31.940  70.945  1.00  0.00     0.049 C 
HETATM   15  C   UNL     1       8.254  32.503  72.293  1.00  0.00     0.049 C 
HETATM   16  C   UNL     1       8.541  34.485  70.792  1.00  0.00     0.009 A 
ENDBRANCH   1   5
BRANCH   2  17
HETATM   17  C   UNL     1       4.460  36.794  64.450  1.00  0.00     0.147 C 
HETATM   18  C   UNL     1       4.209  35.875  63.212  1.00  0.00     0.149 C 
HETATM   19  C   UNL     1       5.436  36.039  62.293  1.00  0.00     0.073 C 
HETATM   20  C   UNL     1       5.911  37.414  62.650  1.00  0.00    -0.047 A 
HETATM   21  C   UNL     1       5.358  37.843  63.861  1.00  0.00    -0.027 A 
HETATM   22  C   UNL     1       6.814  38.204  61.959  1.00  0.00     0.008 A 
HETATM   23  C   UNL     1       5.697  39.073  64.405  1.00  0.00     0.010 A 
HETATM   24  C   UNL     1       6.599  39.880  63.710  1.00  0.00     0.001 A 
HETATM   25  C   UNL     1       7.153  39.448  62.495  1.00  0.00     0.001 A 
BRANCH  18  26
HETATM   26  O   UNL     1       3.997  34.502  63.523  1.00  0.00    -0.393 OA
HETATM   27  H   UNL     1       4.857  34.145  63.829  1.00  0.00     0.210 HD
ENDBRANCH  18  26
ENDBRANCH   2  17
TORSDOF 3
ENDMDL
MODEL 7
REMARK VINA RESULT:      -8.5      6.500      9.685
REMARK  3 active torsions:
REMARK  status: ('A' for Active; 'I' for Inactive)
REMARK    1  A    between atoms: C_9  and  C_10 
REMARK       I    between atoms: C_10  and  N_11 
REMARK    2  A    between atoms: N_11  and  C_12 
REMARK    3  A    between atoms: C_13  and  O_14 
ROOT
HETATM    1  C   UNL     1       8.636  29.857  58.370  1.00  0.00     0.268 C 
HETATM    2  N   UNL     1       7.983  30.084  59.552  1.00  0.00    -0.344 N 
HETATM    3  O   UNL     1       9.568  30.571  58.002  1.00  0.00    -0.266 OA
HETATM    4  H   UNL     1       7.264  29.446  59.860  1.00  0.00     0.163 HD
ENDROOT
BRANCH   1   5
HETATM    5  C   UNL     1       8.145  28.748  57.589  1.00  0.00     0.102 A 
HETATM    6  N   UNL     1       7.647  27.612  58.186  1.00  0.00    -0.351 N 
HETATM    7  C   UNL     1       7.321  26.660  57.250  1.00  0.00     0.043 A 
HETATM    8  H   UNL     1       7.577  27.491  59.188  1.00  0.00     0.166 HD
HETATM    9  C   UNL     1       7.560  27.213  55.994  1.00  0.00    -0.001 A 
HETATM   10  C   UNL     1       6.838  25.364  57.428  1.00  0.00     0.031 A 
HETATM   11  C   UNL     1       7.301  26.446  54.827  1.00  0.00    -0.043 A 
HETATM   12  C   UNL     1       8.064  28.530  56.225  1.00  0.00     0.049 A 
HETATM   13  C   UNL     1       6.839  25.113  54.997  1.00  0.00    -0.055 A 
HETATM   14  C   UNL     1       7.533  26.996  53.443  1.00  0.00     0.049 C 
HETATM   15  C   UNL     1       6.565  24.228  53.808  1.00  0.00     0.049 C 
HETATM   16  C   UNL     1       6.606  24.602  56.283  1.00  0.00     0.009 A 
ENDBRANCH   1   5
BRANCH   2  17
HETATM   17  C   UNL     1       8.254  31.252  60.364  1.00  0.00     0.147 C 
HETATM   18  C   UNL     1       8.715  30.944  61.825  1.00  0.00     0.149 C 
HETATM   19  C   UNL     1       7.438  30.921  62.688  1.00  0.00     0.073 C 
HETATM   20  C   UNL     1       6.524  31.823  61.917  1.00  0.00    -0.047 A 
HETATM   21  C   UNL     1       6.985  32.015  60.611  1.00  0.00    -0.027 A 
HETATM   22  C   UNL     1       5.337  32.392  62.345  1.00  0.00     0.008 A 
HETATM   23  C   UNL     1       6.267  32.782  59.706  1.00  0.00     0.010 A 
HETATM   24  C   UNL     1       5.074  33.368  60.131  1.00  0.00     0.001 A 
HETATM   25  C   UNL     1       4.612  33.174  61.443  1.00  0.00     0.001 A 
BRANCH  18  26
HETATM   26  O   UNL     1       9.444  29.730  61.976  1.00  0.00    -0.393 OA
HETATM   27  H   UNL     1      10.051  29.667  61.209  1.00  0.00     0.210 HD
ENDBRANCH  18  26
ENDBRANCH   2  17
TORSDOF 3
ENDMDL
MODEL 8
REMARK VINA RESULT:      -8.4      7.608     10.785
REMARK  3 active torsions:
REMARK  status: ('A' for Active; 'I' for Inactive)
REMARK    1  A    between atoms: C_9  and  C_10 
REMARK       I    between atoms: C_10  and  N_11 
REMARK    2  A    between atoms: N_11  and  C_12 
REMARK    3  A    between atoms: C_13  and  O_14 
ROOT
HETATM    1  C   UNL     1       7.991  31.193  59.157  1.00  0.00     0.268 C 
HETATM    2  N   UNL     1       7.305  31.505  60.300  1.00  0.00    -0.344 N 
HETATM    3  O   UNL     1       8.927  31.886  58.760  1.00  0.00    -0.266 OA
HETATM    4  H   UNL     1       6.582  30.886  60.637  1.00  0.00     0.163 HD
ENDROOT
BRANCH   1   5
HETATM    5  C   UNL     1       7.531  30.022  58.451  1.00  0.00     0.102 A 
HETATM    6  N   UNL     1       6.279  29.974  57.880  1.00  0.00    -0.351 N 
HETATM    7  C   UNL     1       6.027  28.735  57.340  1.00  0.00     0.043 A 
HETATM    8  H   UNL     1       5.624  30.744  57.899  1.00  0.00     0.166 HD
HETATM    9  C   UNL     1       7.174  27.965  57.514  1.00  0.00    -0.001 A 
HETATM   10  C   UNL     1       4.876  28.251  56.718  1.00  0.00     0.031 A 
HETATM   11  C   UNL     1       7.201  26.626  57.040  1.00  0.00    -0.043 A 
HETATM   12  C   UNL     1       8.114  28.793  58.202  1.00  0.00     0.049 A 
HETATM   13  C   UNL     1       6.023  26.112  56.434  1.00  0.00    -0.055 A 
HETATM   14  C   UNL     1       8.417  25.749  57.193  1.00  0.00     0.049 C 
HETATM   15  C   UNL     1       5.964  24.694  55.928  1.00  0.00     0.049 C 
HETATM   16  C   UNL     1       4.893  26.929  56.275  1.00  0.00     0.009 A 
ENDBRANCH   1   5
BRANCH   2  17
HETATM   17  C   UNL     1       7.544  32.734  61.026  1.00  0.00     0.147 C 
HETATM   18  C   UNL     1       8.634  32.639  62.141  1.00  0.00     0.149 C 
HETATM   19  C   UNL     1       7.893  32.279  63.444  1.00  0.00     0.073 C 
HETATM   20  C   UNL     1       6.528  32.840  63.192  1.00  0.00    -0.047 A 
HETATM   21  C   UNL     1       6.331  33.103  61.831  1.00  0.00    -0.027 A 
HETATM   22  C   UNL     1       5.516  33.055  64.112  1.00  0.00     0.008 A 
HETATM   23  C   UNL     1       5.118  33.586  61.365  1.00  0.00     0.010 A 
HETATM   24  C   UNL     1       4.096  33.815  62.287  1.00  0.00     0.001 A 
HETATM   25  C   UNL     1       4.294  33.551  63.652  1.00  0.00     0.001 A 
BRANCH  18  26
HETATM   26  O   UNL     1       9.671  31.698  61.880  1.00  0.00    -0.393 OA
HETATM   27  H   UNL     1      10.300  31.755  62.629  1.00  0.00     0.210 HD
ENDBRANCH  18  26
ENDBRANCH   2  17
TORSDOF 3
ENDMDL
MODEL 9
REMARK VINA RESULT:      -8.4      2.528      7.780
REMARK  3 active torsions:
REMARK  status: ('A' for Active; 'I' for Inactive)
REMARK    1  A    between atoms: C_9  and  C_10 
REMARK       I    between atoms: C_10  and  N_11 
REMARK    2  A    between atoms: N_11  and  C_12 
REMARK    3  A    between atoms: C_13  and  O_14 
ROOT
HETATM    1  C   UNL     1       4.817  25.547  53.122  1.00  0.00     0.268 C 
HETATM    2  N   UNL     1       5.280  25.902  54.361  1.00  0.00    -0.344 N 
HETATM    3  O   UNL     1       4.331  24.437  52.910  1.00  0.00    -0.266 OA
HETATM    4  H   UNL     1       5.617  26.840  54.523  1.00  0.00     0.163 HD
ENDROOT
BRANCH   1   5
HETATM    5  C   UNL     1       4.959  26.548  52.093  1.00  0.00     0.102 A 
HETATM    6  N   UNL     1       5.128  27.879  52.402  1.00  0.00    -0.351 N 
HETATM    7  C   UNL     1       5.153  28.654  51.267  1.00  0.00     0.043 A 
HETATM    8  H   UNL     1       5.181  28.232  53.349  1.00  0.00     0.166 HD
HETATM    9  C   UNL     1       5.055  27.795  50.175  1.00  0.00    -0.001 A 
HETATM   10  C   UNL     1       5.254  30.039  51.136  1.00  0.00     0.031 A 
HETATM   11  C   UNL     1       5.064  28.327  48.859  1.00  0.00    -0.043 A 
HETATM   12  C   UNL     1       4.948  26.475  50.711  1.00  0.00     0.049 A 
HETATM   13  C   UNL     1       5.134  29.739  48.713  1.00  0.00    -0.055 A 
HETATM   14  C   UNL     1       4.970  27.445  47.640  1.00  0.00     0.049 C 
HETATM   15  C   UNL     1       5.124  30.382  47.350  1.00  0.00     0.049 C 
HETATM   16  C   UNL     1       5.238  30.564  49.844  1.00  0.00     0.009 A 
ENDBRANCH   1   5
BRANCH   2  17
HETATM   17  C   UNL     1       5.353  24.952  55.452  1.00  0.00     0.147 C 
HETATM   18  C   UNL     1       5.258  25.581  56.879  1.00  0.00     0.149 C 
HETATM   19  C   UNL     1       6.707  25.862  57.326  1.00  0.00     0.073 C 
HETATM   20  C   UNL     1       7.478  24.840  56.550  1.00  0.00    -0.047 A 
HETATM   21  C   UNL     1       6.715  24.322  55.497  1.00  0.00    -0.027 A 
HETATM   22  C   UNL     1       8.788  24.438  56.745  1.00  0.00     0.008 A 
HETATM   23  C   UNL     1       7.249  23.391  54.619  1.00  0.00     0.010 A 
HETATM   24  C   UNL     1       8.566  22.973  54.815  1.00  0.00     0.001 A 
HETATM   25  C   UNL     1       9.330  23.494  55.871  1.00  0.00     0.001 A 
BRANCH  18  26
HETATM   26  O   UNL     1       4.472  26.765  56.957  1.00  0.00    -0.393 OA
HETATM   27  H   UNL     1       3.554  26.512  56.724  1.00  0.00     0.210 HD
ENDBRANCH  18  26
ENDBRANCH   2  17
TORSDOF 3
ENDMDL
MODEL 10
REMARK VINA RESULT:      -8.3      1.969      3.316
REMARK  3 active torsions:
REMARK  status: ('A' for Active; 'I' for Inactive)
REMARK    1  A    between atoms: C_9  and  C_10 
REMARK       I    between atoms: C_10  and  N_11 
REMARK    2  A    between atoms: N_11  and  C_12 
REMARK    3  A    between atoms: C_13  and  O_14 
ROOT
HETATM    1  C   UNL     1       4.132  27.769  52.504  1.00  0.00     0.268 C 
HETATM    2  N   UNL     1       3.989  27.892  51.148  1.00  0.00    -0.344 N 
HETATM    3  O   UNL     1       3.486  28.466  53.285  1.00  0.00    -0.266 OA
HETATM    4  H   UNL     1       4.485  27.266  50.531  1.00  0.00     0.163 HD
ENDROOT
BRANCH   1   5
HETATM    5  C   UNL     1       5.099  26.792  52.943  1.00  0.00     0.102 A 
HETATM    6  N   UNL     1       5.920  26.140  52.050  1.00  0.00    -0.351 N 
HETATM    7  C   UNL     1       6.693  25.197  52.683  1.00  0.00     0.043 A 
HETATM    8  H   UNL     1       5.913  26.314  51.054  1.00  0.00     0.166 HD
HETATM    9  C   UNL     1       6.409  25.272  54.044  1.00  0.00    -0.001 A 
HETATM   10  C   UNL     1       7.611  24.294  52.149  1.00  0.00     0.031 A 
HETATM   11  C   UNL     1       7.077  24.407  54.951  1.00  0.00    -0.043 A 
HETATM   12  C   UNL     1       5.416  26.289  54.192  1.00  0.00     0.049 A 
HETATM   13  C   UNL     1       7.991  23.460  54.414  1.00  0.00    -0.055 A 
HETATM   14  C   UNL     1       6.816  24.450  56.435  1.00  0.00     0.049 C 
HETATM   15  C   UNL     1       8.720  22.491  55.309  1.00  0.00     0.049 C 
HETATM   16  C   UNL     1       8.249  23.426  53.036  1.00  0.00     0.009 A 
ENDBRANCH   1   5
BRANCH   2  17
HETATM   17  C   UNL     1       3.180  28.937  50.555  1.00  0.00     0.147 C 
HETATM   18  C   UNL     1       2.449  28.534  49.235  1.00  0.00     0.149 C 
HETATM   19  C   UNL     1       3.393  28.921  48.079  1.00  0.00     0.073 C 
HETATM   20  C   UNL     1       4.179  30.045  48.682  1.00  0.00    -0.047 A 
HETATM   21  C   UNL     1       4.056  30.059  50.075  1.00  0.00    -0.027 A 
HETATM   22  C   UNL     1       4.986  30.960  48.028  1.00  0.00     0.008 A 
HETATM   23  C   UNL     1       4.739  30.990  50.843  1.00  0.00     0.010 A 
HETATM   24  C   UNL     1       5.547  31.923  50.192  1.00  0.00     0.001 A 
HETATM   25  C   UNL     1       5.670  31.907  48.794  1.00  0.00     0.001 A 
BRANCH  18  26
HETATM   26  O   UNL     1       2.092  27.158  49.149  1.00  0.00    -0.393 OA
HETATM   27  H   UNL     1       1.133  27.126  48.948  1.00  0.00     0.210 HD
ENDBRANCH  18  26
ENDBRANCH   2  17
TORSDOF 3
ENDMDL
