MODEL 1
REMARK VINA RESULT:     -10.3      0.000      0.000
REMARK  6 active torsions:
REMARK  status: ('A' for Active; 'I' for Inactive)
REMARK    1  A    between atoms: C_2  and  O_3 
REMARK    2  A    between atoms: C_2  and  C_4 
REMARK    3  A    between atoms: C_6  and  N_7 
REMARK       I    between atoms: N_7  and  C_8 
REMARK    4  A    between atoms: C_8  and  C_9 
REMARK    5  A    between atoms: C_14  and  C_15 
REMARK    6  A    between atoms: C_23  and  C_24 
ROOT
HETATM    1  C   UNL     1       7.879  29.096  57.052  1.00  0.00     0.148 A 
HETATM    2  N   UNL     1       6.684  28.473  57.196  1.00  0.00    -0.165 NA
HETATM    3  N   UNL     1       6.645  27.628  56.146  1.00  0.00    -0.240 N 
HETATM    4  C   UNL     1       7.703  27.759  55.293  1.00  0.00     0.123 A 
HETATM    5  N   UNL     1       7.793  27.057  54.146  1.00  0.00    -0.366 N 
HETATM    6  C   UNL     1       6.834  26.028  53.777  1.00  0.00     0.118 C 
HETATM    7  C   UNL     1       5.479  26.226  54.481  1.00  0.00     0.066 C 
HETATM    8  C   UNL     1       5.544  26.707  55.944  1.00  0.00     0.221 C 
HETATM    9  C   UNL     1       8.537  28.680  55.864  1.00  0.00     0.089 A 
HETATM   10  H   UNL     1       8.646  27.077  53.589  1.00  0.00     0.161 HD
ENDROOT
BRANCH   1  11
HETATM   11  C   UNL     1       8.391  30.078  58.024  1.00  0.00     0.276 C 
HETATM   12  N   UNL     1       7.621  30.138  59.168  1.00  0.00    -0.322 N 
HETATM   13  H   UNL     1       6.806  29.529  59.146  1.00  0.00     0.169 HD
HETATM   14  O   UNL     1       9.390  30.747  57.777  1.00  0.00    -0.266 OA
BRANCH  12  15
HETATM   15  C   UNL     1       7.829  30.931  60.311  1.00  0.00     0.035 A 
HETATM   16  C   UNL     1       7.044  32.039  60.638  1.00  0.00     0.039 A 
HETATM   17  C   UNL     1       7.303  32.808  61.788  1.00  0.00    -0.028 A 
HETATM   18  C   UNL     1       8.360  32.428  62.624  1.00  0.00     0.010 A 
HETATM   19  C   UNL     1       9.151  31.325  62.307  1.00  0.00     0.003 A 
HETATM   20  C   UNL     1       8.891  30.584  61.152  1.00  0.00     0.029 A 
BRANCH  17  21
HETATM   21  C   UNL     1       6.422  34.000  62.097  1.00  0.00     0.147 C 
HETATM   22  C   UNL     1       4.993  33.781  61.617  1.00  0.00     0.044 C 
BRANCH  21  23
HETATM   23  O   UNL     1       6.406  34.260  63.500  1.00  0.00    -0.391 OA
HETATM   24  H   UNL     1       6.230  35.209  63.608  1.00  0.00     0.210 HD
ENDBRANCH  21  23
ENDBRANCH  17  21
ENDBRANCH  12  15
ENDBRANCH   1  11
BRANCH   8  25
HETATM   25  C   UNL     1       5.606  25.578  56.950  1.00  0.00     0.409 C 
HETATM   26  F   UNL     1       6.761  25.527  57.638  1.00  0.00    -0.169 F 
HETATM   27  F   UNL     1       4.599  25.647  57.851  1.00  0.00    -0.169 F 
HETATM   28  F   UNL     1       5.465  24.385  56.318  1.00  0.00    -0.169 F 
ENDBRANCH   8  25
BRANCH   6  29
HETATM   29  C   UNL     1       7.434  24.635  53.876  1.00  0.00    -0.035 A 
HETATM   30  C   UNL     1       8.272  24.242  54.934  1.00  0.00     0.012 A 
HETATM   31  C   UNL     1       8.836  22.964  54.967  1.00  0.00     0.043 A 
HETATM   32  C   UNL     1       8.579  22.075  53.934  1.00  0.00     0.116 A 
HETATM   33  F   UNL     1       9.133  20.856  53.956  1.00  0.00    -0.206 F 
HETATM   34  C   UNL     1       7.759  22.435  52.873  1.00  0.00     0.043 A 
HETATM   35  C   UNL     1       7.183  23.707  52.847  1.00  0.00     0.012 A 
ENDBRANCH   6  29
TORSDOF 6
ENDMDL
MODEL 2
REMARK VINA RESULT:     -10.2      1.800      2.278
REMARK  6 active torsions:
REMARK  status: ('A' for Active; 'I' for Inactive)
REMARK    1  A    between atoms: C_2  and  O_3 
REMARK    2  A    between atoms: C_2  and  C_4 
REMARK    3  A    between atoms: C_6  and  N_7 
REMARK       I    between atoms: N_7  and  C_8 
REMARK    4  A    between atoms: C_8  and  C_9 
REMARK    5  A    between atoms: C_14  and  C_15 
REMARK    6  A    between atoms: C_23  and  C_24 
ROOT
HETATM    1  C   UNL     1       7.777  30.635  57.893  1.00  0.00     0.148 A 
HETATM    2  N   UNL     1       6.577  30.533  57.272  1.00  0.00    -0.165 NA
HETATM    3  N   UNL     1       6.795  29.600  56.324  1.00  0.00    -0.240 N 
HETATM    4  C   UNL     1       8.093  29.184  56.247  1.00  0.00     0.123 A 
HETATM    5  N   UNL     1       8.516  28.316  55.307  1.00  0.00    -0.366 N 
HETATM    6  C   UNL     1       7.611  27.671  54.369  1.00  0.00     0.118 C 
HETATM    7  C   UNL     1       6.311  28.472  54.181  1.00  0.00     0.066 C 
HETATM    8  C   UNL     1       5.737  29.133  55.450  1.00  0.00     0.221 C 
HETATM    9  C   UNL     1       8.752  29.811  57.269  1.00  0.00     0.089 A 
HETATM   10  H   UNL     1       9.456  27.925  55.345  1.00  0.00     0.161 HD
ENDROOT
BRANCH   1  11
HETATM   11  C   UNL     1       8.002  31.505  59.061  1.00  0.00     0.276 C 
HETATM   12  N   UNL     1       7.133  31.230  60.098  1.00  0.00    -0.322 N 
HETATM   13  H   UNL     1       6.455  30.504  59.882  1.00  0.00     0.169 HD
HETATM   14  O   UNL     1       8.875  32.368  59.045  1.00  0.00    -0.266 OA
BRANCH  12  15
HETATM   15  C   UNL     1       7.082  31.835  61.366  1.00  0.00     0.035 A 
HETATM   16  C   UNL     1       5.933  32.432  61.894  1.00  0.00     0.039 A 
HETATM   17  C   UNL     1       5.939  33.035  63.165  1.00  0.00    -0.028 A 
HETATM   18  C   UNL     1       7.121  33.009  63.915  1.00  0.00     0.010 A 
HETATM   19  C   UNL     1       8.273  32.417  63.399  1.00  0.00     0.003 A 
HETATM   20  C   UNL     1       8.255  31.839  62.128  1.00  0.00     0.029 A 
BRANCH  17  21
HETATM   21  C   UNL     1       4.668  33.669  63.690  1.00  0.00     0.147 C 
HETATM   22  C   UNL     1       3.501  33.464  62.732  1.00  0.00     0.044 C 
BRANCH  21  23
HETATM   23  O   UNL     1       4.325  33.122  64.963  1.00  0.00    -0.391 OA
HETATM   24  H   UNL     1       4.642  32.205  64.969  1.00  0.00     0.210 HD
ENDBRANCH  21  23
ENDBRANCH  17  21
ENDBRANCH  12  15
ENDBRANCH   1  11
BRANCH   8  25
HETATM   25  C   UNL     1       4.773  28.249  56.210  1.00  0.00     0.409 C 
HETATM   26  F   UNL     1       3.607  28.849  56.511  1.00  0.00    -0.169 F 
HETATM   27  F   UNL     1       4.483  27.115  55.532  1.00  0.00    -0.169 F 
HETATM   28  F   UNL     1       5.332  27.853  57.383  1.00  0.00    -0.169 F 
ENDBRANCH   8  25
BRANCH   6  29
HETATM   29  C   UNL     1       7.439  26.193  54.678  1.00  0.00    -0.035 A 
HETATM   30  C   UNL     1       7.486  25.678  55.985  1.00  0.00     0.012 A 
HETATM   31  C   UNL     1       7.363  24.307  56.224  1.00  0.00     0.043 A 
HETATM   32  C   UNL     1       7.209  23.438  55.154  1.00  0.00     0.116 A 
HETATM   33  F   UNL     1       7.108  22.121  55.380  1.00  0.00    -0.206 F 
HETATM   34  C   UNL     1       7.162  23.914  53.851  1.00  0.00     0.043 A 
HETATM   35  C   UNL     1       7.270  25.287  53.614  1.00  0.00     0.012 A 
ENDBRANCH   6  29
TORSDOF 6
ENDMDL
MODEL 3
REMARK VINA RESULT:     -10.0      7.357     10.607
REMARK  6 active torsions:
REMARK  status: ('A' for Active; 'I' for Inactive)
REMARK    1  A    between atoms: C_2  and  O_3 
REMARK    2  A    between atoms: C_2  and  C_4 
REMARK    3  A    between atoms: C_6  and  N_7 
REMARK       I    between atoms: N_7  and  C_8 
REMARK    4  A    between atoms: C_8  and  C_9 
REMARK    5  A    between atoms: C_14  and  C_15 
REMARK    6  A    between atoms: C_23  and  C_24 
ROOT
HETATM    1  C   UNL     1       4.944  26.250  51.129  1.00  0.00     0.148 A 
HETATM    2  N   UNL     1       4.754  27.573  51.354  1.00  0.00    -0.165 NA
HETATM    3  N   UNL     1       4.397  28.046  50.142  1.00  0.00    -0.240 N 
HETATM    4  C   UNL     1       4.454  27.113  49.147  1.00  0.00     0.123 A 
HETATM    5  N   UNL     1       4.212  27.422  47.858  1.00  0.00    -0.366 N 
HETATM    6  C   UNL     1       3.767  28.740  47.435  1.00  0.00     0.118 C 
HETATM    7  C   UNL     1       4.151  29.830  48.452  1.00  0.00     0.066 C 
HETATM    8  C   UNL     1       4.036  29.435  49.939  1.00  0.00     0.221 C 
HETATM    9  C   UNL     1       4.775  25.931  49.755  1.00  0.00     0.089 A 
HETATM   10  H   UNL     1       4.137  26.690  47.153  1.00  0.00     0.161 HD
ENDROOT
BRANCH   1  11
HETATM   11  C   UNL     1       5.288  25.298  52.200  1.00  0.00     0.276 C 
HETATM   12  N   UNL     1       6.647  25.068  52.285  1.00  0.00    -0.322 N 
HETATM   13  H   UNL     1       7.190  25.556  51.577  1.00  0.00     0.169 HD
HETATM   14  O   UNL     1       4.414  24.792  52.897  1.00  0.00    -0.266 OA
BRANCH  12  15
HETATM   15  C   UNL     1       7.330  24.252  53.203  1.00  0.00     0.035 A 
HETATM   16  C   UNL     1       7.716  22.936  52.932  1.00  0.00     0.039 A 
HETATM   17  C   UNL     1       8.388  22.156  53.892  1.00  0.00    -0.028 A 
HETATM   18  C   UNL     1       8.689  22.732  55.132  1.00  0.00     0.010 A 
HETATM   19  C   UNL     1       8.307  24.043  55.414  1.00  0.00     0.003 A 
HETATM   20  C   UNL     1       7.625  24.797  54.457  1.00  0.00     0.029 A 
BRANCH  17  21
HETATM   21  C   UNL     1       8.783  20.736  53.548  1.00  0.00     0.147 C 
HETATM   22  C   UNL     1       8.850  19.855  54.790  1.00  0.00     0.044 C 
BRANCH  21  23
HETATM   23  O   UNL     1       7.854  20.167  52.626  1.00  0.00    -0.391 OA
HETATM   24  H   UNL     1       7.069  19.914  53.138  1.00  0.00     0.210 HD
ENDBRANCH  21  23
ENDBRANCH  17  21
ENDBRANCH  12  15
ENDBRANCH   1  11
BRANCH   8  25
HETATM   25  C   UNL     1       2.677  29.723  50.538  1.00  0.00     0.409 C 
HETATM   26  F   UNL     1       2.707  29.967  51.861  1.00  0.00    -0.169 F 
HETATM   27  F   UNL     1       2.074  30.778  49.944  1.00  0.00    -0.169 F 
HETATM   28  F   UNL     1       1.851  28.662  50.347  1.00  0.00    -0.169 F 
ENDBRANCH   8  25
BRANCH   6  29
HETATM   29  C   UNL     1       2.314  28.730  46.993  1.00  0.00    -0.035 A 
HETATM   30  C   UNL     1       1.611  29.902  46.662  1.00  0.00     0.012 A 
HETATM   31  C   UNL     1       0.263  29.855  46.298  1.00  0.00     0.043 A 
HETATM   32  C   UNL     1      -0.398  28.636  46.279  1.00  0.00     0.116 A 
HETATM   33  F   UNL     1      -1.695  28.591  45.947  1.00  0.00    -0.206 F 
HETATM   34  C   UNL     1       0.266  27.461  46.604  1.00  0.00     0.043 A 
HETATM   35  C   UNL     1       1.618  27.506  46.954  1.00  0.00     0.012 A 
ENDBRANCH   6  29
TORSDOF 6
ENDMDL
MODEL 4
REMARK VINA RESULT:      -9.8      3.437      4.564
REMARK  6 active torsions:
REMARK  status: ('A' for Active; 'I' for Inactive)
REMARK    1  A    between atoms: C_2  and  O_3 
REMARK    2  A    between atoms: C_2  and  C_4 
REMARK    3  A    between atoms: C_6  and  N_7 
REMARK       I    between atoms: N_7  and  C_8 
REMARK    4  A    between atoms: C_8  and  C_9 
REMARK    5  A    between atoms: C_14  and  C_15 
REMARK    6  A    between atoms: C_23  and  C_24 
ROOT
HETATM    1  C   UNL     1       6.859  27.416  56.120  1.00  0.00     0.148 A 
HETATM    2  N   UNL     1       7.207  26.237  55.548  1.00  0.00    -0.165 NA
HETATM    3  N   UNL     1       6.368  26.142  54.496  1.00  0.00    -0.240 N 
HETATM    4  C   UNL     1       5.444  27.146  54.435  1.00  0.00     0.123 A 
HETATM    5  N   UNL     1       4.473  27.173  53.501  1.00  0.00    -0.366 N 
HETATM    6  C   UNL     1       4.394  26.202  52.421  1.00  0.00     0.118 C 
HETATM    7  C   UNL     1       5.119  24.891  52.772  1.00  0.00     0.066 C 
HETATM    8  C   UNL     1       6.438  25.040  53.558  1.00  0.00     0.221 C 
HETATM    9  C   UNL     1       5.751  28.005  55.454  1.00  0.00     0.089 A 
HETATM   10  H   UNL     1       3.874  27.990  53.397  1.00  0.00     0.161 HD
ENDROOT
BRANCH   1  11
HETATM   11  C   UNL     1       7.564  27.977  57.286  1.00  0.00     0.276 C 
HETATM   12  N   UNL     1       7.692  29.350  57.214  1.00  0.00    -0.322 N 
HETATM   13  H   UNL     1       7.319  29.751  56.357  1.00  0.00     0.169 HD
HETATM   14  O   UNL     1       7.976  27.248  58.183  1.00  0.00    -0.266 OA
BRANCH  12  15
HETATM   15  C   UNL     1       8.273  30.215  58.158  1.00  0.00     0.035 A 
HETATM   16  C   UNL     1       7.616  30.659  59.309  1.00  0.00     0.039 A 
HETATM   17  C   UNL     1       8.239  31.536  60.216  1.00  0.00    -0.028 A 
HETATM   18  C   UNL     1       9.553  31.946  59.958  1.00  0.00     0.010 A 
HETATM   19  C   UNL     1      10.217  31.510  58.813  1.00  0.00     0.003 A 
HETATM   20  C   UNL     1       9.578  30.654  57.913  1.00  0.00     0.029 A 
BRANCH  17  21
HETATM   21  C   UNL     1       7.483  31.989  61.447  1.00  0.00     0.147 C 
HETATM   22  C   UNL     1       6.203  32.729  61.080  1.00  0.00     0.044 C 
BRANCH  21  23
HETATM   23  O   UNL     1       7.153  30.871  62.270  1.00  0.00    -0.391 OA
HETATM   24  H   UNL     1       6.230  30.641  62.075  1.00  0.00     0.210 HD
ENDBRANCH  21  23
ENDBRANCH  17  21
ENDBRANCH  12  15
ENDBRANCH   1  11
BRANCH   8  25
HETATM   25  C   UNL     1       7.658  25.172  52.673  1.00  0.00     0.409 C 
HETATM   26  F   UNL     1       7.411  24.945  51.370  1.00  0.00    -0.169 F 
HETATM   27  F   UNL     1       8.225  26.396  52.771  1.00  0.00    -0.169 F 
HETATM   28  F   UNL     1       8.610  24.284  53.058  1.00  0.00    -0.169 F 
ENDBRANCH   8  25
BRANCH   6  29
HETATM   29  C   UNL     1       4.754  26.820  51.081  1.00  0.00    -0.035 A 
HETATM   30  C   UNL     1       5.277  28.119  50.957  1.00  0.00     0.012 A 
HETATM   31  C   UNL     1       5.558  28.665  49.702  1.00  0.00     0.043 A 
HETATM   32  C   UNL     1       5.302  27.921  48.560  1.00  0.00     0.116 A 
HETATM   33  F   UNL     1       5.555  28.451  47.355  1.00  0.00    -0.206 F 
HETATM   34  C   UNL     1       4.782  26.637  48.647  1.00  0.00     0.043 A 
HETATM   35  C   UNL     1       4.515  26.085  49.903  1.00  0.00     0.012 A 
ENDBRANCH   6  29
TORSDOF 6
ENDMDL
MODEL 5
REMARK VINA RESULT:      -9.8      6.635      9.878
REMARK  6 active torsions:
REMARK  status: ('A' for Active; 'I' for Inactive)
REMARK    1  A    between atoms: C_2  and  O_3 
REMARK    2  A    between atoms: C_2  and  C_4 
REMARK    3  A    between atoms: C_6  and  N_7 
REMARK       I    between atoms: N_7  and  C_8 
REMARK    4  A    between atoms: C_8  and  C_9 
REMARK    5  A    between atoms: C_14  and  C_15 
REMARK    6  A    between atoms: C_23  and  C_24 
ROOT
HETATM    1  C   UNL     1       5.011  26.287  51.218  1.00  0.00     0.148 A 
HETATM    2  N   UNL     1       4.776  27.601  51.451  1.00  0.00    -0.165 NA
HETATM    3  N   UNL     1       4.425  28.075  50.238  1.00  0.00    -0.240 N 
HETATM    4  C   UNL     1       4.526  27.153  49.236  1.00  0.00     0.123 A 
HETATM    5  N   UNL     1       4.295  27.466  47.946  1.00  0.00    -0.366 N 
HETATM    6  C   UNL     1       3.817  28.774  47.527  1.00  0.00     0.118 C 
HETATM    7  C   UNL     1       4.151  29.866  48.560  1.00  0.00     0.066 C 
HETATM    8  C   UNL     1       4.024  29.454  50.041  1.00  0.00     0.221 C 
HETATM    9  C   UNL     1       4.874  25.976  49.839  1.00  0.00     0.089 A 
HETATM   10  H   UNL     1       4.254  26.739  47.233  1.00  0.00     0.161 HD
ENDROOT
BRANCH   1  11
HETATM   11  C   UNL     1       5.366  25.337  52.286  1.00  0.00     0.276 C 
HETATM   12  N   UNL     1       6.726  25.107  52.356  1.00  0.00    -0.322 N 
HETATM   13  H   UNL     1       7.261  25.595  51.642  1.00  0.00     0.169 HD
HETATM   14  O   UNL     1       4.500  24.830  52.993  1.00  0.00    -0.266 OA
BRANCH  12  15
HETATM   15  C   UNL     1       7.420  24.292  53.268  1.00  0.00     0.035 A 
HETATM   16  C   UNL     1       7.703  24.668  54.584  1.00  0.00     0.039 A 
HETATM   17  C   UNL     1       8.413  23.818  55.453  1.00  0.00    -0.028 A 
HETATM   18  C   UNL     1       8.817  22.564  54.981  1.00  0.00     0.010 A 
HETATM   19  C   UNL     1       8.542  22.178  53.670  1.00  0.00     0.003 A 
HETATM   20  C   UNL     1       7.852  23.041  52.816  1.00  0.00     0.029 A 
BRANCH  17  21
HETATM   21  C   UNL     1       8.695  24.274  56.868  1.00  0.00     0.147 C 
HETATM   22  C   UNL     1       7.936  25.552  57.208  1.00  0.00     0.044 C 
BRANCH  21  23
HETATM   23  O   UNL     1       8.333  23.258  57.803  1.00  0.00    -0.391 OA
HETATM   24  H   UNL     1       9.071  22.627  57.831  1.00  0.00     0.210 HD
ENDBRANCH  21  23
ENDBRANCH  17  21
ENDBRANCH  12  15
ENDBRANCH   1  11
BRANCH   8  25
HETATM   25  C   UNL     1       2.647  29.694  50.620  1.00  0.00     0.409 C 
HETATM   26  F   UNL     1       1.788  28.679  50.417  1.00  0.00    -0.169 F 
HETATM   27  F   UNL     1       2.691  29.929  51.951  1.00  0.00    -0.169 F 
HETATM   28  F   UNL     1       2.095  30.801  50.060  1.00  0.00    -0.169 F 
ENDBRANCH   8  25
BRANCH   6  29
HETATM   29  C   UNL     1       2.372  28.724  47.061  1.00  0.00    -0.035 A 
HETATM   30  C   UNL     1       1.655  29.872  46.680  1.00  0.00     0.012 A 
HETATM   31  C   UNL     1       0.315  29.788  46.295  1.00  0.00     0.043 A 
HETATM   32  C   UNL     1      -0.325  28.558  46.305  1.00  0.00     0.116 A 
HETATM   33  F   UNL     1      -1.615  28.479  45.953  1.00  0.00    -0.206 F 
HETATM   34  C   UNL     1       0.354  27.406  46.680  1.00  0.00     0.043 A 
HETATM   35  C   UNL     1       1.699  27.487  47.050  1.00  0.00     0.012 A 
ENDBRANCH   6  29
TORSDOF 6
ENDMDL
MODEL 6
REMARK VINA RESULT:      -9.7      7.234     10.135
REMARK  6 active torsions:
REMARK  status: ('A' for Active; 'I' for Inactive)
REMARK    1  A    between atoms: C_2  and  O_3 
REMARK    2  A    between atoms: C_2  and  C_4 
REMARK    3  A    between atoms: C_6  and  N_7 
REMARK       I    between atoms: N_7  and  C_8 
REMARK    4  A    between atoms: C_8  and  C_9 
REMARK    5  A    between atoms: C_14  and  C_15 
REMARK    6  A    between atoms: C_23  and  C_24 
ROOT
HETATM    1  C   UNL     1       6.100  26.313  51.811  1.00  0.00     0.148 A 
HETATM    2  N   UNL     1       5.311  26.073  50.736  1.00  0.00    -0.165 NA
HETATM    3  N   UNL     1       4.745  27.272  50.490  1.00  0.00    -0.240 N 
HETATM    4  C   UNL     1       5.056  28.227  51.415  1.00  0.00     0.123 A 
HETATM    5  N   UNL     1       4.519  29.463  51.379  1.00  0.00    -0.366 N 
HETATM    6  C   UNL     1       3.654  29.914  50.301  1.00  0.00     0.118 C 
HETATM    7  C   UNL     1       2.981  28.736  49.573  1.00  0.00     0.066 C 
HETATM    8  C   UNL     1       3.857  27.484  49.365  1.00  0.00     0.221 C 
HETATM    9  C   UNL     1       5.955  27.650  52.268  1.00  0.00     0.089 A 
HETATM   10  H   UNL     1       4.857  30.196  52.001  1.00  0.00     0.161 HD
ENDROOT
BRANCH   1  11
HETATM   11  C   UNL     1       6.978  25.289  52.404  1.00  0.00     0.276 C 
HETATM   12  N   UNL     1       6.605  24.956  53.692  1.00  0.00    -0.322 N 
HETATM   13  H   UNL     1       5.814  25.493  54.040  1.00  0.00     0.169 HD
HETATM   14  O   UNL     1       7.926  24.831  51.775  1.00  0.00    -0.266 OA
BRANCH  12  15
HETATM   15  C   UNL     1       7.189  24.001  54.542  1.00  0.00     0.035 A 
HETATM   16  C   UNL     1       7.420  22.673  54.171  1.00  0.00     0.039 A 
HETATM   17  C   UNL     1       7.997  21.752  55.066  1.00  0.00    -0.028 A 
HETATM   18  C   UNL     1       8.361  22.196  56.343  1.00  0.00     0.010 A 
HETATM   19  C   UNL     1       8.134  23.518  56.724  1.00  0.00     0.003 A 
HETATM   20  C   UNL     1       7.544  24.414  55.830  1.00  0.00     0.029 A 
BRANCH  17  21
HETATM   21  C   UNL     1       8.225  20.325  54.616  1.00  0.00     0.147 C 
HETATM   22  C   UNL     1       8.736  20.264  53.181  1.00  0.00     0.044 C 
BRANCH  21  23
HETATM   23  O   UNL     1       9.165  19.675  55.470  1.00  0.00    -0.391 OA
HETATM   24  H   UNL     1       9.646  19.033  54.923  1.00  0.00     0.210 HD
ENDBRANCH  21  23
ENDBRANCH  17  21
ENDBRANCH  12  15
ENDBRANCH   1  11
BRANCH   8  25
HETATM   25  C   UNL     1       4.637  27.499  48.069  1.00  0.00     0.409 C 
HETATM   26  F   UNL     1       4.987  26.275  47.631  1.00  0.00    -0.169 F 
HETATM   27  F   UNL     1       3.953  28.106  47.073  1.00  0.00    -0.169 F 
HETATM   28  F   UNL     1       5.784  28.209  48.225  1.00  0.00    -0.169 F 
ENDBRANCH   8  25
BRANCH   6  29
HETATM   29  C   UNL     1       4.346  30.933  49.411  1.00  0.00    -0.035 A 
HETATM   30  C   UNL     1       3.875  31.268  48.130  1.00  0.00     0.012 A 
HETATM   31  C   UNL     1       4.564  32.181  47.327  1.00  0.00     0.043 A 
HETATM   32  C   UNL     1       5.737  32.754  47.794  1.00  0.00     0.116 A 
HETATM   33  F   UNL     1       6.406  33.617  47.018  1.00  0.00    -0.206 F 
HETATM   34  C   UNL     1       6.230  32.442  49.053  1.00  0.00     0.043 A 
HETATM   35  C   UNL     1       5.534  31.540  49.862  1.00  0.00     0.012 A 
ENDBRANCH   6  29
TORSDOF 6
ENDMDL
MODEL 7
REMARK VINA RESULT:      -9.4      5.861     11.567
REMARK  6 active torsions:
REMARK  status: ('A' for Active; 'I' for Inactive)
REMARK    1  A    between atoms: C_2  and  O_3 
REMARK    2  A    between atoms: C_2  and  C_4 
REMARK    3  A    between atoms: C_6  and  N_7 
REMARK       I    between atoms: N_7  and  C_8 
REMARK    4  A    between atoms: C_8  and  C_9 
REMARK    5  A    between atoms: C_14  and  C_15 
REMARK    6  A    between atoms: C_23  and  C_24 
ROOT
HETATM    1  C   UNL     1       5.815  32.751  60.756  1.00  0.00     0.148 A 
HETATM    2  N   UNL     1       5.384  34.030  60.879  1.00  0.00    -0.165 NA
HETATM    3  N   UNL     1       4.934  34.086  62.148  1.00  0.00    -0.240 N 
HETATM    4  C   UNL     1       4.962  32.885  62.797  1.00  0.00     0.123 A 
HETATM    5  N   UNL     1       4.476  32.731  64.044  1.00  0.00    -0.366 N 
HETATM    6  C   UNL     1       3.982  33.843  64.840  1.00  0.00     0.118 C 
HETATM    7  C   UNL     1       3.547  35.030  63.961  1.00  0.00     0.066 C 
HETATM    8  C   UNL     1       4.429  35.315  62.729  1.00  0.00     0.221 C 
HETATM    9  C   UNL     1       5.555  32.004  61.936  1.00  0.00     0.089 A 
HETATM   10  H   UNL     1       4.620  31.860  64.555  1.00  0.00     0.161 HD
ENDROOT
BRANCH   1  11
HETATM   11  C   UNL     1       6.460  32.238  59.534  1.00  0.00     0.276 C 
HETATM   12  N   UNL     1       7.288  31.162  59.787  1.00  0.00    -0.322 N 
HETATM   13  H   UNL     1       7.353  30.918  60.773  1.00  0.00     0.169 HD
HETATM   14  O   UNL     1       6.253  32.763  58.445  1.00  0.00    -0.266 OA
BRANCH  12  15
HETATM   15  C   UNL     1       8.031  30.407  58.864  1.00  0.00     0.035 A 
HETATM   16  C   UNL     1       7.539  29.266  58.222  1.00  0.00     0.039 A 
HETATM   17  C   UNL     1       8.330  28.538  57.314  1.00  0.00    -0.028 A 
HETATM   18  C   UNL     1       9.627  28.989  57.042  1.00  0.00     0.010 A 
HETATM   19  C   UNL     1      10.129  30.124  57.677  1.00  0.00     0.003 A 
HETATM   20  C   UNL     1       9.337  30.825  58.589  1.00  0.00     0.029 A 
BRANCH  17  21
HETATM   21  C   UNL     1       7.750  27.309  56.646  1.00  0.00     0.147 C 
HETATM   22  C   UNL     1       8.308  26.026  57.250  1.00  0.00     0.044 C 
BRANCH  21  23
HETATM   23  O   UNL     1       6.329  27.298  56.766  1.00  0.00    -0.391 OA
HETATM   24  H   UNL     1       5.970  27.458  55.878  1.00  0.00     0.210 HD
ENDBRANCH  21  23
ENDBRANCH  17  21
ENDBRANCH  12  15
ENDBRANCH   1  11
BRANCH   8  25
HETATM   25  C   UNL     1       5.564  36.276  63.006  1.00  0.00     0.409 C 
HETATM   26  F   UNL     1       6.721  35.670  63.330  1.00  0.00    -0.169 F 
HETATM   27  F   UNL     1       5.811  37.087  61.953  1.00  0.00    -0.169 F 
HETATM   28  F   UNL     1       5.239  37.092  64.042  1.00  0.00    -0.169 F 
ENDBRANCH   8  25
BRANCH   6  29
HETATM   29  C   UNL     1       4.923  34.179  65.985  1.00  0.00    -0.035 A 
HETATM   30  C   UNL     1       6.304  33.919  65.937  1.00  0.00     0.012 A 
HETATM   31  C   UNL     1       7.128  34.206  67.028  1.00  0.00     0.043 A 
HETATM   32  C   UNL     1       6.575  34.740  68.182  1.00  0.00     0.116 A 
HETATM   33  F   UNL     1       7.362  35.000  69.235  1.00  0.00    -0.206 F 
HETATM   34  C   UNL     1       5.214  35.005  68.263  1.00  0.00     0.043 A 
HETATM   35  C   UNL     1       4.392  34.731  67.167  1.00  0.00     0.012 A 
ENDBRANCH   6  29
TORSDOF 6
ENDMDL
MODEL 8
REMARK VINA RESULT:      -9.2      6.494      9.847
REMARK  6 active torsions:
REMARK  status: ('A' for Active; 'I' for Inactive)
REMARK    1  A    between atoms: C_2  and  O_3 
REMARK    2  A    between atoms: C_2  and  C_4 
REMARK    3  A    between atoms: C_6  and  N_7 
REMARK       I    between atoms: N_7  and  C_8 
REMARK    4  A    between atoms: C_8  and  C_9 
REMARK    5  A    between atoms: C_14  and  C_15 
REMARK    6  A    between atoms: C_23  and  C_24 
ROOT
HETATM    1  C   UNL     1       4.782  26.457  51.563  1.00  0.00     0.148 A 
HETATM    2  N   UNL     1       4.589  26.321  50.229  1.00  0.00    -0.165 NA
HETATM    3  N   UNL     1       4.254  27.566  49.833  1.00  0.00    -0.240 N 
HETATM    4  C   UNL     1       4.126  28.455  50.862  1.00  0.00     0.123 A 
HETATM    5  N   UNL     1       3.718  29.724  50.668  1.00  0.00    -0.366 N 
HETATM    6  C   UNL     1       3.486  30.282  49.345  1.00  0.00     0.118 C 
HETATM    7  C   UNL     1       3.195  29.188  48.302  1.00  0.00     0.066 C 
HETATM    8  C   UNL     1       4.015  27.889  48.441  1.00  0.00     0.221 C 
HETATM    9  C   UNL     1       4.490  27.779  51.994  1.00  0.00     0.089 A 
HETATM   10  H   UNL     1       3.749  30.403  51.427  1.00  0.00     0.161 HD
ENDROOT
BRANCH   1  11
HETATM   11  C   UNL     1       5.234  25.349  52.423  1.00  0.00     0.276 C 
HETATM   12  N   UNL     1       6.604  25.340  52.595  1.00  0.00    -0.322 N 
HETATM   13  H   UNL     1       7.087  26.068  52.075  1.00  0.00     0.169 HD
HETATM   14  O   UNL     1       4.431  24.549  52.893  1.00  0.00    -0.266 OA
BRANCH  12  15
HETATM   15  C   UNL     1       7.372  24.455  53.373  1.00  0.00     0.035 A 
HETATM   16  C   UNL     1       7.717  24.696  54.706  1.00  0.00     0.039 A 
HETATM   17  C   UNL     1       8.500  23.783  55.436  1.00  0.00    -0.028 A 
HETATM   18  C   UNL     1       8.915  22.603  54.808  1.00  0.00     0.010 A 
HETATM   19  C   UNL     1       8.578  22.353  53.479  1.00  0.00     0.003 A 
HETATM   20  C   UNL     1       7.816  23.278  52.763  1.00  0.00     0.029 A 
BRANCH  17  21
HETATM   21  C   UNL     1       8.848  24.092  56.877  1.00  0.00     0.147 C 
HETATM   22  C   UNL     1       8.356  25.474  57.289  1.00  0.00     0.044 C 
BRANCH  21  23
HETATM   23  O   UNL     1       8.277  23.117  57.749  1.00  0.00    -0.391 OA
HETATM   24  H   UNL     1       7.348  23.015  57.487  1.00  0.00     0.210 HD
ENDBRANCH  21  23
ENDBRANCH  17  21
ENDBRANCH  12  15
ENDBRANCH   1  11
BRANCH   8  25
HETATM   25  C   UNL     1       5.317  27.911  47.670  1.00  0.00     0.409 C 
HETATM   26  F   UNL     1       5.701  26.702  47.221  1.00  0.00    -0.169 F 
HETATM   27  F   UNL     1       5.261  28.742  46.605  1.00  0.00    -0.169 F 
HETATM   28  F   UNL     1       6.317  28.378  48.461  1.00  0.00    -0.169 F 
ENDBRANCH   8  25
BRANCH   6  29
HETATM   29  C   UNL     1       4.556  31.292  48.963  1.00  0.00    -0.035 A 
HETATM   30  C   UNL     1       5.530  31.747  49.869  1.00  0.00     0.012 A 
HETATM   31  C   UNL     1       6.472  32.706  49.489  1.00  0.00     0.043 A 
HETATM   32  C   UNL     1       6.437  33.230  48.206  1.00  0.00     0.116 A 
HETATM   33  F   UNL     1       7.329  34.163  47.847  1.00  0.00    -0.206 F 
HETATM   34  C   UNL     1       5.485  32.805  47.289  1.00  0.00     0.043 A 
HETATM   35  C   UNL     1       4.552  31.834  47.664  1.00  0.00     0.012 A 
ENDBRANCH   6  29
TORSDOF 6
ENDMDL
MODEL 9
REMARK VINA RESULT:      -9.2      6.206      9.265
REMARK  6 active torsions:
REMARK  status: ('A' for Active; 'I' for Inactive)
REMARK    1  A    between atoms: C_2  and  O_3 
REMARK    2  A    between atoms: C_2  and  C_4 
REMARK    3  A    between atoms: C_6  and  N_7 
REMARK       I    between atoms: N_7  and  C_8 
REMARK    4  A    between atoms: C_8  and  C_9 
REMARK    5  A    between atoms: C_14  and  C_15 
REMARK    6  A    between atoms: C_23  and  C_24 
ROOT
HETATM    1  C   UNL     1       5.427  27.779  50.545  1.00  0.00     0.148 A 
HETATM    2  N   UNL     1       5.730  28.297  51.760  1.00  0.00    -0.165 NA
HETATM    3  N   UNL     1       5.691  27.223  52.575  1.00  0.00    -0.240 N 
HETATM    4  C   UNL     1       5.279  26.077  51.957  1.00  0.00     0.123 A 
HETATM    5  N   UNL     1       5.100  24.923  52.629  1.00  0.00    -0.366 N 
HETATM    6  C   UNL     1       5.433  24.773  54.037  1.00  0.00     0.118 C 
HETATM    7  C   UNL     1       5.442  26.125  54.773  1.00  0.00     0.066 C 
HETATM    8  C   UNL     1       6.020  27.317  53.983  1.00  0.00     0.221 C 
HETATM    9  C   UNL     1       5.128  26.394  50.635  1.00  0.00     0.089 A 
HETATM   10  H   UNL     1       4.914  24.054  52.131  1.00  0.00     0.161 HD
ENDROOT
BRANCH   1  11
HETATM   11  C   UNL     1       5.414  28.587  49.313  1.00  0.00     0.276 C 
HETATM   12  N   UNL     1       5.227  29.931  49.565  1.00  0.00    -0.322 N 
HETATM   13  H   UNL     1       5.089  30.148  50.549  1.00  0.00     0.169 HD
HETATM   14  O   UNL     1       5.549  28.059  48.213  1.00  0.00    -0.266 OA
BRANCH  12  15
HETATM   15  C   UNL     1       5.194  30.989  48.639  1.00  0.00     0.035 A 
HETATM   16  C   UNL     1       4.393  30.992  47.494  1.00  0.00     0.039 A 
HETATM   17  C   UNL     1       4.408  32.072  46.592  1.00  0.00    -0.028 A 
HETATM   18  C   UNL     1       5.231  33.168  46.872  1.00  0.00     0.010 A 
HETATM   19  C   UNL     1       6.036  33.176  48.011  1.00  0.00     0.003 A 
HETATM   20  C   UNL     1       6.022  32.089  48.886  1.00  0.00     0.029 A 
BRANCH  17  21
HETATM   21  C   UNL     1       3.521  32.025  45.366  1.00  0.00     0.147 C 
HETATM   22  C   UNL     1       4.336  32.106  44.080  1.00  0.00     0.044 C 
BRANCH  21  23
HETATM   23  O   UNL     1       2.750  30.824  45.351  1.00  0.00    -0.391 OA
HETATM   24  H   UNL     1       2.968  30.340  46.164  1.00  0.00     0.210 HD
ENDBRANCH  21  23
ENDBRANCH  17  21
ENDBRANCH  12  15
ENDBRANCH   1  11
BRANCH   8  25
HETATM   25  C   UNL     1       7.510  27.502  54.170  1.00  0.00     0.409 C 
HETATM   26  F   UNL     1       7.926  28.770  53.995  1.00  0.00    -0.169 F 
HETATM   27  F   UNL     1       7.920  27.105  55.396  1.00  0.00    -0.169 F 
HETATM   28  F   UNL     1       8.188  26.734  53.279  1.00  0.00    -0.169 F 
ENDBRANCH   8  25
BRANCH   6  29
HETATM   29  C   UNL     1       6.662  23.902  54.236  1.00  0.00    -0.035 A 
HETATM   30  C   UNL     1       7.307  23.242  53.176  1.00  0.00     0.012 A 
HETATM   31  C   UNL     1       8.411  22.418  53.407  1.00  0.00     0.043 A 
HETATM   32  C   UNL     1       8.869  22.235  54.703  1.00  0.00     0.116 A 
HETATM   33  F   UNL     1       9.917  21.431  54.927  1.00  0.00    -0.206 F 
HETATM   34  C   UNL     1       8.252  22.869  55.773  1.00  0.00     0.043 A 
HETATM   35  C   UNL     1       7.157  23.705  55.540  1.00  0.00     0.012 A 
ENDBRANCH   6  29
TORSDOF 6
ENDMDL
MODEL 10
REMARK VINA RESULT:      -9.1      5.373      9.919
REMARK  6 active torsions:
REMARK  status: ('A' for Active; 'I' for Inactive)
REMARK    1  A    between atoms: C_2  and  O_3 
REMARK    2  A    between atoms: C_2  and  C_4 
REMARK    3  A    between atoms: C_6  and  N_7 
REMARK       I    between atoms: N_7  and  C_8 
REMARK    4  A    between atoms: C_8  and  C_9 
REMARK    5  A    between atoms: C_14  and  C_15 
REMARK    6  A    between atoms: C_23  and  C_24 
ROOT
HETATM    1  C   UNL     1       5.742  27.020  52.901  1.00  0.00     0.148 A 
HETATM    2  N   UNL     1       4.887  27.459  53.856  1.00  0.00    -0.165 NA
HETATM    3  N   UNL     1       5.652  27.494  54.966  1.00  0.00    -0.240 N 
HETATM    4  C   UNL     1       6.913  27.003  54.782  1.00  0.00     0.123 A 
HETATM    5  N   UNL     1       7.792  26.883  55.797  1.00  0.00    -0.366 N 
HETATM    6  C   UNL     1       7.513  27.363  57.140  1.00  0.00     0.118 C 
HETATM    7  C   UNL     1       6.001  27.469  57.411  1.00  0.00     0.066 C 
HETATM    8  C   UNL     1       5.140  27.973  56.235  1.00  0.00     0.221 C 
HETATM    9  C   UNL     1       7.016  26.714  53.449  1.00  0.00     0.089 A 
HETATM   10  H   UNL     1       8.763  26.633  55.617  1.00  0.00     0.161 HD
ENDROOT
BRANCH   1  11
HETATM   11  C   UNL     1       5.357  26.884  51.485  1.00  0.00     0.276 C 
HETATM   12  N   UNL     1       4.611  27.957  51.036  1.00  0.00    -0.322 N 
HETATM   13  H   UNL     1       4.412  28.646  51.757  1.00  0.00     0.169 HD
HETATM   14  O   UNL     1       5.685  25.897  50.834  1.00  0.00    -0.266 OA
BRANCH  12  15
HETATM   15  C   UNL     1       4.106  28.179  49.743  1.00  0.00     0.035 A 
HETATM   16  C   UNL     1       3.221  27.311  49.097  1.00  0.00     0.039 A 
HETATM   17  C   UNL     1       2.756  27.574  47.795  1.00  0.00    -0.028 A 
HETATM   18  C   UNL     1       3.179  28.745  47.156  1.00  0.00     0.010 A 
HETATM   19  C   UNL     1       4.062  29.617  47.790  1.00  0.00     0.003 A 
HETATM   20  C   UNL     1       4.529  29.332  49.075  1.00  0.00     0.029 A 
BRANCH  17  21
HETATM   21  C   UNL     1       1.799  26.601  47.140  1.00  0.00     0.147 C 
HETATM   22  C   UNL     1       0.675  27.325  46.408  1.00  0.00     0.044 C 
BRANCH  21  23
HETATM   23  O   UNL     1       2.492  25.765  46.214  1.00  0.00    -0.391 OA
HETATM   24  H   UNL     1       2.611  24.904  46.648  1.00  0.00     0.210 HD
ENDBRANCH  21  23
ENDBRANCH  17  21
ENDBRANCH  12  15
ENDBRANCH   1  11
BRANCH   8  25
HETATM   25  C   UNL     1       4.975  29.477  56.206  1.00  0.00     0.409 C 
HETATM   26  F   UNL     1       4.900  30.038  57.426  1.00  0.00    -0.169 F 
HETATM   27  F   UNL     1       5.983  30.085  55.540  1.00  0.00    -0.169 F 
HETATM   28  F   UNL     1       3.835  29.807  55.545  1.00  0.00    -0.169 F 
ENDBRANCH   8  25
BRANCH   6  29
HETATM   29  C   UNL     1       8.334  28.596  57.481  1.00  0.00    -0.035 A 
HETATM   30  C   UNL     1       9.522  28.929  56.806  1.00  0.00     0.012 A 
HETATM   31  C   UNL     1      10.269  30.050  57.177  1.00  0.00     0.043 A 
HETATM   32  C   UNL     1       9.843  30.837  58.236  1.00  0.00     0.116 A 
HETATM   33  F   UNL     1      10.568  31.902  58.602  1.00  0.00    -0.206 F 
HETATM   34  C   UNL     1       8.676  30.533  58.925  1.00  0.00     0.043 A 
HETATM   35  C   UNL     1       7.921  29.421  58.545  1.00  0.00     0.012 A 
ENDBRANCH   6  29
TORSDOF 6
ENDMDL
