MODEL 1
REMARK VINA RESULT:     -10.2      0.000      0.000
REMARK  8 active torsions:
REMARK  status: ('A' for Active; 'I' for Inactive)
REMARK    1  A    between atoms: C_7  and  C_8 
REMARK       I    between atoms: C_8  and  N_9 
REMARK    2  A    between atoms: N_9  and  N_10 
REMARK    3  A    between atoms: N_10  and  C_11 
REMARK    4  A    between atoms: C_11  and  N_12 
REMARK    5  A    between atoms: N_12  and  C_13 
REMARK    6  A    between atoms: N_15  and  C_16 
REMARK    7  A    between atoms: C_16  and  C_17 
REMARK    8  A    between atoms: C_29  and  C_30 
ROOT
HETATM    1  C   UNL     1       5.230  25.287  52.845  1.00  0.00     0.290 C 
HETATM    2  N   UNL     1       4.511  26.126  53.672  1.00  0.00    -0.262 N 
HETATM    3  O   UNL     1       5.110  25.236  51.624  1.00  0.00    -0.264 OA
HETATM    4  H   UNL     1       4.771  26.169  54.658  1.00  0.00     0.190 HD
ENDROOT
BRANCH   2   5
HETATM    5  N   UNL     1       3.696  27.132  53.157  1.00  0.00    -0.273 N 
HETATM    6  H   UNL     1       2.693  26.936  53.060  1.00  0.00     0.189 HD
BRANCH   5   7
HETATM    7  C   UNL     1       4.122  28.431  53.080  1.00  0.00     0.192 C 
HETATM    8  S   UNL     1       4.917  29.096  51.760  1.00  0.00    -0.039 SA
BRANCH   7   9
HETATM    9  N   UNL     1       3.893  29.237  54.158  1.00  0.00    -0.315 N 
HETATM   10  H   UNL     1       3.187  29.948  54.025  1.00  0.00     0.170 HD
BRANCH   9  11
HETATM   11  C   UNL     1       4.563  29.249  55.362  1.00  0.00     0.151 A 
HETATM   12  N   UNL     1       5.648  28.518  55.633  1.00  0.00    -0.154 NA
HETATM   13  N   UNL     1       5.973  28.860  56.899  1.00  0.00    -0.275 N 
HETATM   14  C   UNL     1       5.119  29.777  57.441  1.00  0.00     0.116 A 
HETATM   15  C   UNL     1       4.188  30.045  56.467  1.00  0.00     0.071 A 
BRANCH  13  16
HETATM   16  C   UNL     1       7.085  28.204  57.573  1.00  0.00     0.192 C 
BRANCH  16  17
HETATM   17  C   UNL     1       8.339  29.027  57.511  1.00  0.00     0.000 A 
HETATM   18  C   UNL     1       8.634  29.941  58.525  1.00  0.00     0.124 A 
HETATM   19  F   UNL     1       7.796  30.077  59.563  1.00  0.00    -0.205 F 
HETATM   20  C   UNL     1       9.789  30.717  58.488  1.00  0.00     0.043 A 
HETATM   21  C   UNL     1      10.673  30.584  57.419  1.00  0.00     0.003 A 
HETATM   22  C   UNL     1      10.392  29.684  56.391  1.00  0.00     0.001 A 
HETATM   23  C   UNL     1       9.228  28.911  56.433  1.00  0.00     0.012 A 
ENDBRANCH  16  17
ENDBRANCH  13  16
ENDBRANCH   9  11
ENDBRANCH   7   9
ENDBRANCH   5   7
ENDBRANCH   2   5
BRANCH   1  24
HETATM   24  C   UNL     1       6.170  24.444  53.602  1.00  0.00     0.150 A 
HETATM   25  N   UNL     1       7.058  23.639  52.976  1.00  0.00    -0.165 NA
HETATM   26  N   UNL     1       7.712  23.035  53.982  1.00  0.00    -0.240 N 
HETATM   27  C   UNL     1       7.311  23.443  55.224  1.00  0.00     0.123 A 
HETATM   28  C   UNL     1       8.805  22.120  53.726  1.00  0.00     0.221 C 
HETATM   29  N   UNL     1       7.903  22.985  56.348  1.00  0.00    -0.371 N 
HETATM   30  C   UNL     1       6.301  24.346  55.015  1.00  0.00     0.089 A 
HETATM   31  C   UNL     1       8.843  21.871  56.310  1.00  0.00     0.081 C 
HETATM   32  H   UNL     1       7.489  23.184  57.259  1.00  0.00     0.161 HD
HETATM   33  C   UNL     1       8.117  20.563  56.600  1.00  0.00     0.032 C 
HETATM   34  C   UNL     1       9.644  21.892  54.998  1.00  0.00     0.061 C 
BRANCH  28  35
HETATM   35  C   UNL     1       8.306  20.838  53.097  1.00  0.00     0.409 C 
HETATM   36  F   UNL     1       8.289  20.892  51.747  1.00  0.00    -0.169 F 
HETATM   37  F   UNL     1       9.140  19.813  53.421  1.00  0.00    -0.169 F 
HETATM   38  F   UNL     1       7.076  20.475  53.508  1.00  0.00    -0.169 F 
ENDBRANCH  28  35
ENDBRANCH   1  24
TORSDOF 8
ENDMDL
MODEL 2
REMARK VINA RESULT:      -9.5      4.911     10.757
REMARK  8 active torsions:
REMARK  status: ('A' for Active; 'I' for Inactive)
REMARK    1  A    between atoms: C_7  and  C_8 
REMARK       I    between atoms: C_8  and  N_9 
REMARK    2  A    between atoms: N_9  and  N_10 
REMARK    3  A    between atoms: N_10  and  C_11 
REMARK    4  A    between atoms: C_11  and  N_12 
REMARK    5  A    between atoms: N_12  and  C_13 
REMARK    6  A    between atoms: N_15  and  C_16 
REMARK    7  A    between atoms: C_16  and  C_17 
REMARK    8  A    between atoms: C_29  and  C_30 
ROOT
HETATM    1  C   UNL     1       8.197  30.661  60.079  1.00  0.00     0.290 C 
HETATM    2  N   UNL     1       7.636  30.010  58.999  1.00  0.00    -0.262 N 
HETATM    3  O   UNL     1       9.289  30.390  60.570  1.00  0.00    -0.264 OA
HETATM    4  H   UNL     1       6.776  30.391  58.600  1.00  0.00     0.190 HD
ENDROOT
BRANCH   2   5
HETATM    5  N   UNL     1       8.361  29.084  58.251  1.00  0.00    -0.273 N 
HETATM    6  H   UNL     1       8.161  28.088  58.394  1.00  0.00     0.189 HD
BRANCH   5   7
HETATM    7  C   UNL     1       9.075  29.458  57.144  1.00  0.00     0.192 C 
HETATM    8  S   UNL     1      10.643  30.057  57.179  1.00  0.00    -0.039 SA
BRANCH   7   9
HETATM    9  N   UNL     1       8.462  29.347  55.928  1.00  0.00    -0.315 N 
HETATM   10  H   UNL     1       8.355  30.212  55.417  1.00  0.00     0.170 HD
BRANCH   9  11
HETATM   11  C   UNL     1       7.907  28.221  55.362  1.00  0.00     0.151 A 
HETATM   12  N   UNL     1       7.524  27.138  56.045  1.00  0.00    -0.154 NA
HETATM   13  N   UNL     1       7.023  26.309  55.104  1.00  0.00    -0.275 N 
HETATM   14  C   UNL     1       7.087  26.830  53.843  1.00  0.00     0.116 A 
HETATM   15  C   UNL     1       7.663  28.070  53.978  1.00  0.00     0.071 A 
BRANCH  13  16
HETATM   16  C   UNL     1       6.563  24.977  55.471  1.00  0.00     0.192 C 
BRANCH  16  17
HETATM   17  C   UNL     1       7.398  23.904  54.835  1.00  0.00     0.000 A 
HETATM   18  C   UNL     1       8.509  23.385  55.503  1.00  0.00     0.124 A 
HETATM   19  F   UNL     1       8.825  23.843  56.723  1.00  0.00    -0.205 F 
HETATM   20  C   UNL     1       9.300  22.391  54.932  1.00  0.00     0.043 A 
HETATM   21  C   UNL     1       8.981  21.901  53.667  1.00  0.00     0.003 A 
HETATM   22  C   UNL     1       7.881  22.413  52.979  1.00  0.00     0.001 A 
HETATM   23  C   UNL     1       7.094  23.413  53.556  1.00  0.00     0.012 A 
ENDBRANCH  16  17
ENDBRANCH  13  16
ENDBRANCH   9  11
ENDBRANCH   7   9
ENDBRANCH   5   7
ENDBRANCH   2   5
BRANCH   1  24
HETATM   24  C   UNL     1       7.324  31.733  60.587  1.00  0.00     0.150 A 
HETATM   25  N   UNL     1       7.575  32.349  61.764  1.00  0.00    -0.165 NA
HETATM   26  N   UNL     1       6.572  33.234  61.885  1.00  0.00    -0.240 N 
HETATM   27  C   UNL     1       5.711  33.242  60.822  1.00  0.00     0.123 A 
HETATM   28  C   UNL     1       6.508  34.149  63.006  1.00  0.00     0.221 C 
HETATM   29  N   UNL     1       4.681  34.113  60.749  1.00  0.00    -0.371 N 
HETATM   30  C   UNL     1       6.161  32.269  59.968  1.00  0.00     0.089 A 
HETATM   31  C   UNL     1       4.299  34.934  61.891  1.00  0.00     0.081 C 
HETATM   32  H   UNL     1       3.969  33.998  60.027  1.00  0.00     0.161 HD
HETATM   33  C   UNL     1       3.186  34.252  62.677  1.00  0.00     0.032 C 
HETATM   34  C   UNL     1       5.539  35.311  62.717  1.00  0.00     0.061 C 
BRANCH  28  35
HETATM   35  C   UNL     1       6.198  33.414  64.292  1.00  0.00     0.409 C 
HETATM   36  F   UNL     1       5.461  32.299  64.090  1.00  0.00    -0.169 F 
HETATM   37  F   UNL     1       7.356  32.999  64.874  1.00  0.00    -0.169 F 
HETATM   38  F   UNL     1       5.557  34.168  65.206  1.00  0.00    -0.169 F 
ENDBRANCH  28  35
ENDBRANCH   1  24
TORSDOF 8
ENDMDL
MODEL 3
REMARK VINA RESULT:      -9.5      2.936      3.827
REMARK  8 active torsions:
REMARK  status: ('A' for Active; 'I' for Inactive)
REMARK    1  A    between atoms: C_7  and  C_8 
REMARK       I    between atoms: C_8  and  N_9 
REMARK    2  A    between atoms: N_9  and  N_10 
REMARK    3  A    between atoms: N_10  and  C_11 
REMARK    4  A    between atoms: C_11  and  N_12 
REMARK    5  A    between atoms: N_12  and  C_13 
REMARK    6  A    between atoms: N_15  and  C_16 
REMARK    7  A    between atoms: C_16  and  C_17 
REMARK    8  A    between atoms: C_29  and  C_30 
ROOT
HETATM    1  C   UNL     1       5.207  27.090  55.365  1.00  0.00     0.290 C 
HETATM    2  N   UNL     1       4.518  27.400  56.520  1.00  0.00    -0.262 N 
HETATM    3  O   UNL     1       5.112  27.705  54.306  1.00  0.00    -0.264 OA
HETATM    4  H   UNL     1       4.758  26.895  57.374  1.00  0.00     0.190 HD
ENDROOT
BRANCH   2   5
HETATM    5  N   UNL     1       3.773  28.572  56.630  1.00  0.00    -0.273 N 
HETATM    6  H   UNL     1       2.772  28.488  56.841  1.00  0.00     0.189 HD
BRANCH   5   7
HETATM    7  C   UNL     1       4.374  29.793  56.777  1.00  0.00     0.192 C 
HETATM    8  S   UNL     1       3.565  31.216  57.150  1.00  0.00    -0.039 SA
BRANCH   7   9
HETATM    9  N   UNL     1       5.726  29.859  56.596  1.00  0.00    -0.315 N 
HETATM   10  H   UNL     1       6.052  29.615  55.671  1.00  0.00     0.170 HD
BRANCH   9  11
HETATM   11  C   UNL     1       6.693  30.135  57.539  1.00  0.00     0.151 A 
HETATM   12  N   UNL     1       6.951  31.352  58.027  1.00  0.00    -0.154 NA
HETATM   13  N   UNL     1       7.939  31.148  58.925  1.00  0.00    -0.275 N 
HETATM   14  C   UNL     1       8.322  29.841  59.012  1.00  0.00     0.116 A 
HETATM   15  C   UNL     1       7.533  29.158  58.118  1.00  0.00     0.071 A 
BRANCH  13  16
HETATM   16  C   UNL     1       8.540  32.277  59.622  1.00  0.00     0.192 C 
BRANCH  16  17
HETATM   17  C   UNL     1       7.939  32.476  60.983  1.00  0.00     0.000 A 
HETATM   18  C   UNL     1       8.645  32.098  62.128  1.00  0.00     0.124 A 
HETATM   19  F   UNL     1       9.869  31.565  62.009  1.00  0.00    -0.205 F 
HETATM   20  C   UNL     1       8.108  32.270  63.401  1.00  0.00     0.043 A 
HETATM   21  C   UNL     1       6.838  32.829  63.542  1.00  0.00     0.003 A 
HETATM   22  C   UNL     1       6.114  33.203  62.410  1.00  0.00     0.001 A 
HETATM   23  C   UNL     1       6.657  33.024  61.136  1.00  0.00     0.012 A 
ENDBRANCH  16  17
ENDBRANCH  13  16
ENDBRANCH   9  11
ENDBRANCH   7   9
ENDBRANCH   5   7
ENDBRANCH   2   5
BRANCH   1  24
HETATM   24  C   UNL     1       6.081  25.919  55.545  1.00  0.00     0.150 A 
HETATM   25  N   UNL     1       6.921  25.508  54.568  1.00  0.00    -0.165 NA
HETATM   26  N   UNL     1       7.522  24.427  55.093  1.00  0.00    -0.240 N 
HETATM   27  C   UNL     1       7.135  24.148  56.375  1.00  0.00     0.123 A 
HETATM   28  C   UNL     1       8.555  23.716  54.369  1.00  0.00     0.221 C 
HETATM   29  N   UNL     1       7.683  23.133  57.077  1.00  0.00    -0.371 N 
HETATM   30  C   UNL     1       6.189  25.088  56.694  1.00  0.00     0.089 A 
HETATM   31  C   UNL     1       8.548  22.149  56.438  1.00  0.00     0.081 C 
HETATM   32  H   UNL     1       7.273  22.851  57.967  1.00  0.00     0.161 HD
HETATM   33  C   UNL     1       7.734  20.930  56.019  1.00  0.00     0.032 C 
HETATM   34  C   UNL     1       9.363  22.803  55.312  1.00  0.00     0.061 C 
BRANCH  28  35
HETATM   35  C   UNL     1       7.980  22.987  53.174  1.00  0.00     0.409 C 
HETATM   36  F   UNL     1       8.040  23.718  52.039  1.00  0.00    -0.169 F 
HETATM   37  F   UNL     1       8.702  21.859  52.934  1.00  0.00    -0.169 F 
HETATM   38  F   UNL     1       6.702  22.596  53.342  1.00  0.00    -0.169 F 
ENDBRANCH  28  35
ENDBRANCH   1  24
TORSDOF 8
ENDMDL
MODEL 4
REMARK VINA RESULT:      -9.5      4.374      7.633
REMARK  8 active torsions:
REMARK  status: ('A' for Active; 'I' for Inactive)
REMARK    1  A    between atoms: C_7  and  C_8 
REMARK       I    between atoms: C_8  and  N_9 
REMARK    2  A    between atoms: N_9  and  N_10 
REMARK    3  A    between atoms: N_10  and  C_11 
REMARK    4  A    between atoms: C_11  and  N_12 
REMARK    5  A    between atoms: N_12  and  C_13 
REMARK    6  A    between atoms: N_15  and  C_16 
REMARK    7  A    between atoms: C_16  and  C_17 
REMARK    8  A    between atoms: C_29  and  C_30 
ROOT
HETATM    1  C   UNL     1       6.552  27.277  52.883  1.00  0.00     0.290 C 
HETATM    2  N   UNL     1       6.628  28.565  53.372  1.00  0.00    -0.262 N 
HETATM    3  O   UNL     1       7.055  26.293  53.419  1.00  0.00    -0.264 OA
HETATM    4  H   UNL     1       6.078  29.290  52.909  1.00  0.00     0.190 HD
ENDROOT
BRANCH   2   5
HETATM    5  N   UNL     1       7.147  28.833  54.638  1.00  0.00    -0.273 N 
HETATM    6  H   UNL     1       8.138  29.090  54.708  1.00  0.00     0.189 HD
BRANCH   5   7
HETATM    7  C   UNL     1       6.331  29.067  55.712  1.00  0.00     0.192 C 
HETATM    8  S   UNL     1       5.225  30.326  55.812  1.00  0.00    -0.039 SA
BRANCH   7   9
HETATM    9  N   UNL     1       6.433  28.223  56.781  1.00  0.00    -0.315 N 
HETATM   10  H   UNL     1       6.382  28.666  57.688  1.00  0.00     0.170 HD
BRANCH   9  11
HETATM   11  C   UNL     1       6.677  26.867  56.767  1.00  0.00     0.151 A 
HETATM   12  N   UNL     1       7.893  26.316  56.709  1.00  0.00    -0.154 NA
HETATM   13  N   UNL     1       7.659  24.986  56.742  1.00  0.00    -0.275 N 
HETATM   14  C   UNL     1       6.330  24.679  56.808  1.00  0.00     0.116 A 
HETATM   15  C   UNL     1       5.666  25.882  56.820  1.00  0.00     0.071 A 
BRANCH  13  16
HETATM   16  C   UNL     1       8.764  24.045  56.626  1.00  0.00     0.192 C 
BRANCH  16  17
HETATM   17  C   UNL     1       8.443  22.924  55.679  1.00  0.00     0.000 A 
HETATM   18  C   UNL     1       8.248  21.628  56.159  1.00  0.00     0.124 A 
HETATM   19  F   UNL     1       8.338  21.386  57.475  1.00  0.00    -0.205 F 
HETATM   20  C   UNL     1       7.952  20.573  55.300  1.00  0.00     0.043 A 
HETATM   21  C   UNL     1       7.850  20.809  53.931  1.00  0.00     0.003 A 
HETATM   22  C   UNL     1       8.051  22.095  53.430  1.00  0.00     0.001 A 
HETATM   23  C   UNL     1       8.351  23.148  54.297  1.00  0.00     0.012 A 
ENDBRANCH  16  17
ENDBRANCH  13  16
ENDBRANCH   9  11
ENDBRANCH   7   9
ENDBRANCH   5   7
ENDBRANCH   2   5
BRANCH   1  24
HETATM   24  C   UNL     1       5.790  27.212  51.624  1.00  0.00     0.150 A 
HETATM   25  N   UNL     1       5.748  28.259  50.770  1.00  0.00    -0.165 NA
HETATM   26  N   UNL     1       4.958  27.829  49.771  1.00  0.00    -0.240 N 
HETATM   27  C   UNL     1       4.525  26.541  49.926  1.00  0.00     0.123 A 
HETATM   28  C   UNL     1       4.704  28.651  48.607  1.00  0.00     0.221 C 
HETATM   29  N   UNL     1       3.774  25.926  48.987  1.00  0.00    -0.371 N 
HETATM   30  C   UNL     1       5.034  26.115  51.127  1.00  0.00     0.089 A 
HETATM   31  C   UNL     1       3.201  26.667  47.870  1.00  0.00     0.081 C 
HETATM   32  H   UNL     1       3.338  25.027  49.194  1.00  0.00     0.161 HD
HETATM   33  C   UNL     1       1.776  27.095  48.202  1.00  0.00     0.032 C 
HETATM   34  C   UNL     1       4.139  27.808  47.447  1.00  0.00     0.061 C 
BRANCH  28  35
HETATM   35  C   UNL     1       3.841  29.842  48.960  1.00  0.00     0.409 C 
HETATM   36  F   UNL     1       4.567  30.936  49.279  1.00  0.00    -0.169 F 
HETATM   37  F   UNL     1       3.084  30.194  47.885  1.00  0.00    -0.169 F 
HETATM   38  F   UNL     1       2.984  29.609  49.972  1.00  0.00    -0.169 F 
ENDBRANCH  28  35
ENDBRANCH   1  24
TORSDOF 8
ENDMDL
MODEL 5
REMARK VINA RESULT:      -9.4      5.639     11.280
REMARK  8 active torsions:
REMARK  status: ('A' for Active; 'I' for Inactive)
REMARK    1  A    between atoms: C_7  and  C_8 
REMARK       I    between atoms: C_8  and  N_9 
REMARK    2  A    between atoms: N_9  and  N_10 
REMARK    3  A    between atoms: N_10  and  C_11 
REMARK    4  A    between atoms: C_11  and  N_12 
REMARK    5  A    between atoms: N_12  and  C_13 
REMARK    6  A    between atoms: N_15  and  C_16 
REMARK    7  A    between atoms: C_16  and  C_17 
REMARK    8  A    between atoms: C_29  and  C_30 
ROOT
HETATM    1  C   UNL     1       8.370  30.980  61.751  1.00  0.00     0.290 C 
HETATM    2  N   UNL     1       7.723  30.823  60.542  1.00  0.00    -0.262 N 
HETATM    3  O   UNL     1       9.443  30.458  62.044  1.00  0.00    -0.264 OA
HETATM    4  H   UNL     1       6.895  31.392  60.362  1.00  0.00     0.190 HD
ENDROOT
BRANCH   2   5
HETATM    5  N   UNL     1       8.336  30.184  59.466  1.00  0.00    -0.273 N 
HETATM    6  H   UNL     1       9.287  29.823  59.599  1.00  0.00     0.189 HD
BRANCH   5   7
HETATM    7  C   UNL     1       7.617  29.755  58.382  1.00  0.00     0.192 C 
HETATM    8  S   UNL     1       6.293  30.562  57.738  1.00  0.00    -0.039 SA
BRANCH   7   9
HETATM    9  N   UNL     1       7.997  28.584  57.793  1.00  0.00    -0.315 N 
HETATM   10  H   UNL     1       8.655  28.027  58.321  1.00  0.00     0.170 HD
BRANCH   9  11
HETATM   11  C   UNL     1       7.657  28.118  56.541  1.00  0.00     0.151 A 
HETATM   12  N   UNL     1       6.753  27.161  56.308  1.00  0.00    -0.154 NA
HETATM   13  N   UNL     1       6.727  27.048  54.962  1.00  0.00    -0.275 N 
HETATM   14  C   UNL     1       7.595  27.896  54.337  1.00  0.00     0.116 A 
HETATM   15  C   UNL     1       8.218  28.602  55.339  1.00  0.00     0.071 A 
BRANCH  13  16
HETATM   16  C   UNL     1       5.894  26.036  54.328  1.00  0.00     0.192 C 
BRANCH  16  17
HETATM   17  C   UNL     1       6.656  24.768  54.069  1.00  0.00     0.000 A 
HETATM   18  C   UNL     1       6.841  23.834  55.090  1.00  0.00     0.124 A 
HETATM   19  F   UNL     1       6.326  24.067  56.306  1.00  0.00    -0.205 F 
HETATM   20  C   UNL     1       7.545  22.653  54.874  1.00  0.00     0.043 A 
HETATM   21  C   UNL     1       8.082  22.393  53.614  1.00  0.00     0.003 A 
HETATM   22  C   UNL     1       7.917  23.318  52.583  1.00  0.00     0.001 A 
HETATM   23  C   UNL     1       7.212  24.503  52.808  1.00  0.00     0.012 A 
ENDBRANCH  16  17
ENDBRANCH  13  16
ENDBRANCH   9  11
ENDBRANCH   7   9
ENDBRANCH   5   7
ENDBRANCH   2   5
BRANCH   1  24
HETATM   24  C   UNL     1       7.619  31.855  62.666  1.00  0.00     0.150 A 
HETATM   25  N   UNL     1       6.272  31.793  62.756  1.00  0.00    -0.165 NA
HETATM   26  N   UNL     1       5.965  32.735  63.663  1.00  0.00    -0.240 N 
HETATM   27  C   UNL     1       7.055  33.370  64.190  1.00  0.00     0.123 A 
HETATM   28  C   UNL     1       4.598  32.949  64.092  1.00  0.00     0.221 C 
HETATM   29  N   UNL     1       6.936  34.301  65.162  1.00  0.00    -0.371 N 
HETATM   30  C   UNL     1       8.146  32.834  63.554  1.00  0.00     0.089 A 
HETATM   31  C   UNL     1       5.634  34.837  65.541  1.00  0.00     0.081 C 
HETATM   32  H   UNL     1       7.742  34.866  65.426  1.00  0.00     0.161 HD
HETATM   33  C   UNL     1       5.357  36.128  64.779  1.00  0.00     0.032 C 
HETATM   34  C   UNL     1       4.549  33.757  65.402  1.00  0.00     0.061 C 
BRANCH  28  35
HETATM   35  C   UNL     1       3.768  33.555  62.981  1.00  0.00     0.409 C 
HETATM   36  F   UNL     1       3.152  32.621  62.222  1.00  0.00    -0.169 F 
HETATM   37  F   UNL     1       2.777  34.320  63.514  1.00  0.00    -0.169 F 
HETATM   38  F   UNL     1       4.469  34.355  62.156  1.00  0.00    -0.169 F 
ENDBRANCH  28  35
ENDBRANCH   1  24
TORSDOF 8
ENDMDL
MODEL 6
REMARK VINA RESULT:      -9.1      2.115      2.734
REMARK  8 active torsions:
REMARK  status: ('A' for Active; 'I' for Inactive)
REMARK    1  A    between atoms: C_7  and  C_8 
REMARK       I    between atoms: C_8  and  N_9 
REMARK    2  A    between atoms: N_9  and  N_10 
REMARK    3  A    between atoms: N_10  and  C_11 
REMARK    4  A    between atoms: C_11  and  N_12 
REMARK    5  A    between atoms: N_12  and  C_13 
REMARK    6  A    between atoms: N_15  and  C_16 
REMARK    7  A    between atoms: C_16  and  C_17 
REMARK    8  A    between atoms: C_29  and  C_30 
ROOT
HETATM    1  C   UNL     1       5.079  26.096  52.397  1.00  0.00     0.290 C 
HETATM    2  N   UNL     1       4.193  26.647  53.301  1.00  0.00    -0.262 N 
HETATM    3  O   UNL     1       5.195  26.448  51.226  1.00  0.00    -0.264 OA
HETATM    4  H   UNL     1       4.260  26.358  54.277  1.00  0.00     0.190 HD
ENDROOT
BRANCH   2   5
HETATM    5  N   UNL     1       3.463  27.794  52.996  1.00  0.00    -0.273 N 
HETATM    6  H   UNL     1       2.450  27.698  52.863  1.00  0.00     0.189 HD
BRANCH   5   7
HETATM    7  C   UNL     1       3.986  29.046  53.178  1.00  0.00     0.192 C 
HETATM    8  S   UNL     1       3.239  30.470  52.696  1.00  0.00    -0.039 SA
BRANCH   7   9
HETATM    9  N   UNL     1       5.206  29.141  53.784  1.00  0.00    -0.315 N 
HETATM   10  H   UNL     1       5.992  29.254  53.159  1.00  0.00     0.170 HD
BRANCH   9  11
HETATM   11  C   UNL     1       5.495  29.018  55.126  1.00  0.00     0.151 A 
HETATM   12  N   UNL     1       6.697  28.700  55.617  1.00  0.00    -0.154 NA
HETATM   13  N   UNL     1       6.525  28.718  56.956  1.00  0.00    -0.275 N 
HETATM   14  C   UNL     1       5.249  29.028  57.328  1.00  0.00     0.116 A 
HETATM   15  C   UNL     1       4.554  29.223  56.159  1.00  0.00     0.071 A 
BRANCH  13  16
HETATM   16  C   UNL     1       7.621  28.346  57.840  1.00  0.00     0.192 C 
BRANCH  16  17
HETATM   17  C   UNL     1       8.481  29.526  58.189  1.00  0.00     0.000 A 
HETATM   18  C   UNL     1       9.636  29.801  57.452  1.00  0.00     0.124 A 
HETATM   19  F   UNL     1       9.971  29.011  56.422  1.00  0.00    -0.205 F 
HETATM   20  C   UNL     1      10.450  30.888  57.758  1.00  0.00     0.043 A 
HETATM   21  C   UNL     1      10.112  31.723  58.822  1.00  0.00     0.003 A 
HETATM   22  C   UNL     1       8.968  31.460  59.576  1.00  0.00     0.001 A 
HETATM   23  C   UNL     1       8.158  30.365  59.266  1.00  0.00     0.012 A 
ENDBRANCH  16  17
ENDBRANCH  13  16
ENDBRANCH   9  11
ENDBRANCH   7   9
ENDBRANCH   5   7
ENDBRANCH   2   5
BRANCH   1  24
HETATM   24  C   UNL     1       5.882  25.020  53.001  1.00  0.00     0.150 A 
HETATM   25  N   UNL     1       5.890  24.809  54.336  1.00  0.00    -0.165 NA
HETATM   26  N   UNL     1       6.734  23.776  54.495  1.00  0.00    -0.240 N 
HETATM   27  C   UNL     1       7.237  23.289  53.321  1.00  0.00     0.123 A 
HETATM   28  C   UNL     1       6.975  23.196  55.800  1.00  0.00     0.221 C 
HETATM   29  N   UNL     1       8.053  22.212  53.289  1.00  0.00    -0.371 N 
HETATM   30  C   UNL     1       6.717  24.083  52.331  1.00  0.00     0.089 A 
HETATM   31  C   UNL     1       8.615  21.651  54.511  1.00  0.00     0.081 C 
HETATM   32  H   UNL     1       8.534  21.965  52.424  1.00  0.00     0.161 HD
HETATM   33  C   UNL     1      10.001  22.233  54.764  1.00  0.00     0.032 C 
HETATM   34  C   UNL     1       7.624  21.805  55.676  1.00  0.00     0.061 C 
BRANCH  28  35
HETATM   35  C   UNL     1       7.755  24.147  56.682  1.00  0.00     0.409 C 
HETATM   36  F   UNL     1       8.496  25.027  55.972  1.00  0.00    -0.169 F 
HETATM   37  F   UNL     1       6.895  24.893  57.425  1.00  0.00    -0.169 F 
HETATM   38  F   UNL     1       8.577  23.528  57.552  1.00  0.00    -0.169 F 
ENDBRANCH  28  35
ENDBRANCH   1  24
TORSDOF 8
ENDMDL
MODEL 7
REMARK VINA RESULT:      -9.1      5.314     11.038
REMARK  8 active torsions:
REMARK  status: ('A' for Active; 'I' for Inactive)
REMARK    1  A    between atoms: C_7  and  C_8 
REMARK       I    between atoms: C_8  and  N_9 
REMARK    2  A    between atoms: N_9  and  N_10 
REMARK    3  A    between atoms: N_10  and  C_11 
REMARK    4  A    between atoms: C_11  and  N_12 
REMARK    5  A    between atoms: N_12  and  C_13 
REMARK    6  A    between atoms: N_15  and  C_16 
REMARK    7  A    between atoms: C_16  and  C_17 
REMARK    8  A    between atoms: C_29  and  C_30 
ROOT
HETATM    1  C   UNL     1       3.666  32.460  59.402  1.00  0.00     0.290 C 
HETATM    2  N   UNL     1       4.243  31.208  59.456  1.00  0.00    -0.262 N 
HETATM    3  O   UNL     1       3.061  32.912  58.433  1.00  0.00    -0.264 OA
HETATM    4  H   UNL     1       4.622  30.890  60.349  1.00  0.00     0.190 HD
ENDROOT
BRANCH   2   5
HETATM    5  N   UNL     1       4.029  30.264  58.453  1.00  0.00    -0.273 N 
HETATM    6  H   UNL     1       3.080  29.894  58.336  1.00  0.00     0.189 HD
BRANCH   5   7
HETATM    7  C   UNL     1       4.941  30.063  57.451  1.00  0.00     0.192 C 
HETATM    8  S   UNL     1       4.672  30.419  55.833  1.00  0.00    -0.039 SA
BRANCH   7   9
HETATM    9  N   UNL     1       6.149  29.525  57.793  1.00  0.00    -0.315 N 
HETATM   10  H   UNL     1       6.778  30.148  58.280  1.00  0.00     0.170 HD
BRANCH   9  11
HETATM   11  C   UNL     1       6.635  28.274  57.481  1.00  0.00     0.151 A 
HETATM   12  N   UNL     1       5.873  27.203  57.239  1.00  0.00    -0.154 NA
HETATM   13  N   UNL     1       6.757  26.221  56.959  1.00  0.00    -0.275 N 
HETATM   14  C   UNL     1       8.056  26.636  57.027  1.00  0.00     0.116 A 
HETATM   15  C   UNL     1       8.009  27.965  57.370  1.00  0.00     0.071 A 
BRANCH  13  16
HETATM   16  C   UNL     1       6.290  24.865  56.706  1.00  0.00     0.192 C 
BRANCH  16  17
HETATM   17  C   UNL     1       6.786  24.341  55.389  1.00  0.00     0.000 A 
HETATM   18  C   UNL     1       6.167  24.726  54.198  1.00  0.00     0.124 A 
HETATM   19  F   UNL     1       5.131  25.576  54.232  1.00  0.00    -0.205 F 
HETATM   20  C   UNL     1       6.607  24.251  52.966  1.00  0.00     0.043 A 
HETATM   21  C   UNL     1       7.687  23.372  52.913  1.00  0.00     0.003 A 
HETATM   22  C   UNL     1       8.313  22.967  54.093  1.00  0.00     0.001 A 
HETATM   23  C   UNL     1       7.863  23.444  55.326  1.00  0.00     0.012 A 
ENDBRANCH  16  17
ENDBRANCH  13  16
ENDBRANCH   9  11
ENDBRANCH   7   9
ENDBRANCH   5   7
ENDBRANCH   2   5
BRANCH   1  24
HETATM   24  C   UNL     1       3.862  33.210  60.654  1.00  0.00     0.150 A 
HETATM   25  N   UNL     1       5.099  33.490  61.124  1.00  0.00    -0.165 NA
HETATM   26  N   UNL     1       4.867  34.156  62.267  1.00  0.00    -0.240 N 
HETATM   27  C   UNL     1       3.539  34.351  62.533  1.00  0.00     0.123 A 
HETATM   28  C   UNL     1       5.955  34.692  63.059  1.00  0.00     0.221 C 
HETATM   29  N   UNL     1       3.126  35.055  63.609  1.00  0.00    -0.371 N 
HETATM   30  C   UNL     1       2.858  33.736  61.514  1.00  0.00     0.089 A 
HETATM   31  C   UNL     1       4.057  35.452  64.658  1.00  0.00     0.081 C 
HETATM   32  H   UNL     1       2.139  35.055  63.867  1.00  0.00     0.161 HD
HETATM   33  C   UNL     1       4.044  34.426  65.785  1.00  0.00     0.032 C 
HETATM   34  C   UNL     1       5.443  35.743  64.062  1.00  0.00     0.061 C 
BRANCH  28  35
HETATM   35  C   UNL     1       6.754  33.582  63.706  1.00  0.00     0.409 C 
HETATM   36  F   UNL     1       7.303  33.955  64.884  1.00  0.00    -0.169 F 
HETATM   37  F   UNL     1       5.937  32.532  63.988  1.00  0.00    -0.169 F 
HETATM   38  F   UNL     1       7.743  33.102  62.928  1.00  0.00    -0.169 F 
ENDBRANCH  28  35
ENDBRANCH   1  24
TORSDOF 8
ENDMDL
MODEL 8
REMARK VINA RESULT:      -9.1      3.962      9.988
REMARK  8 active torsions:
REMARK  status: ('A' for Active; 'I' for Inactive)
REMARK    1  A    between atoms: C_7  and  C_8 
REMARK       I    between atoms: C_8  and  N_9 
REMARK    2  A    between atoms: N_9  and  N_10 
REMARK    3  A    between atoms: N_10  and  C_11 
REMARK    4  A    between atoms: C_11  and  N_12 
REMARK    5  A    between atoms: N_12  and  C_13 
REMARK    6  A    between atoms: N_15  and  C_16 
REMARK    7  A    between atoms: C_16  and  C_17 
REMARK    8  A    between atoms: C_29  and  C_30 
ROOT
HETATM    1  C   UNL     1       4.456  31.224  57.988  1.00  0.00     0.290 C 
HETATM    2  N   UNL     1       4.569  29.858  58.152  1.00  0.00    -0.262 N 
HETATM    3  O   UNL     1       4.190  31.783  56.927  1.00  0.00    -0.264 OA
HETATM    4  H   UNL     1       4.680  29.494  59.099  1.00  0.00     0.190 HD
ENDROOT
BRANCH   2   5
HETATM    5  N   UNL     1       4.209  28.972  57.138  1.00  0.00    -0.273 N 
HETATM    6  H   UNL     1       3.223  28.696  57.067  1.00  0.00     0.189 HD
BRANCH   5   7
HETATM    7  C   UNL     1       5.039  28.719  56.079  1.00  0.00     0.192 C 
HETATM    8  S   UNL     1       4.682  29.083  54.480  1.00  0.00    -0.039 SA
BRANCH   7   9
HETATM    9  N   UNL     1       6.237  28.117  56.343  1.00  0.00    -0.315 N 
HETATM   10  H   UNL     1       7.018  28.745  56.465  1.00  0.00     0.170 HD
BRANCH   9  11
HETATM   11  C   UNL     1       6.515  26.768  56.379  1.00  0.00     0.151 A 
HETATM   12  N   UNL     1       7.744  26.245  56.321  1.00  0.00    -0.154 NA
HETATM   13  N   UNL     1       7.544  24.913  56.411  1.00  0.00    -0.275 N 
HETATM   14  C   UNL     1       6.225  24.575  56.513  1.00  0.00     0.116 A 
HETATM   15  C   UNL     1       5.530  25.761  56.489  1.00  0.00     0.071 A 
BRANCH  13  16
HETATM   16  C   UNL     1       8.670  23.995  56.312  1.00  0.00     0.192 C 
BRANCH  16  17
HETATM   17  C   UNL     1       8.388  22.867  55.362  1.00  0.00     0.000 A 
HETATM   18  C   UNL     1       8.235  21.563  55.839  1.00  0.00     0.124 A 
HETATM   19  F   UNL     1       8.332  21.320  57.154  1.00  0.00    -0.205 F 
HETATM   20  C   UNL     1       7.976  20.501  54.977  1.00  0.00     0.043 A 
HETATM   21  C   UNL     1       7.866  20.738  53.607  1.00  0.00     0.003 A 
HETATM   22  C   UNL     1       8.025  22.032  53.110  1.00  0.00     0.001 A 
HETATM   23  C   UNL     1       8.290  23.092  53.981  1.00  0.00     0.012 A 
ENDBRANCH  16  17
ENDBRANCH  13  16
ENDBRANCH   9  11
ENDBRANCH   7   9
ENDBRANCH   5   7
ENDBRANCH   2   5
BRANCH   1  24
HETATM   24  C   UNL     1       4.697  31.949  59.247  1.00  0.00     0.150 A 
HETATM   25  N   UNL     1       5.948  32.243  59.665  1.00  0.00    -0.165 NA
HETATM   26  N   UNL     1       5.758  32.879  60.832  1.00  0.00    -0.240 N 
HETATM   27  C   UNL     1       4.441  33.042  61.164  1.00  0.00     0.123 A 
HETATM   28  C   UNL     1       6.872  33.419  61.585  1.00  0.00     0.221 C 
HETATM   29  N   UNL     1       4.065  33.714  62.274  1.00  0.00    -0.371 N 
HETATM   30  C   UNL     1       3.724  32.436  60.164  1.00  0.00     0.089 A 
HETATM   31  C   UNL     1       5.037  34.106  63.287  1.00  0.00     0.081 C 
HETATM   32  H   UNL     1       3.092  33.689  62.578  1.00  0.00     0.161 HD
HETATM   33  C   UNL     1       5.095  33.056  64.390  1.00  0.00     0.032 C 
HETATM   34  C   UNL     1       6.388  34.437  62.634  1.00  0.00     0.061 C 
BRANCH  28  35
HETATM   35  C   UNL     1       7.721  32.311  62.169  1.00  0.00     0.409 C 
HETATM   36  F   UNL     1       7.019  31.178  62.390  1.00  0.00    -0.169 F 
HETATM   37  F   UNL     1       8.707  31.979  61.292  1.00  0.00    -0.169 F 
HETATM   38  F   UNL     1       8.330  32.647  63.322  1.00  0.00    -0.169 F 
ENDBRANCH  28  35
ENDBRANCH   1  24
TORSDOF 8
ENDMDL
MODEL 9
REMARK VINA RESULT:      -9.0      5.072      6.832
REMARK  8 active torsions:
REMARK  status: ('A' for Active; 'I' for Inactive)
REMARK    1  A    between atoms: C_7  and  C_8 
REMARK       I    between atoms: C_8  and  N_9 
REMARK    2  A    between atoms: N_9  and  N_10 
REMARK    3  A    between atoms: N_10  and  C_11 
REMARK    4  A    between atoms: C_11  and  N_12 
REMARK    5  A    between atoms: N_12  and  C_13 
REMARK    6  A    between atoms: N_15  and  C_16 
REMARK    7  A    between atoms: C_16  and  C_17 
REMARK    8  A    between atoms: C_29  and  C_30 
ROOT
HETATM    1  C   UNL     1       6.459  28.993  57.335  1.00  0.00     0.290 C 
HETATM    2  N   UNL     1       7.648  28.869  58.024  1.00  0.00    -0.262 N 
HETATM    3  O   UNL     1       5.551  29.763  57.637  1.00  0.00    -0.264 OA
HETATM    4  H   UNL     1       8.379  28.282  57.621  1.00  0.00     0.190 HD
ENDROOT
BRANCH   2   5
HETATM    5  N   UNL     1       7.995  29.755  59.042  1.00  0.00    -0.273 N 
HETATM    6  H   UNL     1       7.661  29.554  59.990  1.00  0.00     0.189 HD
BRANCH   5   7
HETATM    7  C   UNL     1       8.996  30.676  58.880  1.00  0.00     0.192 C 
HETATM    8  S   UNL     1      10.261  30.526  57.787  1.00  0.00    -0.039 SA
BRANCH   7   9
HETATM    9  N   UNL     1       8.967  31.788  59.672  1.00  0.00    -0.315 N 
HETATM   10  H   UNL     1       9.537  32.560  59.355  1.00  0.00     0.170 HD
BRANCH   9  11
HETATM   11  C   UNL     1       8.326  31.948  60.881  1.00  0.00     0.151 A 
HETATM   12  N   UNL     1       7.011  32.141  61.023  1.00  0.00    -0.154 NA
HETATM   13  N   UNL     1       6.828  32.219  62.359  1.00  0.00    -0.275 N 
HETATM   14  C   UNL     1       7.988  32.093  63.067  1.00  0.00     0.116 A 
HETATM   15  C   UNL     1       8.981  31.921  62.133  1.00  0.00     0.071 A 
BRANCH  13  16
HETATM   16  C   UNL     1       5.506  32.500  62.902  1.00  0.00     0.192 C 
BRANCH  16  17
HETATM   17  C   UNL     1       5.374  33.931  63.337  1.00  0.00     0.000 A 
HETATM   18  C   UNL     1       4.932  34.239  64.625  1.00  0.00     0.124 A 
HETATM   19  F   UNL     1       4.632  33.250  65.480  1.00  0.00    -0.205 F 
HETATM   20  C   UNL     1       4.800  35.558  65.051  1.00  0.00     0.043 A 
HETATM   21  C   UNL     1       5.113  36.597  64.177  1.00  0.00     0.003 A 
HETATM   22  C   UNL     1       5.548  36.310  62.882  1.00  0.00     0.001 A 
HETATM   23  C   UNL     1       5.674  34.984  62.461  1.00  0.00     0.012 A 
ENDBRANCH  16  17
ENDBRANCH  13  16
ENDBRANCH   9  11
ENDBRANCH   7   9
ENDBRANCH   5   7
ENDBRANCH   2   5
BRANCH   1  24
HETATM   24  C   UNL     1       6.396  28.082  56.180  1.00  0.00     0.150 A 
HETATM   25  N   UNL     1       6.158  26.760  56.335  1.00  0.00    -0.165 NA
HETATM   26  N   UNL     1       6.192  26.277  55.082  1.00  0.00    -0.240 N 
HETATM   27  C   UNL     1       6.402  27.233  54.127  1.00  0.00     0.123 A 
HETATM   28  C   UNL     1       5.921  24.881  54.806  1.00  0.00     0.221 C 
HETATM   29  N   UNL     1       6.404  26.934  52.810  1.00  0.00    -0.371 N 
HETATM   30  C   UNL     1       6.554  28.415  54.806  1.00  0.00     0.089 A 
HETATM   31  C   UNL     1       6.406  25.552  52.346  1.00  0.00     0.081 C 
HETATM   32  H   UNL     1       6.713  27.630  52.131  1.00  0.00     0.161 HD
HETATM   33  C   UNL     1       7.834  25.093  52.077  1.00  0.00     0.032 C 
HETATM   34  C   UNL     1       5.610  24.662  53.314  1.00  0.00     0.061 C 
BRANCH  28  35
HETATM   35  C   UNL     1       7.035  23.998  55.324  1.00  0.00     0.409 C 
HETATM   36  F   UNL     1       6.840  23.609  56.603  1.00  0.00    -0.169 F 
HETATM   37  F   UNL     1       7.094  22.855  54.588  1.00  0.00    -0.169 F 
HETATM   38  F   UNL     1       8.255  24.565  55.250  1.00  0.00    -0.169 F 
ENDBRANCH  28  35
ENDBRANCH   1  24
TORSDOF 8
ENDMDL
MODEL 10
REMARK VINA RESULT:      -9.0      3.623      9.972
REMARK  8 active torsions:
REMARK  status: ('A' for Active; 'I' for Inactive)
REMARK    1  A    between atoms: C_7  and  C_8 
REMARK       I    between atoms: C_8  and  N_9 
REMARK    2  A    between atoms: N_9  and  N_10 
REMARK    3  A    between atoms: N_10  and  C_11 
REMARK    4  A    between atoms: C_11  and  N_12 
REMARK    5  A    between atoms: N_12  and  C_13 
REMARK    6  A    between atoms: N_15  and  C_16 
REMARK    7  A    between atoms: C_16  and  C_17 
REMARK    8  A    between atoms: C_29  and  C_30 
ROOT
HETATM    1  C   UNL     1       6.439  30.658  57.367  1.00  0.00     0.290 C 
HETATM    2  N   UNL     1       7.681  30.057  57.324  1.00  0.00    -0.262 N 
HETATM    3  O   UNL     1       5.592  30.581  56.481  1.00  0.00    -0.264 OA
HETATM    4  H   UNL     1       8.261  30.090  58.163  1.00  0.00     0.190 HD
ENDROOT
BRANCH   2   5
HETATM    5  N   UNL     1       8.014  29.147  56.322  1.00  0.00    -0.273 N 
HETATM    6  H   UNL     1       8.873  29.313  55.787  1.00  0.00     0.189 HD
BRANCH   5   7
HETATM    7  C   UNL     1       7.424  27.913  56.250  1.00  0.00     0.192 C 
HETATM    8  S   UNL     1       7.520  26.739  57.446  1.00  0.00    -0.039 SA
BRANCH   7   9
HETATM    9  N   UNL     1       6.718  27.614  55.120  1.00  0.00    -0.315 N 
HETATM   10  H   UNL     1       6.151  28.366  54.752  1.00  0.00     0.170 HD
BRANCH   9  11
HETATM   11  C   UNL     1       6.625  26.398  54.478  1.00  0.00     0.151 A 
HETATM   12  N   UNL     1       7.665  25.610  54.192  1.00  0.00    -0.154 NA
HETATM   13  N   UNL     1       7.113  24.531  53.596  1.00  0.00    -0.275 N 
HETATM   14  C   UNL     1       5.755  24.618  53.486  1.00  0.00     0.116 A 
HETATM   15  C   UNL     1       5.408  25.824  54.046  1.00  0.00     0.071 A 
BRANCH  13  16
HETATM   16  C   UNL     1       7.960  23.468  53.073  1.00  0.00     0.192 C 
BRANCH  16  17
HETATM   17  C   UNL     1       8.181  22.382  54.086  1.00  0.00     0.000 A 
HETATM   18  C   UNL     1       8.320  21.054  53.679  1.00  0.00     0.124 A 
HETATM   19  F   UNL     1       8.264  20.750  52.374  1.00  0.00    -0.205 F 
HETATM   20  C   UNL     1       8.523  20.030  54.600  1.00  0.00     0.043 A 
HETATM   21  C   UNL     1       8.588  20.330  55.959  1.00  0.00     0.003 A 
HETATM   22  C   UNL     1       8.442  21.650  56.388  1.00  0.00     0.001 A 
HETATM   23  C   UNL     1       8.234  22.672  55.458  1.00  0.00     0.012 A 
ENDBRANCH  16  17
ENDBRANCH  13  16
ENDBRANCH   9  11
ENDBRANCH   7   9
ENDBRANCH   5   7
ENDBRANCH   2   5
BRANCH   1  24
HETATM   24  C   UNL     1       6.240  31.417  58.612  1.00  0.00     0.150 A 
HETATM   25  N   UNL     1       7.281  31.775  59.396  1.00  0.00    -0.165 NA
HETATM   26  N   UNL     1       6.706  32.424  60.422  1.00  0.00    -0.240 N 
HETATM   27  C   UNL     1       5.347  32.533  60.313  1.00  0.00     0.123 A 
HETATM   28  C   UNL     1       7.501  33.027  61.471  1.00  0.00     0.221 C 
HETATM   29  N   UNL     1       4.613  33.209  61.224  1.00  0.00    -0.371 N 
HETATM   30  C   UNL     1       5.009  31.877  59.157  1.00  0.00     0.089 A 
HETATM   31  C   UNL     1       5.196  33.663  62.480  1.00  0.00     0.081 C 
HETATM   32  H   UNL     1       3.595  33.146  61.204  1.00  0.00     0.161 HD
HETATM   33  C   UNL     1       4.939  32.638  63.578  1.00  0.00     0.032 C 
HETATM   34  C   UNL     1       6.671  34.043  62.280  1.00  0.00     0.061 C 
BRANCH  28  35
HETATM   35  C   UNL     1       8.160  31.971  62.330  1.00  0.00     0.409 C 
HETATM   36  F   UNL     1       8.292  32.355  63.619  1.00  0.00    -0.169 F 
HETATM   37  F   UNL     1       7.391  30.849  62.349  1.00  0.00    -0.169 F 
HETATM   38  F   UNL     1       9.376  31.594  61.889  1.00  0.00    -0.169 F 
ENDBRANCH  28  35
ENDBRANCH   1  24
TORSDOF 8
ENDMDL
