MODEL 1
REMARK VINA RESULT:      -9.0      0.000      0.000
REMARK  8 active torsions:
REMARK  status: ('A' for Active; 'I' for Inactive)
REMARK    1  A    between atoms: O_2  and  C_3 
REMARK    2  A    between atoms: C_4  and  O_5 
REMARK    3  A    between atoms: C_8  and  N_9 
REMARK       I    between atoms: N_9  and  C_10 
REMARK    4  A    between atoms: C_10  and  C_11 
REMARK       I    between atoms: C_11  and  N_12 
REMARK    5  A    between atoms: N_12  and  C_13 
REMARK    6  A    between atoms: C_13  and  C_14 
REMARK    7  A    between atoms: C_14  and  S_15 
REMARK    8  A    between atoms: S_15  and  C_16 
ROOT
HETATM    1  C   UNL     1       9.750  30.070  57.820  1.00  0.00     0.309 C 
HETATM    2  N   UNL     1       8.777  29.101  57.798  1.00  0.00    -0.351 N 
HETATM    3  O   UNL     1      10.773  30.080  57.148  1.00  0.00    -0.262 OA
HETATM    4  H   UNL     1       8.025  29.193  58.479  1.00  0.00     0.162 HD
ENDROOT
BRANCH   1   5
HETATM    5  C   UNL     1       9.488  31.206  58.834  1.00  0.00     0.313 C 
HETATM    6  N   UNL     1       8.534  30.847  59.762  1.00  0.00    -0.319 N 
HETATM    7  H   UNL     1       8.172  29.902  59.643  1.00  0.00     0.169 HD
HETATM    8  O   UNL     1      10.100  32.257  58.714  1.00  0.00    -0.262 OA
BRANCH   6   9
HETATM    9  C   UNL     1       7.996  31.628  60.800  1.00  0.00     0.037 A 
HETATM   10  C   UNL     1       6.928  32.513  60.630  1.00  0.00     0.069 A 
HETATM   11  C   UNL     1       6.427  33.248  61.715  1.00  0.00     0.103 A 
HETATM   12  C   UNL     1       7.003  33.080  62.987  1.00  0.00     0.101 A 
HETATM   13  C   UNL     1       8.086  32.215  63.152  1.00  0.00     0.042 A 
HETATM   14  C   UNL     1       8.576  31.490  62.064  1.00  0.00     0.032 A 
BRANCH  11  15
HETATM   15  O   UNL     1       5.381  34.132  61.641  1.00  0.00    -0.353 OA
HETATM   16  C   UNL     1       4.623  34.156  60.439  1.00  0.00     0.210 C 
ENDBRANCH  11  15
BRANCH  12  17
HETATM   17  O   UNL     1       6.488  33.835  64.013  1.00  0.00    -0.353 OA
HETATM   18  C   UNL     1       7.143  33.678  65.266  1.00  0.00     0.210 C 
ENDBRANCH  12  17
ENDBRANCH   6   9
ENDBRANCH   1   5
BRANCH   2  19
HETATM   19  C   UNL     1       8.868  27.885  57.009  1.00  0.00     0.144 C 
BRANCH  19  20
HETATM   20  C   UNL     1       7.486  27.266  56.612  1.00  0.00     0.033 C 
HETATM   21  C   UNL     1       6.360  28.234  57.035  1.00  0.00     0.049 C 
HETATM   22  C   UNL     1       6.322  29.476  56.148  1.00  0.00     0.169 C 
HETATM   23  O   UNL     1       6.210  29.112  54.774  1.00  0.00    -0.391 OA
HETATM   24  C   UNL     1       7.312  28.330  54.318  1.00  0.00     0.169 C 
HETATM   25  C   UNL     1       7.391  27.018  55.094  1.00  0.00     0.049 C 
BRANCH  20  26
HETATM   26  S   UNL     1       7.376  25.661  57.587  1.00  0.00    -0.118 SA
BRANCH  26  27
HETATM   27  C   UNL     1       7.734  24.402  56.379  1.00  0.00     0.001 A 
HETATM   28  C   UNL     1       6.777  24.048  55.424  1.00  0.00     0.018 A 
HETATM   29  C   UNL     1       7.071  23.088  54.452  1.00  0.00     0.001 A 
HETATM   30  C   UNL     1       8.330  22.493  54.418  1.00  0.00     0.000 A 
HETATM   31  C   UNL     1       9.300  22.864  55.348  1.00  0.00     0.001 A 
HETATM   32  C   UNL     1       9.006  23.823  56.319  1.00  0.00     0.018 A 
ENDBRANCH  26  27
ENDBRANCH  20  26
ENDBRANCH  19  20
ENDBRANCH   2  19
TORSDOF 8
ENDMDL
MODEL 2
REMARK VINA RESULT:      -8.9      2.185      2.938
REMARK  8 active torsions:
REMARK  status: ('A' for Active; 'I' for Inactive)
REMARK    1  A    between atoms: O_2  and  C_3 
REMARK    2  A    between atoms: C_4  and  O_5 
REMARK    3  A    between atoms: C_8  and  N_9 
REMARK       I    between atoms: N_9  and  C_10 
REMARK    4  A    between atoms: C_10  and  C_11 
REMARK       I    between atoms: C_11  and  N_12 
REMARK    5  A    between atoms: N_12  and  C_13 
REMARK    6  A    between atoms: C_13  and  C_14 
REMARK    7  A    between atoms: C_14  and  S_15 
REMARK    8  A    between atoms: S_15  and  C_16 
ROOT
HETATM    1  C   UNL     1       8.207  28.641  55.874  1.00  0.00     0.309 C 
HETATM    2  N   UNL     1       7.362  27.659  55.417  1.00  0.00    -0.351 N 
HETATM    3  O   UNL     1       9.098  29.182  55.233  1.00  0.00    -0.262 OA
HETATM    4  H   UNL     1       6.726  27.250  56.099  1.00  0.00     0.162 HD
ENDROOT
BRANCH   1   5
HETATM    5  C   UNL     1       7.985  29.027  57.353  1.00  0.00     0.313 C 
HETATM    6  N   UNL     1       7.887  30.393  57.511  1.00  0.00    -0.319 N 
HETATM    7  H   UNL     1       7.959  30.919  56.642  1.00  0.00     0.169 HD
HETATM    8  O   UNL     1       7.939  28.141  58.194  1.00  0.00    -0.262 OA
BRANCH   6   9
HETATM    9  C   UNL     1       7.738  31.120  58.705  1.00  0.00     0.037 A 
HETATM   10  C   UNL     1       6.504  31.545  59.206  1.00  0.00     0.069 A 
HETATM   11  C   UNL     1       6.427  32.250  60.416  1.00  0.00     0.103 A 
HETATM   12  C   UNL     1       7.606  32.522  61.133  1.00  0.00     0.101 A 
HETATM   13  C   UNL     1       8.841  32.120  60.621  1.00  0.00     0.042 A 
HETATM   14  C   UNL     1       8.904  31.420  59.415  1.00  0.00     0.032 A 
BRANCH  11  15
HETATM   15  O   UNL     1       5.261  32.698  60.984  1.00  0.00    -0.353 OA
HETATM   16  C   UNL     1       4.101  32.733  60.165  1.00  0.00     0.210 C 
ENDBRANCH  11  15
BRANCH  12  17
HETATM   17  O   UNL     1       7.478  33.231  62.303  1.00  0.00    -0.353 OA
HETATM   18  C   UNL     1       7.958  32.568  63.467  1.00  0.00     0.210 C 
ENDBRANCH  12  17
ENDBRANCH   6   9
ENDBRANCH   1   5
BRANCH   2  19
HETATM   19  C   UNL     1       7.463  27.060  54.098  1.00  0.00     0.144 C 
BRANCH  19  20
HETATM   20  C   UNL     1       7.146  25.528  54.057  1.00  0.00     0.033 C 
HETATM   21  C   UNL     1       5.652  25.313  54.381  1.00  0.00     0.049 C 
HETATM   22  C   UNL     1       4.756  25.766  53.232  1.00  0.00     0.169 C 
HETATM   23  O   UNL     1       5.125  25.118  52.017  1.00  0.00    -0.391 OA
HETATM   24  C   UNL     1       6.463  25.412  51.619  1.00  0.00     0.169 C 
HETATM   25  C   UNL     1       7.452  24.922  52.673  1.00  0.00     0.049 C 
BRANCH  20  26
HETATM   26  S   UNL     1       8.226  24.774  55.400  1.00  0.00    -0.118 SA
BRANCH  26  27
HETATM   27  C   UNL     1       8.246  23.037  55.008  1.00  0.00     0.001 A 
HETATM   28  C   UNL     1       7.618  22.116  55.851  1.00  0.00     0.018 A 
HETATM   29  C   UNL     1       7.599  20.758  55.524  1.00  0.00     0.001 A 
HETATM   30  C   UNL     1       8.190  20.317  54.342  1.00  0.00     0.000 A 
HETATM   31  C   UNL     1       8.790  21.233  53.480  1.00  0.00     0.001 A 
HETATM   32  C   UNL     1       8.809  22.591  53.808  1.00  0.00     0.018 A 
ENDBRANCH  26  27
ENDBRANCH  20  26
ENDBRANCH  19  20
ENDBRANCH   2  19
TORSDOF 8
ENDMDL
MODEL 3
REMARK VINA RESULT:      -8.6      1.481      2.251
REMARK  8 active torsions:
REMARK  status: ('A' for Active; 'I' for Inactive)
REMARK    1  A    between atoms: O_2  and  C_3 
REMARK    2  A    between atoms: C_4  and  O_5 
REMARK    3  A    between atoms: C_8  and  N_9 
REMARK       I    between atoms: N_9  and  C_10 
REMARK    4  A    between atoms: C_10  and  C_11 
REMARK       I    between atoms: C_11  and  N_12 
REMARK    5  A    between atoms: N_12  and  C_13 
REMARK    6  A    between atoms: C_13  and  C_14 
REMARK    7  A    between atoms: C_14  and  S_15 
REMARK    8  A    between atoms: S_15  and  C_16 
ROOT
HETATM    1  C   UNL     1       6.357  30.668  57.981  1.00  0.00     0.309 C 
HETATM    2  N   UNL     1       6.614  29.320  58.033  1.00  0.00    -0.351 N 
HETATM    3  O   UNL     1       5.664  31.238  57.149  1.00  0.00    -0.262 OA
HETATM    4  H   UNL     1       7.280  29.009  58.738  1.00  0.00     0.162 HD
ENDROOT
BRANCH   1   5
HETATM    5  C   UNL     1       7.068  31.491  59.078  1.00  0.00     0.313 C 
HETATM    6  N   UNL     1       6.305  31.574  60.222  1.00  0.00    -0.319 N 
HETATM    7  H   UNL     1       5.418  31.077  60.169  1.00  0.00     0.169 HD
HETATM    8  O   UNL     1       8.164  31.975  58.836  1.00  0.00    -0.262 OA
BRANCH   6   9
HETATM    9  C   UNL     1       6.590  32.278  61.406  1.00  0.00     0.037 A 
HETATM   10  C   UNL     1       6.003  33.502  61.741  1.00  0.00     0.069 A 
HETATM   11  C   UNL     1       6.319  34.140  62.949  1.00  0.00     0.103 A 
HETATM   12  C   UNL     1       7.228  33.534  63.834  1.00  0.00     0.101 A 
HETATM   13  C   UNL     1       7.833  32.324  63.489  1.00  0.00     0.042 A 
HETATM   14  C   UNL     1       7.511  31.698  62.282  1.00  0.00     0.032 A 
BRANCH  11  15
HETATM   15  O   UNL     1       5.788  35.336  63.361  1.00  0.00    -0.353 OA
HETATM   16  C   UNL     1       5.625  36.355  62.384  1.00  0.00     0.210 C 
ENDBRANCH  11  15
BRANCH  12  17
HETATM   17  O   UNL     1       7.517  34.207  64.996  1.00  0.00    -0.353 OA
HETATM   18  C   UNL     1       6.726  33.841  66.120  1.00  0.00     0.210 C 
ENDBRANCH  12  17
ENDBRANCH   6   9
ENDBRANCH   1   5
BRANCH   2  19
HETATM   19  C   UNL     1       6.146  28.371  57.038  1.00  0.00     0.144 C 
BRANCH  19  20
HETATM   20  C   UNL     1       7.243  27.382  56.521  1.00  0.00     0.033 C 
HETATM   21  C   UNL     1       7.186  27.326  54.980  1.00  0.00     0.049 C 
HETATM   22  C   UNL     1       7.717  28.611  54.350  1.00  0.00     0.169 C 
HETATM   23  O   UNL     1       9.034  28.895  54.813  1.00  0.00    -0.391 OA
HETATM   24  C   UNL     1       9.092  29.090  56.226  1.00  0.00     0.169 C 
HETATM   25  C   UNL     1       8.655  27.823  56.957  1.00  0.00     0.049 C 
BRANCH  20  26
HETATM   26  S   UNL     1       6.779  25.715  57.259  1.00  0.00    -0.118 SA
BRANCH  26  27
HETATM   27  C   UNL     1       7.448  24.535  56.104  1.00  0.00     0.001 A 
HETATM   28  C   UNL     1       8.702  23.961  56.328  1.00  0.00     0.018 A 
HETATM   29  C   UNL     1       9.210  23.007  55.443  1.00  0.00     0.001 A 
HETATM   30  C   UNL     1       8.458  22.608  54.341  1.00  0.00     0.000 A 
HETATM   31  C   UNL     1       7.193  23.153  54.127  1.00  0.00     0.001 A 
HETATM   32  C   UNL     1       6.686  24.107  55.012  1.00  0.00     0.018 A 
ENDBRANCH  26  27
ENDBRANCH  20  26
ENDBRANCH  19  20
ENDBRANCH   2  19
TORSDOF 8
ENDMDL
MODEL 4
REMARK VINA RESULT:      -8.6      5.567      9.931
REMARK  8 active torsions:
REMARK  status: ('A' for Active; 'I' for Inactive)
REMARK    1  A    between atoms: O_2  and  C_3 
REMARK    2  A    between atoms: C_4  and  O_5 
REMARK    3  A    between atoms: C_8  and  N_9 
REMARK       I    between atoms: N_9  and  C_10 
REMARK    4  A    between atoms: C_10  and  C_11 
REMARK       I    between atoms: C_11  and  N_12 
REMARK    5  A    between atoms: N_12  and  C_13 
REMARK    6  A    between atoms: C_13  and  C_14 
REMARK    7  A    between atoms: C_14  and  S_15 
REMARK    8  A    between atoms: S_15  and  C_16 
ROOT
HETATM    1  C   UNL     1       6.952  25.505  52.493  1.00  0.00     0.309 C 
HETATM    2  N   UNL     1       6.788  25.799  53.824  1.00  0.00    -0.351 N 
HETATM    3  O   UNL     1       8.005  25.207  51.945  1.00  0.00    -0.262 OA
HETATM    4  H   UNL     1       5.862  26.110  54.112  1.00  0.00     0.162 HD
ENDROOT
BRANCH   1   5
HETATM    5  C   UNL     1       5.658  25.613  51.657  1.00  0.00     0.313 C 
HETATM    6  N   UNL     1       5.767  26.576  50.677  1.00  0.00    -0.319 N 
HETATM    7  H   UNL     1       6.672  27.042  50.650  1.00  0.00     0.169 HD
HETATM    8  O   UNL     1       4.711  24.893  51.939  1.00  0.00    -0.262 OA
BRANCH   6   9
HETATM    9  C   UNL     1       4.787  26.997  49.761  1.00  0.00     0.037 A 
HETATM   10  C   UNL     1       4.012  28.149  49.930  1.00  0.00     0.069 A 
HETATM   11  C   UNL     1       3.064  28.521  48.966  1.00  0.00     0.103 A 
HETATM   12  C   UNL     1       2.902  27.731  47.814  1.00  0.00     0.101 A 
HETATM   13  C   UNL     1       3.657  26.567  47.657  1.00  0.00     0.042 A 
HETATM   14  C   UNL     1       4.597  26.206  48.625  1.00  0.00     0.032 A 
BRANCH  11  15
HETATM   15  O   UNL     1       2.268  29.635  49.046  1.00  0.00    -0.353 OA
HETATM   16  C   UNL     1       1.292  29.674  50.078  1.00  0.00     0.210 C 
ENDBRANCH  11  15
BRANCH  12  17
HETATM   17  O   UNL     1       1.949  28.129  46.909  1.00  0.00    -0.353 OA
HETATM   18  C   UNL     1       0.807  27.283  46.822  1.00  0.00     0.210 C 
ENDBRANCH  12  17
ENDBRANCH   6   9
ENDBRANCH   1   5
BRANCH   2  19
HETATM   19  C   UNL     1       7.884  25.873  54.775  1.00  0.00     0.144 C 
BRANCH  19  20
HETATM   20  C   UNL     1       7.537  25.340  56.205  1.00  0.00     0.033 C 
HETATM   21  C   UNL     1       7.586  26.514  57.206  1.00  0.00     0.049 C 
HETATM   22  C   UNL     1       6.405  27.462  57.019  1.00  0.00     0.169 C 
HETATM   23  O   UNL     1       5.170  26.755  57.104  1.00  0.00    -0.391 OA
HETATM   24  C   UNL     1       5.039  25.753  56.097  1.00  0.00     0.169 C 
HETATM   25  C   UNL     1       6.135  24.700  56.247  1.00  0.00     0.049 C 
BRANCH  20  26
HETATM   26  S   UNL     1       8.884  24.085  56.594  1.00  0.00    -0.118 SA
BRANCH  26  27
HETATM   27  C   UNL     1       8.469  22.683  55.578  1.00  0.00     0.001 A 
HETATM   28  C   UNL     1       8.669  22.730  54.195  1.00  0.00     0.018 A 
HETATM   29  C   UNL     1       8.380  21.617  53.402  1.00  0.00     0.001 A 
HETATM   30  C   UNL     1       7.910  20.445  53.990  1.00  0.00     0.000 A 
HETATM   31  C   UNL     1       7.738  20.380  55.372  1.00  0.00     0.001 A 
HETATM   32  C   UNL     1       8.026  21.493  56.164  1.00  0.00     0.018 A 
ENDBRANCH  26  27
ENDBRANCH  20  26
ENDBRANCH  19  20
ENDBRANCH   2  19
TORSDOF 8
ENDMDL
MODEL 5
REMARK VINA RESULT:      -8.5      1.719      2.236
REMARK  8 active torsions:
REMARK  status: ('A' for Active; 'I' for Inactive)
REMARK    1  A    between atoms: O_2  and  C_3 
REMARK    2  A    between atoms: C_4  and  O_5 
REMARK    3  A    between atoms: C_8  and  N_9 
REMARK       I    between atoms: N_9  and  C_10 
REMARK    4  A    between atoms: C_10  and  C_11 
REMARK       I    between atoms: C_11  and  N_12 
REMARK    5  A    between atoms: N_12  and  C_13 
REMARK    6  A    between atoms: C_13  and  C_14 
REMARK    7  A    between atoms: C_14  and  S_15 
REMARK    8  A    between atoms: S_15  and  C_16 
ROOT
HETATM    1  C   UNL     1       8.174  30.111  58.559  1.00  0.00     0.309 C 
HETATM    2  N   UNL     1       6.905  29.689  58.244  1.00  0.00    -0.351 N 
HETATM    3  O   UNL     1       9.218  29.599  58.179  1.00  0.00    -0.262 OA
HETATM    4  H   UNL     1       6.136  30.170  58.707  1.00  0.00     0.162 HD
ENDROOT
BRANCH   1   5
HETATM    5  C   UNL     1       8.218  31.325  59.513  1.00  0.00     0.313 C 
HETATM    6  N   UNL     1       7.433  31.122  60.627  1.00  0.00    -0.319 N 
HETATM    7  H   UNL     1       6.970  30.215  60.651  1.00  0.00     0.169 HD
HETATM    8  O   UNL     1       8.888  32.298  59.200  1.00  0.00    -0.262 OA
BRANCH   6   9
HETATM    9  C   UNL     1       7.179  32.014  61.684  1.00  0.00     0.037 A 
HETATM   10  C   UNL     1       6.085  32.884  61.719  1.00  0.00     0.069 A 
HETATM   11  C   UNL     1       5.882  33.734  62.815  1.00  0.00     0.103 A 
HETATM   12  C   UNL     1       6.785  33.700  63.893  1.00  0.00     0.101 A 
HETATM   13  C   UNL     1       7.891  32.850  63.848  1.00  0.00     0.042 A 
HETATM   14  C   UNL     1       8.083  32.009  62.750  1.00  0.00     0.032 A 
BRANCH  11  15
HETATM   15  O   UNL     1       4.835  34.613  62.937  1.00  0.00    -0.353 OA
HETATM   16  C   UNL     1       3.536  34.068  63.120  1.00  0.00     0.210 C 
ENDBRANCH  11  15
BRANCH  12  17
HETATM   17  O   UNL     1       6.551  34.565  64.935  1.00  0.00    -0.353 OA
HETATM   18  C   UNL     1       6.140  33.950  66.151  1.00  0.00     0.210 C 
ENDBRANCH  12  17
ENDBRANCH   6   9
ENDBRANCH   1   5
BRANCH   2  19
HETATM   19  C   UNL     1       6.622  28.501  57.458  1.00  0.00     0.144 C 
BRANCH  19  20
HETATM   20  C   UNL     1       6.324  28.780  55.948  1.00  0.00     0.033 C 
HETATM   21  C   UNL     1       5.106  27.938  55.510  1.00  0.00     0.049 C 
HETATM   22  C   UNL     1       3.807  28.475  56.106  1.00  0.00     0.169 C 
HETATM   23  O   UNL     1       3.634  29.852  55.782  1.00  0.00    -0.391 OA
HETATM   24  C   UNL     1       4.679  30.676  56.297  1.00  0.00     0.169 C 
HETATM   25  C   UNL     1       6.022  30.271  55.695  1.00  0.00     0.049 C 
BRANCH  20  26
HETATM   26  S   UNL     1       7.872  28.222  55.036  1.00  0.00    -0.118 SA
BRANCH  26  27
HETATM   27  C   UNL     1       7.508  26.544  54.562  1.00  0.00     0.001 A 
HETATM   28  C   UNL     1       7.297  26.221  53.219  1.00  0.00     0.018 A 
HETATM   29  C   UNL     1       7.050  24.899  52.841  1.00  0.00     0.001 A 
HETATM   30  C   UNL     1       7.032  23.891  53.803  1.00  0.00     0.000 A 
HETATM   31  C   UNL     1       7.273  24.201  55.140  1.00  0.00     0.001 A 
HETATM   32  C   UNL     1       7.519  25.523  55.517  1.00  0.00     0.018 A 
ENDBRANCH  26  27
ENDBRANCH  20  26
ENDBRANCH  19  20
ENDBRANCH   2  19
TORSDOF 8
ENDMDL
MODEL 6
REMARK VINA RESULT:      -8.4      5.312     10.232
REMARK  8 active torsions:
REMARK  status: ('A' for Active; 'I' for Inactive)
REMARK    1  A    between atoms: O_2  and  C_3 
REMARK    2  A    between atoms: C_4  and  O_5 
REMARK    3  A    between atoms: C_8  and  N_9 
REMARK       I    between atoms: N_9  and  C_10 
REMARK    4  A    between atoms: C_10  and  C_11 
REMARK       I    between atoms: C_11  and  N_12 
REMARK    5  A    between atoms: N_12  and  C_13 
REMARK    6  A    between atoms: C_13  and  C_14 
REMARK    7  A    between atoms: C_14  and  S_15 
REMARK    8  A    between atoms: S_15  and  C_16 
ROOT
HETATM    1  C   UNL     1       4.942  28.739  53.440  1.00  0.00     0.309 C 
HETATM    2  N   UNL     1       5.848  27.716  53.571  1.00  0.00    -0.351 N 
HETATM    3  O   UNL     1       4.936  29.783  54.080  1.00  0.00    -0.262 OA
HETATM    4  H   UNL     1       5.669  26.875  53.024  1.00  0.00     0.162 HD
ENDROOT
BRANCH   1   5
HETATM    5  C   UNL     1       3.832  28.472  52.400  1.00  0.00     0.313 C 
HETATM    6  N   UNL     1       4.311  28.570  51.111  1.00  0.00    -0.319 N 
HETATM    7  H   UNL     1       5.305  28.783  51.052  1.00  0.00     0.169 HD
HETATM    8  O   UNL     1       2.700  28.232  52.793  1.00  0.00    -0.262 OA
BRANCH   6   9
HETATM    9  C   UNL     1       3.595  28.447  49.908  1.00  0.00     0.037 A 
HETATM   10  C   UNL     1       3.739  27.372  49.026  1.00  0.00     0.069 A 
HETATM   11  C   UNL     1       2.977  27.304  47.850  1.00  0.00     0.103 A 
HETATM   12  C   UNL     1       2.052  28.324  47.566  1.00  0.00     0.101 A 
HETATM   13  C   UNL     1       1.926  29.411  48.433  1.00  0.00     0.042 A 
HETATM   14  C   UNL     1       2.691  29.468  49.600  1.00  0.00     0.032 A 
BRANCH  11  15
HETATM   15  O   UNL     1       3.048  26.286  46.934  1.00  0.00    -0.353 OA
HETATM   16  C   UNL     1       3.090  24.955  47.430  1.00  0.00     0.210 C 
ENDBRANCH  11  15
BRANCH  12  17
HETATM   17  O   UNL     1       1.343  28.219  46.394  1.00  0.00    -0.353 OA
HETATM   18  C   UNL     1      -0.001  27.773  46.538  1.00  0.00     0.210 C 
ENDBRANCH  12  17
ENDBRANCH   6   9
ENDBRANCH   1   5
BRANCH   2  19
HETATM   19  C   UNL     1       6.907  27.698  54.565  1.00  0.00     0.144 C 
BRANCH  19  20
HETATM   20  C   UNL     1       6.550  26.924  55.877  1.00  0.00     0.033 C 
HETATM   21  C   UNL     1       7.854  26.451  56.555  1.00  0.00     0.049 C 
HETATM   22  C   UNL     1       8.621  27.616  57.174  1.00  0.00     0.169 C 
HETATM   23  O   UNL     1       7.795  28.341  58.081  1.00  0.00    -0.391 OA
HETATM   24  C   UNL     1       6.649  28.910  57.450  1.00  0.00     0.169 C 
HETATM   25  C   UNL     1       5.764  27.813  56.863  1.00  0.00     0.049 C 
BRANCH  20  26
HETATM   26  S   UNL     1       5.530  25.450  55.309  1.00  0.00    -0.118 SA
BRANCH  26  27
HETATM   27  C   UNL     1       6.742  24.313  54.669  1.00  0.00     0.001 A 
HETATM   28  C   UNL     1       7.279  23.318  55.491  1.00  0.00     0.018 A 
HETATM   29  C   UNL     1       8.201  22.401  54.979  1.00  0.00     0.001 A 
HETATM   30  C   UNL     1       8.575  22.462  53.639  1.00  0.00     0.000 A 
HETATM   31  C   UNL     1       8.020  23.432  52.805  1.00  0.00     0.001 A 
HETATM   32  C   UNL     1       7.099  24.349  53.318  1.00  0.00     0.018 A 
ENDBRANCH  26  27
ENDBRANCH  20  26
ENDBRANCH  19  20
ENDBRANCH   2  19
TORSDOF 8
ENDMDL
MODEL 7
REMARK VINA RESULT:      -8.3      6.235     10.681
REMARK  8 active torsions:
REMARK  status: ('A' for Active; 'I' for Inactive)
REMARK    1  A    between atoms: O_2  and  C_3 
REMARK    2  A    between atoms: C_4  and  O_5 
REMARK    3  A    between atoms: C_8  and  N_9 
REMARK       I    between atoms: N_9  and  C_10 
REMARK    4  A    between atoms: C_10  and  C_11 
REMARK       I    between atoms: C_11  and  N_12 
REMARK    5  A    between atoms: N_12  and  C_13 
REMARK    6  A    between atoms: C_13  and  C_14 
REMARK    7  A    between atoms: C_14  and  S_15 
REMARK    8  A    between atoms: S_15  and  C_16 
ROOT
HETATM    1  C   UNL     1       5.013  26.257  51.640  1.00  0.00     0.309 C 
HETATM    2  N   UNL     1       4.573  26.068  52.927  1.00  0.00    -0.351 N 
HETATM    3  O   UNL     1       5.858  25.587  51.061  1.00  0.00    -0.262 OA
HETATM    4  H   UNL     1       3.924  26.762  53.294  1.00  0.00     0.162 HD
ENDROOT
BRANCH   1   5
HETATM    5  C   UNL     1       4.371  27.465  50.923  1.00  0.00     0.313 C 
HETATM    6  N   UNL     1       3.940  27.133  49.657  1.00  0.00    -0.319 N 
HETATM    7  H   UNL     1       4.097  26.158  49.406  1.00  0.00     0.169 HD
HETATM    8  O   UNL     1       4.326  28.540  51.503  1.00  0.00    -0.262 OA
BRANCH   6   9
HETATM    9  C   UNL     1       3.359  27.972  48.689  1.00  0.00     0.037 A 
HETATM   10  C   UNL     1       2.026  27.875  48.280  1.00  0.00     0.069 A 
HETATM   11  C   UNL     1       1.506  28.759  47.323  1.00  0.00     0.103 A 
HETATM   12  C   UNL     1       2.336  29.757  46.781  1.00  0.00     0.101 A 
HETATM   13  C   UNL     1       3.674  29.838  47.171  1.00  0.00     0.042 A 
HETATM   14  C   UNL     1       4.180  28.951  48.124  1.00  0.00     0.032 A 
BRANCH  11  15
HETATM   15  O   UNL     1       0.212  28.743  46.868  1.00  0.00    -0.353 OA
HETATM   16  C   UNL     1      -0.193  27.636  46.075  1.00  0.00     0.210 C 
ENDBRANCH  11  15
BRANCH  12  17
HETATM   17  O   UNL     1       1.784  30.587  45.835  1.00  0.00    -0.353 OA
HETATM   18  C   UNL     1       2.281  31.920  45.835  1.00  0.00     0.210 C 
ENDBRANCH  12  17
ENDBRANCH   6   9
ENDBRANCH   1   5
BRANCH   2  19
HETATM   19  C   UNL     1       5.119  25.067  53.827  1.00  0.00     0.144 C 
BRANCH  19  20
HETATM   20  C   UNL     1       6.290  25.579  54.730  1.00  0.00     0.033 C 
HETATM   21  C   UNL     1       6.139  27.101  54.936  1.00  0.00     0.049 C 
HETATM   22  C   UNL     1       4.971  27.431  55.862  1.00  0.00     0.169 C 
HETATM   23  O   UNL     1       5.102  26.746  57.105  1.00  0.00    -0.391 OA
HETATM   24  C   UNL     1       5.104  25.327  56.955  1.00  0.00     0.169 C 
HETATM   25  C   UNL     1       6.291  24.882  56.105  1.00  0.00     0.049 C 
BRANCH  20  26
HETATM   26  S   UNL     1       7.854  25.198  53.757  1.00  0.00    -0.118 SA
BRANCH  26  27
HETATM   27  C   UNL     1       8.086  23.448  53.988  1.00  0.00     0.001 A 
HETATM   28  C   UNL     1       7.646  22.544  53.017  1.00  0.00     0.018 A 
HETATM   29  C   UNL     1       7.862  21.173  53.178  1.00  0.00     0.001 A 
HETATM   30  C   UNL     1       8.537  20.701  54.302  1.00  0.00     0.000 A 
HETATM   31  C   UNL     1       9.006  21.599  55.260  1.00  0.00     0.001 A 
HETATM   32  C   UNL     1       8.789  22.969  55.098  1.00  0.00     0.018 A 
ENDBRANCH  26  27
ENDBRANCH  20  26
ENDBRANCH  19  20
ENDBRANCH   2  19
TORSDOF 8
ENDMDL
MODEL 8
REMARK VINA RESULT:      -8.3      2.454      9.103
REMARK  8 active torsions:
REMARK  status: ('A' for Active; 'I' for Inactive)
REMARK    1  A    between atoms: O_2  and  C_3 
REMARK    2  A    between atoms: C_4  and  O_5 
REMARK    3  A    between atoms: C_8  and  N_9 
REMARK       I    between atoms: N_9  and  C_10 
REMARK    4  A    between atoms: C_10  and  C_11 
REMARK       I    between atoms: C_11  and  N_12 
REMARK    5  A    between atoms: N_12  and  C_13 
REMARK    6  A    between atoms: C_13  and  C_14 
REMARK    7  A    between atoms: C_14  and  S_15 
REMARK    8  A    between atoms: S_15  and  C_16 
ROOT
HETATM    1  C   UNL     1       7.891  31.699  59.430  1.00  0.00     0.309 C 
HETATM    2  N   UNL     1       6.581  31.703  59.841  1.00  0.00    -0.351 N 
HETATM    3  O   UNL     1       8.686  32.622  59.548  1.00  0.00    -0.262 OA
HETATM    4  H   UNL     1       6.022  30.887  59.596  1.00  0.00     0.162 HD
ENDROOT
BRANCH   1   5
HETATM    5  C   UNL     1       8.329  30.395  58.728  1.00  0.00     0.313 C 
HETATM    6  N   UNL     1       7.385  29.967  57.820  1.00  0.00    -0.319 N 
HETATM    7  H   UNL     1       6.572  30.575  57.746  1.00  0.00     0.169 HD
HETATM    8  O   UNL     1       9.397  29.888  59.039  1.00  0.00    -0.262 OA
BRANCH   6   9
HETATM    9  C   UNL     1       7.403  28.801  57.034  1.00  0.00     0.037 A 
HETATM   10  C   UNL     1       7.388  28.807  55.636  1.00  0.00     0.069 A 
HETATM   11  C   UNL     1       7.428  27.605  54.915  1.00  0.00     0.103 A 
HETATM   12  C   UNL     1       7.493  26.384  55.609  1.00  0.00     0.101 A 
HETATM   13  C   UNL     1       7.483  26.376  57.005  1.00  0.00     0.042 A 
HETATM   14  C   UNL     1       7.442  27.579  57.712  1.00  0.00     0.032 A 
BRANCH  11  15
HETATM   15  O   UNL     1       7.424  27.518  53.546  1.00  0.00    -0.353 OA
HETATM   16  C   UNL     1       6.260  27.960  52.861  1.00  0.00     0.210 C 
ENDBRANCH  11  15
BRANCH  12  17
HETATM   17  O   UNL     1       7.512  25.235  54.857  1.00  0.00    -0.353 OA
HETATM   18  C   UNL     1       6.696  24.177  55.347  1.00  0.00     0.210 C 
ENDBRANCH  12  17
ENDBRANCH   6   9
ENDBRANCH   1   5
BRANCH   2  19
HETATM   19  C   UNL     1       5.921  32.861  60.420  1.00  0.00     0.144 C 
BRANCH  19  20
HETATM   20  C   UNL     1       4.422  32.627  60.803  1.00  0.00     0.033 C 
HETATM   21  C   UNL     1       3.750  33.991  61.067  1.00  0.00     0.049 C 
HETATM   22  C   UNL     1       3.539  34.775  59.775  1.00  0.00     0.169 C 
HETATM   23  O   UNL     1       2.801  34.004  58.831  1.00  0.00    -0.391 OA
HETATM   24  C   UNL     1       3.468  32.798  58.462  1.00  0.00     0.169 C 
HETATM   25  C   UNL     1       3.656  31.899  59.680  1.00  0.00     0.049 C 
BRANCH  20  26
HETATM   26  S   UNL     1       4.479  31.604  62.381  1.00  0.00    -0.118 SA
BRANCH  26  27
HETATM   27  C   UNL     1       5.570  32.522  63.447  1.00  0.00     0.001 A 
HETATM   28  C   UNL     1       5.052  33.308  64.480  1.00  0.00     0.018 A 
HETATM   29  C   UNL     1       5.909  33.997  65.341  1.00  0.00     0.001 A 
HETATM   30  C   UNL     1       7.289  33.889  65.185  1.00  0.00     0.000 A 
HETATM   31  C   UNL     1       7.814  33.083  64.177  1.00  0.00     0.001 A 
HETATM   32  C   UNL     1       6.957  32.394  63.316  1.00  0.00     0.018 A 
ENDBRANCH  26  27
ENDBRANCH  20  26
ENDBRANCH  19  20
ENDBRANCH   2  19
TORSDOF 8
ENDMDL
MODEL 9
REMARK VINA RESULT:      -8.2      5.278     10.108
REMARK  8 active torsions:
REMARK  status: ('A' for Active; 'I' for Inactive)
REMARK    1  A    between atoms: O_2  and  C_3 
REMARK    2  A    between atoms: C_4  and  O_5 
REMARK    3  A    between atoms: C_8  and  N_9 
REMARK       I    between atoms: N_9  and  C_10 
REMARK    4  A    between atoms: C_10  and  C_11 
REMARK       I    between atoms: C_11  and  N_12 
REMARK    5  A    between atoms: N_12  and  C_13 
REMARK    6  A    between atoms: C_13  and  C_14 
REMARK    7  A    between atoms: C_14  and  S_15 
REMARK    8  A    between atoms: S_15  and  C_16 
ROOT
HETATM    1  C   UNL     1       6.223  26.770  52.358  1.00  0.00     0.309 C 
HETATM    2  N   UNL     1       6.364  27.235  53.643  1.00  0.00    -0.351 N 
HETATM    3  O   UNL     1       6.879  25.878  51.838  1.00  0.00    -0.262 OA
HETATM    4  H   UNL     1       5.798  28.041  53.902  1.00  0.00     0.162 HD
ENDROOT
BRANCH   1   5
HETATM    5  C   UNL     1       5.145  27.509  51.534  1.00  0.00     0.313 C 
HETATM    6  N   UNL     1       5.484  27.572  50.199  1.00  0.00    -0.319 N 
HETATM    7  H   UNL     1       6.366  27.117  49.971  1.00  0.00     0.169 HD
HETATM    8  O   UNL     1       4.165  27.955  52.110  1.00  0.00    -0.262 OA
BRANCH   6   9
HETATM    9  C   UNL     1       4.786  28.206  49.156  1.00  0.00     0.037 A 
HETATM   10  C   UNL     1       3.641  27.676  48.555  1.00  0.00     0.069 A 
HETATM   11  C   UNL     1       2.983  28.373  47.531  1.00  0.00     0.103 A 
HETATM   12  C   UNL     1       3.477  29.623  47.116  1.00  0.00     0.101 A 
HETATM   13  C   UNL     1       4.636  30.140  47.699  1.00  0.00     0.042 A 
HETATM   14  C   UNL     1       5.283  29.436  48.717  1.00  0.00     0.032 A 
BRANCH  11  15
HETATM   15  O   UNL     1       1.852  27.933  46.891  1.00  0.00    -0.353 OA
HETATM   16  C   UNL     1       0.922  27.169  47.647  1.00  0.00     0.210 C 
ENDBRANCH  11  15
BRANCH  12  17
HETATM   17  O   UNL     1       2.807  30.257  46.099  1.00  0.00    -0.353 OA
HETATM   18  C   UNL     1       3.513  31.330  45.486  1.00  0.00     0.210 C 
ENDBRANCH  12  17
ENDBRANCH   6   9
ENDBRANCH   1   5
BRANCH   2  19
HETATM   19  C   UNL     1       7.389  26.769  54.561  1.00  0.00     0.144 C 
BRANCH  19  20
HETATM   20  C   UNL     1       6.901  26.582  56.035  1.00  0.00     0.033 C 
HETATM   21  C   UNL     1       8.124  26.596  56.977  1.00  0.00     0.049 C 
HETATM   22  C   UNL     1       8.720  27.996  57.106  1.00  0.00     0.169 C 
HETATM   23  O   UNL     1       7.729  28.930  57.524  1.00  0.00    -0.391 OA
HETATM   24  C   UNL     1       6.649  29.040  56.598  1.00  0.00     0.169 C 
HETATM   25  C   UNL     1       5.929  27.701  56.457  1.00  0.00     0.049 C 
BRANCH  20  26
HETATM   26  S   UNL     1       6.070  24.895  56.061  1.00  0.00    -0.118 SA
BRANCH  26  27
HETATM   27  C   UNL     1       7.216  23.840  55.198  1.00  0.00     0.001 A 
HETATM   28  C   UNL     1       8.359  23.362  55.845  1.00  0.00     0.018 A 
HETATM   29  C   UNL     1       9.239  22.503  55.181  1.00  0.00     0.001 A 
HETATM   30  C   UNL     1       8.969  22.102  53.875  1.00  0.00     0.000 A 
HETATM   31  C   UNL     1       7.815  22.550  53.234  1.00  0.00     0.001 A 
HETATM   32  C   UNL     1       6.937  23.409  53.898  1.00  0.00     0.018 A 
ENDBRANCH  26  27
ENDBRANCH  20  26
ENDBRANCH  19  20
ENDBRANCH   2  19
TORSDOF 8
ENDMDL
MODEL 10
REMARK VINA RESULT:      -8.2      2.534      4.578
REMARK  8 active torsions:
REMARK  status: ('A' for Active; 'I' for Inactive)
REMARK    1  A    between atoms: O_2  and  C_3 
REMARK    2  A    between atoms: C_4  and  O_5 
REMARK    3  A    between atoms: C_8  and  N_9 
REMARK       I    between atoms: N_9  and  C_10 
REMARK    4  A    between atoms: C_10  and  C_11 
REMARK       I    between atoms: C_11  and  N_12 
REMARK    5  A    between atoms: N_12  and  C_13 
REMARK    6  A    between atoms: C_13  and  C_14 
REMARK    7  A    between atoms: C_14  and  S_15 
REMARK    8  A    between atoms: S_15  and  C_16 
ROOT
HETATM    1  C   UNL     1       7.942  30.249  59.184  1.00  0.00     0.309 C 
HETATM    2  N   UNL     1       6.938  29.780  58.373  1.00  0.00    -0.351 N 
HETATM    3  O   UNL     1       9.069  29.783  59.280  1.00  0.00    -0.262 OA
HETATM    4  H   UNL     1       6.027  30.226  58.468  1.00  0.00     0.162 HD
ENDROOT
BRANCH   1   5
HETATM    5  C   UNL     1       7.536  31.457  60.058  1.00  0.00     0.313 C 
HETATM    6  N   UNL     1       7.376  31.095  61.379  1.00  0.00    -0.319 N 
HETATM    7  H   UNL     1       7.563  30.112  61.567  1.00  0.00     0.169 HD
HETATM    8  O   UNL     1       7.386  32.546  59.526  1.00  0.00    -0.262 OA
BRANCH   6   9
HETATM    9  C   UNL     1       6.962  31.900  62.454  1.00  0.00     0.037 A 
HETATM   10  C   UNL     1       5.621  32.157  62.760  1.00  0.00     0.069 A 
HETATM   11  C   UNL     1       5.279  32.954  63.861  1.00  0.00     0.103 A 
HETATM   12  C   UNL     1       6.297  33.490  64.671  1.00  0.00     0.101 A 
HETATM   13  C   UNL     1       7.635  33.254  64.351  1.00  0.00     0.042 A 
HETATM   14  C   UNL     1       7.964  32.460  63.251  1.00  0.00     0.032 A 
BRANCH  11  15
HETATM   15  O   UNL     1       3.993  33.251  64.238  1.00  0.00    -0.353 OA
HETATM   16  C   UNL     1       3.236  34.096  63.384  1.00  0.00     0.210 C 
ENDBRANCH  11  15
BRANCH  12  17
HETATM   17  O   UNL     1       5.909  34.278  65.727  1.00  0.00    -0.353 OA
HETATM   18  C   UNL     1       6.683  34.124  66.911  1.00  0.00     0.210 C 
ENDBRANCH  12  17
ENDBRANCH   6   9
ENDBRANCH   1   5
BRANCH   2  19
HETATM   19  C   UNL     1       7.056  28.587  57.552  1.00  0.00     0.144 C 
BRANCH  19  20
HETATM   20  C   UNL     1       5.986  28.475  56.416  1.00  0.00     0.033 C 
HETATM   21  C   UNL     1       6.662  28.761  55.057  1.00  0.00     0.049 C 
HETATM   22  C   UNL     1       7.575  27.614  54.630  1.00  0.00     0.169 C 
HETATM   23  O   UNL     1       6.862  26.381  54.610  1.00  0.00    -0.391 OA
HETATM   24  C   UNL     1       6.342  26.022  55.889  1.00  0.00     0.169 C 
HETATM   25  C   UNL     1       5.347  27.073  56.374  1.00  0.00     0.049 C 
BRANCH  20  26
HETATM   26  S   UNL     1       4.716  29.805  56.812  1.00  0.00    -0.118 SA
BRANCH  26  27
HETATM   27  C   UNL     1       4.315  30.501  55.223  1.00  0.00     0.001 A 
HETATM   28  C   UNL     1       3.753  29.701  54.224  1.00  0.00     0.018 A 
HETATM   29  C   UNL     1       3.401  30.255  52.990  1.00  0.00     0.001 A 
HETATM   30  C   UNL     1       3.592  31.614  52.757  1.00  0.00     0.000 A 
HETATM   31  C   UNL     1       4.123  32.425  53.759  1.00  0.00     0.001 A 
HETATM   32  C   UNL     1       4.475  31.871  54.992  1.00  0.00     0.018 A 
ENDBRANCH  26  27
ENDBRANCH  20  26
ENDBRANCH  19  20
ENDBRANCH   2  19
TORSDOF 8
ENDMDL
