MODEL 1
REMARK VINA RESULT:     -10.2      0.000      0.000
REMARK  4 active torsions:
REMARK  status: ('A' for Active; 'I' for Inactive)
REMARK    1  A    between atoms: C_9  and  C_10 
REMARK    2  A    between atoms: C_20  and  C_21 
REMARK       I    between atoms: C_21  and  N_22 
REMARK    3  A    between atoms: N_22  and  C_23 
REMARK    4  A    between atoms: C_26  and  O_27 
ROOT
HETATM    1  C   UNL     1       3.887  30.630  55.407  1.00  0.00     0.070 C 
HETATM    2  C   UNL     1       5.163  29.868  55.673  1.00  0.00     0.037 C 
HETATM    3  N   UNL     1       5.933  30.346  56.731  1.00  0.00    -0.192 N 
HETATM    4  C   UNL     1       7.206  29.956  56.948  1.00  0.00     0.725 A 
HETATM    5  N   UNL     1       7.731  28.925  56.214  1.00  0.00    -0.084 N 
HETATM    6  N   UNL     1       9.036  28.737  56.501  1.00  0.00    -0.149 NA
HETATM    7  C   UNL     1       9.208  29.643  57.471  1.00  0.00     0.275 A 
HETATM    8  N   UNL     1       8.114  30.410  57.775  1.00  0.00    -0.054 NA
HETATM    9  C   UNL     1       6.999  28.226  55.150  1.00  0.00     0.203 C 
HETATM   10  C   UNL     1       5.627  28.845  54.912  1.00  0.00     0.062 C 
HETATM   11  H   UNL     1       5.607  31.180  57.212  1.00  0.00     0.184 HD
ENDROOT
BRANCH  10  12
HETATM   12  C   UNL     1       4.965  28.387  53.661  1.00  0.00     0.256 C 
HETATM   13  N   UNL     1       5.671  28.673  52.514  1.00  0.00    -0.323 N 
HETATM   14  H   UNL     1       6.513  29.224  52.614  1.00  0.00     0.169 HD
HETATM   15  O   UNL     1       3.873  27.838  53.750  1.00  0.00    -0.267 OA
BRANCH  13  16
HETATM   16  C   UNL     1       5.360  28.247  51.204  1.00  0.00     0.035 A 
HETATM   17  C   UNL     1       5.027  26.934  50.869  1.00  0.00     0.032 A 
HETATM   18  C   UNL     1       4.757  26.586  49.541  1.00  0.00     0.039 A 
HETATM   19  C   UNL     1       4.803  27.543  48.530  1.00  0.00     0.068 A 
HETATM   20  C   UNL     1       5.152  28.852  48.850  1.00  0.00     0.039 A 
HETATM   21  C   UNL     1       5.424  29.202  50.181  1.00  0.00     0.032 A 
BRANCH  19  22
HETATM   22  O   UNL     1       4.522  27.078  47.276  1.00  0.00    -0.356 OA
HETATM   23  C   UNL     1       3.307  26.350  47.143  1.00  0.00     0.210 C 
ENDBRANCH  19  22
ENDBRANCH  13  16
ENDBRANCH  10  12
BRANCH   9  24
HETATM   24  C   UNL     1       6.973  26.707  55.371  1.00  0.00    -0.017 A 
HETATM   25  C   UNL     1       7.322  25.723  54.389  1.00  0.00    -0.017 A 
HETATM   26  C   UNL     1       7.179  24.349  54.728  1.00  0.00    -0.025 A 
HETATM   27  C   UNL     1       7.796  26.001  53.082  1.00  0.00     0.013 A 
HETATM   28  C   UNL     1       7.464  23.345  53.788  1.00  0.00     0.012 A 
HETATM   29  C   UNL     1       6.749  23.976  56.008  1.00  0.00     0.012 A 
HETATM   30  C   UNL     1       7.901  23.663  52.505  1.00  0.00     0.001 A 
HETATM   31  C   UNL     1       8.074  24.991  52.156  1.00  0.00     0.001 A 
HETATM   32  C   UNL     1       6.453  24.932  56.969  1.00  0.00     0.002 A 
HETATM   33  C   UNL     1       6.562  26.280  56.655  1.00  0.00     0.010 A 
ENDBRANCH   9  24
TORSDOF 4
ENDMDL
MODEL 2
REMARK VINA RESULT:      -9.2      1.364      2.422
REMARK  4 active torsions:
REMARK  status: ('A' for Active; 'I' for Inactive)
REMARK    1  A    between atoms: C_9  and  C_10 
REMARK    2  A    between atoms: C_20  and  C_21 
REMARK       I    between atoms: C_21  and  N_22 
REMARK    3  A    between atoms: N_22  and  C_23 
REMARK    4  A    between atoms: C_26  and  O_27 
ROOT
HETATM    1  C   UNL     1       3.921  29.387  55.568  1.00  0.00     0.070 C 
HETATM    2  C   UNL     1       5.323  28.926  55.250  1.00  0.00     0.037 C 
HETATM    3  N   UNL     1       6.313  29.395  56.110  1.00  0.00    -0.192 N 
HETATM    4  C   UNL     1       7.631  29.297  55.837  1.00  0.00     0.725 A 
HETATM    5  N   UNL     1       8.043  28.560  54.757  1.00  0.00    -0.084 N 
HETATM    6  N   UNL     1       9.378  28.651  54.587  1.00  0.00    -0.149 NA
HETATM    7  C   UNL     1       9.712  29.398  55.645  1.00  0.00     0.275 A 
HETATM    8  N   UNL     1       8.673  29.816  56.435  1.00  0.00    -0.054 NA
HETATM    9  C   UNL     1       7.125  27.889  53.829  1.00  0.00     0.203 C 
HETATM   10  C   UNL     1       5.668  28.186  54.167  1.00  0.00     0.062 C 
HETATM   11  H   UNL     1       6.032  30.034  56.849  1.00  0.00     0.184 HD
ENDROOT
BRANCH  10  12
HETATM   12  C   UNL     1       4.707  27.793  53.102  1.00  0.00     0.256 C 
HETATM   13  N   UNL     1       5.000  28.311  51.860  1.00  0.00    -0.323 N 
HETATM   14  H   UNL     1       5.774  28.959  51.801  1.00  0.00     0.169 HD
HETATM   15  O   UNL     1       3.754  27.089  53.412  1.00  0.00    -0.267 OA
BRANCH  13  16
HETATM   16  C   UNL     1       4.351  28.007  50.644  1.00  0.00     0.035 A 
HETATM   17  C   UNL     1       3.259  28.718  50.144  1.00  0.00     0.032 A 
HETATM   18  C   UNL     1       2.653  28.337  48.942  1.00  0.00     0.039 A 
HETATM   19  C   UNL     1       3.134  27.251  48.214  1.00  0.00     0.068 A 
HETATM   20  C   UNL     1       4.211  26.523  48.713  1.00  0.00     0.039 A 
HETATM   21  C   UNL     1       4.819  26.904  49.919  1.00  0.00     0.032 A 
BRANCH  19  22
HETATM   22  O   UNL     1       2.456  26.979  47.059  1.00  0.00    -0.356 OA
HETATM   23  C   UNL     1       1.061  27.257  47.080  1.00  0.00     0.210 C 
ENDBRANCH  19  22
ENDBRANCH  13  16
ENDBRANCH  10  12
BRANCH   9  24
HETATM   24  C   UNL     1       7.443  26.395  53.683  1.00  0.00    -0.017 A 
HETATM   25  C   UNL     1       7.612  25.475  54.770  1.00  0.00    -0.017 A 
HETATM   26  C   UNL     1       7.973  24.133  54.469  1.00  0.00    -0.025 A 
HETATM   27  C   UNL     1       7.458  25.791  56.142  1.00  0.00     0.013 A 
HETATM   28  C   UNL     1       8.196  23.202  55.499  1.00  0.00     0.012 A 
HETATM   29  C   UNL     1       8.117  23.717  53.139  1.00  0.00     0.012 A 
HETATM   30  C   UNL     1       8.060  23.562  56.836  1.00  0.00     0.001 A 
HETATM   31  C   UNL     1       7.683  24.855  57.157  1.00  0.00     0.001 A 
HETATM   32  C   UNL     1       7.911  24.601  52.089  1.00  0.00     0.002 A 
HETATM   33  C   UNL     1       7.580  25.923  52.357  1.00  0.00     0.010 A 
ENDBRANCH   9  24
TORSDOF 4
ENDMDL
MODEL 3
REMARK VINA RESULT:      -9.1      2.884      6.653
REMARK  4 active torsions:
REMARK  status: ('A' for Active; 'I' for Inactive)
REMARK    1  A    between atoms: C_9  and  C_10 
REMARK    2  A    between atoms: C_20  and  C_21 
REMARK       I    between atoms: C_21  and  N_22 
REMARK    3  A    between atoms: N_22  and  C_23 
REMARK    4  A    between atoms: C_26  and  O_27 
ROOT
HETATM    1  C   UNL     1       3.946  25.373  49.153  1.00  0.00     0.070 C 
HETATM    2  C   UNL     1       4.453  26.656  49.768  1.00  0.00     0.037 C 
HETATM    3  N   UNL     1       4.304  27.794  48.980  1.00  0.00    -0.192 N 
HETATM    4  C   UNL     1       4.919  28.963  49.253  1.00  0.00     0.725 A 
HETATM    5  N   UNL     1       5.586  29.113  50.441  1.00  0.00    -0.084 N 
HETATM    6  N   UNL     1       6.213  30.306  50.500  1.00  0.00    -0.149 NA
HETATM    7  C   UNL     1       5.816  30.852  49.345  1.00  0.00     0.275 A 
HETATM    8  N   UNL     1       5.023  30.063  48.552  1.00  0.00    -0.054 NA
HETATM    9  C   UNL     1       5.719  28.047  51.441  1.00  0.00     0.203 C 
HETATM   10  C   UNL     1       5.099  26.741  50.957  1.00  0.00     0.062 C 
HETATM   11  H   UNL     1       3.911  27.675  48.050  1.00  0.00     0.184 HD
ENDROOT
BRANCH  10  12
HETATM   12  C   UNL     1       5.462  25.557  51.781  1.00  0.00     0.256 C 
HETATM   13  N   UNL     1       6.811  25.434  52.027  1.00  0.00    -0.323 N 
HETATM   14  H   UNL     1       7.427  26.095  51.571  1.00  0.00     0.169 HD
HETATM   15  O   UNL     1       4.566  24.802  52.137  1.00  0.00    -0.267 OA
BRANCH  13  16
HETATM   16  C   UNL     1       7.432  24.495  52.880  1.00  0.00     0.035 A 
HETATM   17  C   UNL     1       7.837  23.223  52.476  1.00  0.00     0.032 A 
HETATM   18  C   UNL     1       8.421  22.339  53.390  1.00  0.00     0.039 A 
HETATM   19  C   UNL     1       8.622  22.715  54.716  1.00  0.00     0.068 A 
HETATM   20  C   UNL     1       8.205  23.976  55.135  1.00  0.00     0.039 A 
HETATM   21  C   UNL     1       7.617  24.862  54.219  1.00  0.00     0.032 A 
BRANCH  19  22
HETATM   22  O   UNL     1       9.200  21.764  55.510  1.00  0.00    -0.356 OA
HETATM   23  C   UNL     1       8.406  21.300  56.596  1.00  0.00     0.210 C 
ENDBRANCH  19  22
ENDBRANCH  13  16
ENDBRANCH  10  12
BRANCH   9  24
HETATM   24  C   UNL     1       5.236  28.495  52.828  1.00  0.00    -0.017 A 
HETATM   25  C   UNL     1       6.054  28.579  54.001  1.00  0.00    -0.017 A 
HETATM   26  C   UNL     1       5.439  28.947  55.230  1.00  0.00    -0.025 A 
HETATM   27  C   UNL     1       7.446  28.315  54.051  1.00  0.00     0.013 A 
HETATM   28  C   UNL     1       6.187  29.001  56.419  1.00  0.00     0.012 A 
HETATM   29  C   UNL     1       4.074  29.259  55.274  1.00  0.00     0.012 A 
HETATM   30  C   UNL     1       7.547  28.707  56.427  1.00  0.00     0.001 A 
HETATM   31  C   UNL     1       8.177  28.371  55.242  1.00  0.00     0.001 A 
HETATM   32  C   UNL     1       3.294  29.217  54.127  1.00  0.00     0.002 A 
HETATM   33  C   UNL     1       3.867  28.838  52.920  1.00  0.00     0.010 A 
ENDBRANCH   9  24
TORSDOF 4
ENDMDL
MODEL 4
REMARK VINA RESULT:      -8.9      3.927      8.290
REMARK  4 active torsions:
REMARK  status: ('A' for Active; 'I' for Inactive)
REMARK    1  A    between atoms: C_9  and  C_10 
REMARK    2  A    between atoms: C_20  and  C_21 
REMARK       I    between atoms: C_21  and  N_22 
REMARK    3  A    between atoms: N_22  and  C_23 
REMARK    4  A    between atoms: C_26  and  O_27 
ROOT
HETATM    1  C   UNL     1       4.186  28.636  54.684  1.00  0.00     0.070 C 
HETATM    2  C   UNL     1       5.336  28.220  55.570  1.00  0.00     0.037 C 
HETATM    3  N   UNL     1       5.751  26.899  55.427  1.00  0.00    -0.192 N 
HETATM    4  C   UNL     1       6.579  26.289  56.300  1.00  0.00     0.725 A 
HETATM    5  N   UNL     1       7.185  27.027  57.283  1.00  0.00    -0.084 N 
HETATM    6  N   UNL     1       7.899  26.239  58.113  1.00  0.00    -0.149 NA
HETATM    7  C   UNL     1       7.738  25.049  57.525  1.00  0.00     0.275 A 
HETATM    8  N   UNL     1       6.936  25.035  56.412  1.00  0.00    -0.054 NA
HETATM    9  C   UNL     1       6.955  28.463  57.483  1.00  0.00     0.203 C 
HETATM   10  C   UNL     1       5.902  29.003  56.522  1.00  0.00     0.062 C 
HETATM   11  H   UNL     1       5.234  26.310  54.779  1.00  0.00     0.184 HD
ENDROOT
BRANCH  10  12
HETATM   12  C   UNL     1       5.406  30.362  56.869  1.00  0.00     0.256 C 
HETATM   13  N   UNL     1       4.922  30.475  58.153  1.00  0.00    -0.323 N 
HETATM   14  H   UNL     1       4.873  29.629  58.704  1.00  0.00     0.169 HD
HETATM   15  O   UNL     1       5.443  31.230  56.005  1.00  0.00    -0.267 OA
BRANCH  13  16
HETATM   16  C   UNL     1       4.513  31.661  58.800  1.00  0.00     0.035 A 
HETATM   17  C   UNL     1       5.167  32.887  58.665  1.00  0.00     0.032 A 
HETATM   18  C   UNL     1       4.715  34.013  59.363  1.00  0.00     0.039 A 
HETATM   19  C   UNL     1       3.599  33.937  60.192  1.00  0.00     0.068 A 
HETATM   20  C   UNL     1       2.950  32.715  60.348  1.00  0.00     0.039 A 
HETATM   21  C   UNL     1       3.403  31.585  59.651  1.00  0.00     0.032 A 
BRANCH  19  22
HETATM   22  O   UNL     1       3.258  35.104  60.818  1.00  0.00    -0.356 OA
HETATM   23  C   UNL     1       2.553  34.964  62.046  1.00  0.00     0.210 C 
ENDBRANCH  19  22
ENDBRANCH  13  16
ENDBRANCH  10  12
BRANCH   9  24
HETATM   24  C   UNL     1       8.266  29.261  57.491  1.00  0.00    -0.017 A 
HETATM   25  C   UNL     1       8.664  30.188  58.509  1.00  0.00    -0.017 A 
HETATM   26  C   UNL     1       9.882  30.902  58.335  1.00  0.00    -0.025 A 
HETATM   27  C   UNL     1       7.934  30.471  59.691  1.00  0.00     0.013 A 
HETATM   28  C   UNL     1      10.296  31.856  59.280  1.00  0.00     0.012 A 
HETATM   29  C   UNL     1      10.688  30.667  57.214  1.00  0.00     0.012 A 
HETATM   30  C   UNL     1       9.535  32.122  60.415  1.00  0.00     0.001 A 
HETATM   31  C   UNL     1       8.358  31.424  60.623  1.00  0.00     0.001 A 
HETATM   32  C   UNL     1      10.320  29.737  56.252  1.00  0.00     0.002 A 
HETATM   33  C   UNL     1       9.123  29.044  56.387  1.00  0.00     0.010 A 
ENDBRANCH   9  24
TORSDOF 4
ENDMDL
MODEL 5
REMARK VINA RESULT:      -8.6      7.670     11.479
REMARK  4 active torsions:
REMARK  status: ('A' for Active; 'I' for Inactive)
REMARK    1  A    between atoms: C_9  and  C_10 
REMARK    2  A    between atoms: C_20  and  C_21 
REMARK       I    between atoms: C_21  and  N_22 
REMARK    3  A    between atoms: N_22  and  C_23 
REMARK    4  A    between atoms: C_26  and  O_27 
ROOT
HETATM    1  C   UNL     1       2.041  34.381  60.116  1.00  0.00     0.070 C 
HETATM    2  C   UNL     1       3.139  35.037  60.917  1.00  0.00     0.037 C 
HETATM    3  N   UNL     1       2.923  36.374  61.242  1.00  0.00    -0.192 N 
HETATM    4  C   UNL     1       3.891  37.179  61.725  1.00  0.00     0.725 A 
HETATM    5  N   UNL     1       5.102  36.643  62.078  1.00  0.00    -0.084 N 
HETATM    6  N   UNL     1       5.971  37.605  62.450  1.00  0.00    -0.149 NA
HETATM    7  C   UNL     1       5.192  38.688  62.367  1.00  0.00     0.275 A 
HETATM    8  N   UNL     1       3.911  38.473  61.926  1.00  0.00    -0.054 NA
HETATM    9  C   UNL     1       5.440  35.223  61.923  1.00  0.00     0.203 C 
HETATM   10  C   UNL     1       4.316  34.447  61.246  1.00  0.00     0.062 C 
HETATM   11  H   UNL     1       2.077  36.814  60.889  1.00  0.00     0.184 HD
ENDROOT
BRANCH  10  12
HETATM   12  C   UNL     1       4.708  33.088  60.788  1.00  0.00     0.256 C 
HETATM   13  N   UNL     1       5.721  33.078  59.855  1.00  0.00    -0.323 N 
HETATM   14  H   UNL     1       6.044  33.974  59.514  1.00  0.00     0.169 HD
HETATM   15  O   UNL     1       4.101  32.125  61.241  1.00  0.00    -0.267 OA
BRANCH  13  16
HETATM   16  C   UNL     1       6.386  31.943  59.342  1.00  0.00     0.035 A 
HETATM   17  C   UNL     1       5.941  31.210  58.241  1.00  0.00     0.032 A 
HETATM   18  C   UNL     1       6.644  30.079  57.810  1.00  0.00     0.039 A 
HETATM   19  C   UNL     1       7.804  29.670  58.462  1.00  0.00     0.068 A 
HETATM   20  C   UNL     1       8.247  30.383  59.573  1.00  0.00     0.039 A 
HETATM   21  C   UNL     1       7.543  31.516  60.007  1.00  0.00     0.032 A 
BRANCH  19  22
HETATM   22  O   UNL     1       8.397  28.550  57.947  1.00  0.00    -0.356 OA
HETATM   23  C   UNL     1       7.520  27.473  57.639  1.00  0.00     0.210 C 
ENDBRANCH  19  22
ENDBRANCH  13  16
ENDBRANCH  10  12
BRANCH   9  24
HETATM   24  C   UNL     1       5.929  34.599  63.237  1.00  0.00    -0.017 A 
HETATM   25  C   UNL     1       5.293  34.754  64.512  1.00  0.00    -0.017 A 
HETATM   26  C   UNL     1       5.910  34.168  65.652  1.00  0.00    -0.025 A 
HETATM   27  C   UNL     1       4.086  35.459  64.746  1.00  0.00     0.013 A 
HETATM   28  C   UNL     1       5.352  34.327  66.932  1.00  0.00     0.012 A 
HETATM   29  C   UNL     1       7.089  33.423  65.516  1.00  0.00     0.012 A 
HETATM   30  C   UNL     1       4.179  35.051  67.120  1.00  0.00     0.001 A 
HETATM   31  C   UNL     1       3.543  35.611  66.026  1.00  0.00     0.001 A 
HETATM   32  C   UNL     1       7.679  33.241  64.273  1.00  0.00     0.002 A 
HETATM   33  C   UNL     1       7.108  33.823  63.148  1.00  0.00     0.010 A 
ENDBRANCH   9  24
TORSDOF 4
ENDMDL
MODEL 6
REMARK VINA RESULT:      -8.5      9.420     13.808
REMARK  4 active torsions:
REMARK  status: ('A' for Active; 'I' for Inactive)
REMARK    1  A    between atoms: C_9  and  C_10 
REMARK    2  A    between atoms: C_20  and  C_21 
REMARK       I    between atoms: C_21  and  N_22 
REMARK    3  A    between atoms: N_22  and  C_23 
REMARK    4  A    between atoms: C_26  and  O_27 
ROOT
HETATM    1  C   UNL     1       4.092  36.633  58.823  1.00  0.00     0.070 C 
HETATM    2  C   UNL     1       4.131  35.367  59.644  1.00  0.00     0.037 C 
HETATM    3  N   UNL     1       3.880  34.192  58.940  1.00  0.00    -0.192 N 
HETATM    4  C   UNL     1       3.625  33.013  59.545  1.00  0.00     0.725 A 
HETATM    5  N   UNL     1       3.780  32.903  60.902  1.00  0.00    -0.084 N 
HETATM    6  N   UNL     1       3.394  31.687  61.339  1.00  0.00    -0.149 NA
HETATM    7  C   UNL     1       3.089  31.092  60.180  1.00  0.00     0.275 A 
HETATM    8  N   UNL     1       3.215  31.870  59.057  1.00  0.00    -0.054 NA
HETATM    9  C   UNL     1       4.172  34.019  61.771  1.00  0.00     0.203 C 
HETATM   10  C   UNL     1       4.300  35.322  60.990  1.00  0.00     0.062 C 
HETATM   11  H   UNL     1       3.653  34.274  57.953  1.00  0.00     0.184 HD
ENDROOT
BRANCH  10  12
HETATM   12  C   UNL     1       4.394  36.534  61.846  1.00  0.00     0.256 C 
HETATM   13  N   UNL     1       5.682  36.955  62.088  1.00  0.00    -0.323 N 
HETATM   14  H   UNL     1       6.432  36.372  61.740  1.00  0.00     0.169 HD
HETATM   15  O   UNL     1       3.355  37.025  62.272  1.00  0.00    -0.267 OA
BRANCH  13  16
HETATM   16  C   UNL     1       6.074  38.140  62.749  1.00  0.00     0.035 A 
HETATM   17  C   UNL     1       6.800  39.166  62.143  1.00  0.00     0.032 A 
HETATM   18  C   UNL     1       7.174  40.299  62.874  1.00  0.00     0.039 A 
HETATM   19  C   UNL     1       6.818  40.432  64.214  1.00  0.00     0.068 A 
HETATM   20  C   UNL     1       6.109  39.406  64.833  1.00  0.00     0.039 A 
HETATM   21  C   UNL     1       5.735  38.268  64.102  1.00  0.00     0.032 A 
BRANCH  19  22
HETATM   22  O   UNL     1       7.243  41.582  64.818  1.00  0.00    -0.356 OA
HETATM   23  C   UNL     1       6.732  41.820  66.124  1.00  0.00     0.210 C 
ENDBRANCH  19  22
ENDBRANCH  13  16
ENDBRANCH  10  12
BRANCH   9  24
HETATM   24  C   UNL     1       5.400  33.679  62.627  1.00  0.00    -0.017 A 
HETATM   25  C   UNL     1       5.502  33.879  64.043  1.00  0.00    -0.017 A 
HETATM   26  C   UNL     1       6.735  33.576  64.682  1.00  0.00    -0.025 A 
HETATM   27  C   UNL     1       4.467  34.372  64.877  1.00  0.00     0.013 A 
HETATM   28  C   UNL     1       6.903  33.797  66.060  1.00  0.00     0.012 A 
HETATM   29  C   UNL     1       7.806  33.053  63.945  1.00  0.00     0.012 A 
HETATM   30  C   UNL     1       5.869  34.308  66.838  1.00  0.00     0.001 A 
HETATM   31  C   UNL     1       4.649  34.588  66.247  1.00  0.00     0.001 A 
HETATM   32  C   UNL     1       7.689  32.821  62.582  1.00  0.00     0.002 A 
HETATM   33  C   UNL     1       6.502  33.131  61.931  1.00  0.00     0.010 A 
ENDBRANCH   9  24
TORSDOF 4
ENDMDL
MODEL 7
REMARK VINA RESULT:      -7.9      2.186      3.193
REMARK  4 active torsions:
REMARK  status: ('A' for Active; 'I' for Inactive)
REMARK    1  A    between atoms: C_9  and  C_10 
REMARK    2  A    between atoms: C_20  and  C_21 
REMARK       I    between atoms: C_21  and  N_22 
REMARK    3  A    between atoms: N_22  and  C_23 
REMARK    4  A    between atoms: C_26  and  O_27 
ROOT
HETATM    1  C   UNL     1       4.663  30.453  58.014  1.00  0.00     0.070 C 
HETATM    2  C   UNL     1       5.916  29.912  57.369  1.00  0.00     0.037 C 
HETATM    3  N   UNL     1       7.075  30.018  58.136  1.00  0.00    -0.192 N 
HETATM    4  C   UNL     1       8.311  29.826  57.631  1.00  0.00     0.725 A 
HETATM    5  N   UNL     1       8.452  29.340  56.357  1.00  0.00    -0.084 N 
HETATM    6  N   UNL     1       9.749  29.300  55.992  1.00  0.00    -0.149 NA
HETATM    7  C   UNL     1      10.337  29.706  57.123  1.00  0.00     0.275 A 
HETATM    8  N   UNL     1       9.493  30.039  58.150  1.00  0.00    -0.054 NA
HETATM    9  C   UNL     1       7.321  29.049  55.466  1.00  0.00     0.203 C 
HETATM   10  C   UNL     1       5.991  29.433  56.102  1.00  0.00     0.062 C 
HETATM   11  H   UNL     1       7.001  30.479  59.039  1.00  0.00     0.184 HD
ENDROOT
BRANCH  10  12
HETATM   12  C   UNL     1       4.847  29.449  55.151  1.00  0.00     0.256 C 
HETATM   13  N   UNL     1       4.944  30.410  54.170  1.00  0.00    -0.323 N 
HETATM   14  H   UNL     1       5.721  31.055  54.229  1.00  0.00     0.169 HD
HETATM   15  O   UNL     1       3.934  28.652  55.329  1.00  0.00    -0.267 OA
BRANCH  13  16
HETATM   16  C   UNL     1       4.085  30.575  53.062  1.00  0.00     0.035 A 
HETATM   17  C   UNL     1       3.187  31.634  52.922  1.00  0.00     0.032 A 
HETATM   18  C   UNL     1       2.349  31.712  51.804  1.00  0.00     0.039 A 
HETATM   19  C   UNL     1       2.402  30.744  50.804  1.00  0.00     0.068 A 
HETATM   20  C   UNL     1       3.281  29.673  50.943  1.00  0.00     0.039 A 
HETATM   21  C   UNL     1       4.121  29.593  52.064  1.00  0.00     0.032 A 
BRANCH  19  22
HETATM   22  O   UNL     1       1.533  30.931  49.766  1.00  0.00    -0.356 OA
HETATM   23  C   UNL     1       1.248  29.778  48.983  1.00  0.00     0.210 C 
ENDBRANCH  19  22
ENDBRANCH  13  16
ENDBRANCH  10  12
BRANCH   9  24
HETATM   24  C   UNL     1       7.368  27.612  54.928  1.00  0.00    -0.017 A 
HETATM   25  C   UNL     1       7.608  26.440  55.717  1.00  0.00    -0.017 A 
HETATM   26  C   UNL     1       7.689  25.184  55.056  1.00  0.00    -0.025 A 
HETATM   27  C   UNL     1       7.786  26.422  57.123  1.00  0.00     0.013 A 
HETATM   28  C   UNL     1       7.968  24.010  55.777  1.00  0.00     0.012 A 
HETATM   29  C   UNL     1       7.495  25.097  53.671  1.00  0.00     0.012 A 
HETATM   30  C   UNL     1       8.162  24.041  57.154  1.00  0.00     0.001 A 
HETATM   31  C   UNL     1       8.064  25.246  57.828  1.00  0.00     0.001 A 
HETATM   32  C   UNL     1       7.220  26.229  52.916  1.00  0.00     0.002 A 
HETATM   33  C   UNL     1       7.159  27.471  53.536  1.00  0.00     0.010 A 
ENDBRANCH   9  24
TORSDOF 4
ENDMDL
MODEL 8
REMARK VINA RESULT:      -7.5     16.545     19.148
REMARK  4 active torsions:
REMARK  status: ('A' for Active; 'I' for Inactive)
REMARK    1  A    between atoms: C_9  and  C_10 
REMARK    2  A    between atoms: C_20  and  C_21 
REMARK       I    between atoms: C_21  and  N_22 
REMARK    3  A    between atoms: N_22  and  C_23 
REMARK    4  A    between atoms: C_26  and  O_27 
ROOT
HETATM    1  C   UNL     1      12.478  13.200  50.942  1.00  0.00     0.070 C 
HETATM    2  C   UNL     1      13.357  12.057  51.390  1.00  0.00     0.037 C 
HETATM    3  N   UNL     1      14.363  11.695  50.498  1.00  0.00    -0.192 N 
HETATM    4  C   UNL     1      15.070  10.551  50.612  1.00  0.00     0.725 A 
HETATM    5  N   UNL     1      14.929   9.779  51.736  1.00  0.00    -0.084 N 
HETATM    6  N   UNL     1      15.638   8.636  51.634  1.00  0.00    -0.149 NA
HETATM    7  C   UNL     1      16.240   8.823  50.454  1.00  0.00     0.275 A 
HETATM    8  N   UNL     1      15.920   9.982  49.795  1.00  0.00    -0.054 NA
HETATM    9  C   UNL     1      14.005  10.097  52.832  1.00  0.00     0.203 C 
HETATM   10  C   UNL     1      13.171  11.335  52.523  1.00  0.00     0.062 C 
HETATM   11  H   UNL     1      14.407  12.189  49.611  1.00  0.00     0.184 HD
ENDROOT
BRANCH  10  12
HETATM   12  C   UNL     1      12.018  11.533  53.442  1.00  0.00     0.256 C 
HETATM   13  N   UNL     1      10.920  10.757  53.143  1.00  0.00    -0.323 N 
HETATM   14  H   UNL     1      10.964  10.198  52.302  1.00  0.00     0.169 HD
HETATM   15  O   UNL     1      12.127  12.359  54.340  1.00  0.00    -0.267 OA
BRANCH  13  16
HETATM   16  C   UNL     1       9.741  10.633  53.909  1.00  0.00     0.035 A 
HETATM   17  C   UNL     1       8.706  11.571  53.905  1.00  0.00     0.032 A 
HETATM   18  C   UNL     1       7.579  11.388  54.714  1.00  0.00     0.039 A 
HETATM   19  C   UNL     1       7.461  10.264  55.528  1.00  0.00     0.068 A 
HETATM   20  C   UNL     1       8.495   9.332  55.554  1.00  0.00     0.039 A 
HETATM   21  C   UNL     1       9.626   9.515  54.744  1.00  0.00     0.032 A 
BRANCH  19  22
HETATM   22  O   UNL     1       6.315  10.202  56.271  1.00  0.00    -0.356 OA
HETATM   23  C   UNL     1       5.723   8.914  56.388  1.00  0.00     0.210 C 
ENDBRANCH  19  22
ENDBRANCH  13  16
ENDBRANCH  10  12
BRANCH   9  24
HETATM   24  C   UNL     1      14.717  10.143  54.191  1.00  0.00    -0.017 A 
HETATM   25  C   UNL     1      14.276   9.473  55.378  1.00  0.00    -0.017 A 
HETATM   26  C   UNL     1      15.012   9.671  56.579  1.00  0.00    -0.025 A 
HETATM   27  C   UNL     1      13.146   8.623  55.468  1.00  0.00     0.013 A 
HETATM   28  C   UNL     1      14.596   9.075  57.782  1.00  0.00     0.012 A 
HETATM   29  C   UNL     1      16.163  10.469  56.583  1.00  0.00     0.012 A 
HETATM   30  C   UNL     1      13.463   8.268  57.831  1.00  0.00     0.001 A 
HETATM   31  C   UNL     1      12.743   8.036  56.672  1.00  0.00     0.001 A 
HETATM   32  C   UNL     1      16.611  11.081  55.421  1.00  0.00     0.002 A 
HETATM   33  C   UNL     1      15.896  10.922  54.240  1.00  0.00     0.010 A 
ENDBRANCH   9  24
TORSDOF 4
ENDMDL
MODEL 9
REMARK VINA RESULT:      -7.3      6.732     10.164
REMARK  4 active torsions:
REMARK  status: ('A' for Active; 'I' for Inactive)
REMARK    1  A    between atoms: C_9  and  C_10 
REMARK    2  A    between atoms: C_20  and  C_21 
REMARK       I    between atoms: C_21  and  N_22 
REMARK    3  A    between atoms: N_22  and  C_23 
REMARK    4  A    between atoms: C_26  and  O_27 
ROOT
HETATM    1  C   UNL     1       1.487  35.362  59.237  1.00  0.00     0.070 C 
HETATM    2  C   UNL     1       2.642  35.793  60.109  1.00  0.00     0.037 C 
HETATM    3  N   UNL     1       2.596  37.113  60.550  1.00  0.00    -0.192 N 
HETATM    4  C   UNL     1       3.649  37.737  61.116  1.00  0.00     0.725 A 
HETATM    5  N   UNL     1       4.770  37.015  61.435  1.00  0.00    -0.084 N 
HETATM    6  N   UNL     1       5.749  37.816  61.903  1.00  0.00    -0.149 NA
HETATM    7  C   UNL     1       5.120  38.997  61.908  1.00  0.00     0.275 A 
HETATM    8  N   UNL     1       3.834  38.993  61.434  1.00  0.00    -0.054 NA
HETATM    9  C   UNL     1       4.923  35.581  61.156  1.00  0.00     0.203 C 
HETATM   10  C   UNL     1       3.723  35.025  60.398  1.00  0.00     0.062 C 
HETATM   11  H   UNL     1       1.824  37.691  60.228  1.00  0.00     0.184 HD
ENDROOT
BRANCH  10  12
HETATM   12  C   UNL     1       3.945  33.671  59.823  1.00  0.00     0.256 C 
HETATM   13  N   UNL     1       4.720  33.662  58.686  1.00  0.00    -0.323 N 
HETATM   14  H   UNL     1       4.995  34.558  58.306  1.00  0.00     0.169 HD
HETATM   15  O   UNL     1       3.415  32.714  60.375  1.00  0.00    -0.267 OA
BRANCH  13  16
HETATM   16  C   UNL     1       5.205  32.524  58.004  1.00  0.00     0.035 A 
HETATM   17  C   UNL     1       4.672  32.050  56.804  1.00  0.00     0.032 A 
HETATM   18  C   UNL     1       5.192  30.897  56.203  1.00  0.00     0.039 A 
HETATM   19  C   UNL     1       6.257  30.211  56.781  1.00  0.00     0.068 A 
HETATM   20  C   UNL     1       6.784  30.665  57.987  1.00  0.00     0.039 A 
HETATM   21  C   UNL     1       6.263  31.819  58.591  1.00  0.00     0.032 A 
BRANCH  19  22
HETATM   22  O   UNL     1       6.672  29.101  56.099  1.00  0.00    -0.356 OA
HETATM   23  C   UNL     1       7.880  28.508  56.561  1.00  0.00     0.210 C 
ENDBRANCH  19  22
ENDBRANCH  13  16
ENDBRANCH  10  12
BRANCH   9  24
HETATM   24  C   UNL     1       5.293  34.786  62.415  1.00  0.00    -0.017 A 
HETATM   25  C   UNL     1       6.362  33.836  62.508  1.00  0.00    -0.017 A 
HETATM   26  C   UNL     1       6.534  33.129  63.730  1.00  0.00    -0.025 A 
HETATM   27  C   UNL     1       7.276  33.525  61.470  1.00  0.00     0.013 A 
HETATM   28  C   UNL     1       7.538  32.154  63.860  1.00  0.00     0.012 A 
HETATM   29  C   UNL     1       5.700  33.391  64.825  1.00  0.00     0.012 A 
HETATM   30  C   UNL     1       8.397  31.861  62.805  1.00  0.00     0.001 A 
HETATM   31  C   UNL     1       8.270  32.552  61.613  1.00  0.00     0.001 A 
HETATM   32  C   UNL     1       4.693  34.342  64.744  1.00  0.00     0.002 A 
HETATM   33  C   UNL     1       4.490  35.029  63.554  1.00  0.00     0.010 A 
ENDBRANCH   9  24
TORSDOF 4
ENDMDL
MODEL 10
REMARK VINA RESULT:      -7.2      2.971      7.068
REMARK  4 active torsions:
REMARK  status: ('A' for Active; 'I' for Inactive)
REMARK    1  A    between atoms: C_9  and  C_10 
REMARK    2  A    between atoms: C_20  and  C_21 
REMARK       I    between atoms: C_21  and  N_22 
REMARK    3  A    between atoms: N_22  and  C_23 
REMARK    4  A    between atoms: C_26  and  O_27 
ROOT
HETATM    1  C   UNL     1       3.886  25.735  49.205  1.00  0.00     0.070 C 
HETATM    2  C   UNL     1       4.425  27.038  49.746  1.00  0.00     0.037 C 
HETATM    3  N   UNL     1       4.325  28.128  48.885  1.00  0.00    -0.192 N 
HETATM    4  C   UNL     1       4.972  29.292  49.095  1.00  0.00     0.725 A 
HETATM    5  N   UNL     1       5.627  29.497  50.282  1.00  0.00    -0.084 N 
HETATM    6  N   UNL     1       6.290  30.671  50.277  1.00  0.00    -0.149 NA
HETATM    7  C   UNL     1       5.928  31.154  49.083  1.00  0.00     0.275 A 
HETATM    8  N   UNL     1       5.123  30.342  48.327  1.00  0.00    -0.054 NA
HETATM    9  C   UNL     1       5.710  28.493  51.350  1.00  0.00     0.203 C 
HETATM   10  C   UNL     1       5.055  27.179  50.939  1.00  0.00     0.062 C 
HETATM   11  H   UNL     1       3.942  27.963  47.958  1.00  0.00     0.184 HD
ENDROOT
BRANCH  10  12
HETATM   12  C   UNL     1       5.367  26.039  51.841  1.00  0.00     0.256 C 
HETATM   13  N   UNL     1       6.710  25.751  51.943  1.00  0.00    -0.323 N 
HETATM   14  H   UNL     1       7.341  26.273  51.349  1.00  0.00     0.169 HD
HETATM   15  O   UNL     1       4.435  25.453  52.380  1.00  0.00    -0.267 OA
BRANCH  13  16
HETATM   16  C   UNL     1       7.311  24.820  52.818  1.00  0.00     0.035 A 
HETATM   17  C   UNL     1       7.746  23.552  52.428  1.00  0.00     0.032 A 
HETATM   18  C   UNL     1       8.308  22.676  53.363  1.00  0.00     0.039 A 
HETATM   19  C   UNL     1       8.455  23.053  54.696  1.00  0.00     0.068 A 
HETATM   20  C   UNL     1       8.007  24.309  55.099  1.00  0.00     0.039 A 
HETATM   21  C   UNL     1       7.442  25.188  54.163  1.00  0.00     0.032 A 
BRANCH  19  22
HETATM   22  O   UNL     1       9.015  22.109  55.510  1.00  0.00    -0.356 OA
HETATM   23  C   UNL     1       8.748  20.755  55.161  1.00  0.00     0.210 C 
ENDBRANCH  19  22
ENDBRANCH  13  16
ENDBRANCH  10  12
BRANCH   9  24
HETATM   24  C   UNL     1       5.220  29.043  52.697  1.00  0.00    -0.017 A 
HETATM   25  C   UNL     1       4.218  30.054  52.862  1.00  0.00    -0.017 A 
HETATM   26  C   UNL     1       3.924  30.506  54.178  1.00  0.00    -0.025 A 
HETATM   27  C   UNL     1       3.488  30.663  51.812  1.00  0.00     0.013 A 
HETATM   28  C   UNL     1       2.983  31.528  54.392  1.00  0.00     0.012 A 
HETATM   29  C   UNL     1       4.572  29.941  55.284  1.00  0.00     0.012 A 
HETATM   30  C   UNL     1       2.307  32.118  53.329  1.00  0.00     0.001 A 
HETATM   31  C   UNL     1       2.555  31.680  52.039  1.00  0.00     0.001 A 
HETATM   32  C   UNL     1       5.511  28.931  55.122  1.00  0.00     0.002 A 
HETATM   33  C   UNL     1       5.832  28.489  53.845  1.00  0.00     0.010 A 
ENDBRANCH   9  24
TORSDOF 4
ENDMDL
