MODEL 1
REMARK VINA RESULT:      -8.6      0.000      0.000
REMARK  5 active torsions:
REMARK  status: ('A' for Active; 'I' for Inactive)
REMARK    1  A    between atoms: C_8  and  C_9 
REMARK    2  A    between atoms: C_11  and  O_12 
REMARK    3  A    between atoms: C_14  and  O_15 
REMARK    4  A    between atoms: C_18  and  C_19 
REMARK    5  A    between atoms: C_22  and  O_23 
ROOT
HETATM    1  C   UNL     1       9.092  24.597  57.260  1.00  0.00     0.070 C 
HETATM    2  C   UNL     1       8.060  25.608  56.937  1.00  0.00     0.033 A 
HETATM    3  N   UNL     1       7.472  26.364  57.917  1.00  0.00    -0.282 N 
HETATM    4  H   UNL     1       7.632  26.324  58.917  1.00  0.00     0.189 HD
HETATM    5  N   UNL     1       6.615  27.285  57.454  1.00  0.00    -0.179 NA
HETATM    6  C   UNL     1       6.644  27.101  56.132  1.00  0.00     0.066 A 
HETATM    7  C   UNL     1       7.485  26.025  55.748  1.00  0.00     0.001 A 
HETATM    8  C   UNL     1       7.703  25.661  54.310  1.00  0.00     0.070 C 
HETATM    9  C   UNL     1       6.646  26.291  53.357  1.00  0.00     0.102 C 
HETATM   10  C   UNL     1       6.337  27.773  53.719  1.00  0.00     0.071 C 
HETATM   11  C   UNL     1       5.303  28.403  52.772  1.00  0.00     0.047 C 
HETATM   12  C   UNL     1       5.875  27.965  55.190  1.00  0.00     0.100 C 
ENDROOT
BRANCH   8  13
HETATM   13  C   UNL     1       7.839  24.152  54.152  1.00  0.00    -0.046 A 
HETATM   14  C   UNL     1       7.521  23.234  55.172  1.00  0.00     0.047 A 
HETATM   15  C   UNL     1       7.642  21.861  54.954  1.00  0.00     0.101 A 
HETATM   16  C   UNL     1       7.999  21.393  53.690  1.00  0.00     0.099 A 
HETATM   17  C   UNL     1       8.299  22.272  52.661  1.00  0.00     0.040 A 
HETATM   18  C   UNL     1       8.228  23.647  52.895  1.00  0.00     0.011 A 
BRANCH  15  19
HETATM   19  O   UNL     1       7.384  20.910  55.908  1.00  0.00    -0.353 OA
HETATM   20  C   UNL     1       8.392  20.859  56.918  1.00  0.00     0.210 C 
ENDBRANCH  15  19
BRANCH  16  21
HETATM   21  O   UNL     1       8.068  20.051  53.445  1.00  0.00    -0.358 OA
HETATM   22  H   UNL     1       7.851  19.954  52.497  1.00  0.00     0.218 HD
ENDBRANCH  16  21
ENDBRANCH   8  13
BRANCH   9  23
HETATM   23  C   UNL     1       5.362  25.469  53.263  1.00  0.00     0.131 C 
HETATM   24  C   UNL     1       4.946  25.011  51.886  1.00  0.00     0.091 C 
HETATM   25  O   UNL     1       4.663  25.217  54.243  1.00  0.00    -0.298 OA
ENDBRANCH   9  23
BRANCH  10  26
HETATM   26  O   UNL     1       7.560  28.521  53.530  1.00  0.00    -0.389 OA
HETATM   27  H   UNL     1       7.464  29.101  52.755  1.00  0.00     0.210 HD
ENDBRANCH  10  26
TORSDOF 5
ENDMDL
MODEL 2
REMARK VINA RESULT:      -8.3      2.231      3.753
REMARK  5 active torsions:
REMARK  status: ('A' for Active; 'I' for Inactive)
REMARK    1  A    between atoms: C_8  and  C_9 
REMARK    2  A    between atoms: C_11  and  O_12 
REMARK    3  A    between atoms: C_14  and  O_15 
REMARK    4  A    between atoms: C_18  and  C_19 
REMARK    5  A    between atoms: C_22  and  O_23 
ROOT
HETATM    1  C   UNL     1       4.748  24.790  51.874  1.00  0.00     0.070 C 
HETATM    2  C   UNL     1       4.808  26.141  52.479  1.00  0.00     0.033 A 
HETATM    3  N   UNL     1       4.457  27.256  51.765  1.00  0.00    -0.282 N 
HETATM    4  H   UNL     1       4.155  27.311  50.799  1.00  0.00     0.189 HD
HETATM    5  N   UNL     1       4.492  28.392  52.477  1.00  0.00    -0.179 NA
HETATM    6  C   UNL     1       4.896  27.990  53.685  1.00  0.00     0.066 A 
HETATM    7  C   UNL     1       5.169  26.599  53.734  1.00  0.00     0.001 A 
HETATM    8  C   UNL     1       5.597  25.918  55.000  1.00  0.00     0.070 C 
HETATM    9  C   UNL     1       6.081  26.916  56.092  1.00  0.00     0.102 C 
HETATM   10  C   UNL     1       5.170  28.173  56.187  1.00  0.00     0.071 C 
HETATM   11  C   UNL     1       5.638  29.155  57.273  1.00  0.00     0.047 C 
HETATM   12  C   UNL     1       5.019  28.928  54.837  1.00  0.00     0.100 C 
ENDROOT
BRANCH   8  13
HETATM   13  C   UNL     1       6.600  24.811  54.703  1.00  0.00    -0.046 A 
HETATM   14  C   UNL     1       6.671  23.611  55.437  1.00  0.00     0.047 A 
HETATM   15  C   UNL     1       7.596  22.623  55.095  1.00  0.00     0.101 A 
HETATM   16  C   UNL     1       8.397  22.791  53.966  1.00  0.00     0.099 A 
HETATM   17  C   UNL     1       8.336  23.952  53.213  1.00  0.00     0.040 A 
HETATM   18  C   UNL     1       7.448  24.963  53.587  1.00  0.00     0.011 A 
BRANCH  15  19
HETATM   19  O   UNL     1       7.745  21.446  55.782  1.00  0.00    -0.353 OA
HETATM   20  C   UNL     1       8.396  21.625  57.042  1.00  0.00     0.210 C 
ENDBRANCH  15  19
BRANCH  16  21
HETATM   21  O   UNL     1       9.268  21.809  53.587  1.00  0.00    -0.358 OA
HETATM   22  H   UNL     1       8.800  21.311  52.889  1.00  0.00     0.218 HD
ENDBRANCH  16  21
ENDBRANCH   8  13
BRANCH   9  23
HETATM   23  C   UNL     1       7.548  27.311  55.931  1.00  0.00     0.131 C 
HETATM   24  C   UNL     1       8.494  26.881  57.026  1.00  0.00     0.091 C 
HETATM   25  O   UNL     1       7.953  27.983  54.984  1.00  0.00    -0.298 OA
ENDBRANCH   9  23
BRANCH  10  26
HETATM   26  O   UNL     1       3.859  27.719  56.596  1.00  0.00    -0.389 OA
HETATM   27  H   UNL     1       3.269  28.487  56.687  1.00  0.00     0.210 HD
ENDBRANCH  10  26
TORSDOF 5
ENDMDL
MODEL 3
REMARK VINA RESULT:      -8.2      2.863      6.138
REMARK  5 active torsions:
REMARK  status: ('A' for Active; 'I' for Inactive)
REMARK    1  A    between atoms: C_8  and  C_9 
REMARK    2  A    between atoms: C_11  and  O_12 
REMARK    3  A    between atoms: C_14  and  O_15 
REMARK    4  A    between atoms: C_18  and  C_19 
REMARK    5  A    between atoms: C_22  and  O_23 
ROOT
HETATM    1  C   UNL     1       4.892  28.983  53.843  1.00  0.00     0.070 C 
HETATM    2  C   UNL     1       4.977  27.524  53.605  1.00  0.00     0.033 A 
HETATM    3  N   UNL     1       3.935  26.833  53.043  1.00  0.00    -0.282 N 
HETATM    4  H   UNL     1       3.030  27.189  52.758  1.00  0.00     0.189 HD
HETATM    5  N   UNL     1       4.198  25.537  52.823  1.00  0.00    -0.179 NA
HETATM    6  C   UNL     1       5.446  25.391  53.275  1.00  0.00     0.066 A 
HETATM    7  C   UNL     1       5.968  26.586  53.833  1.00  0.00     0.001 A 
HETATM    8  C   UNL     1       7.368  26.668  54.367  1.00  0.00     0.070 C 
HETATM    9  C   UNL     1       8.010  25.271  54.606  1.00  0.00     0.102 C 
HETATM   10  C   UNL     1       7.704  24.277  53.448  1.00  0.00     0.071 C 
HETATM   11  C   UNL     1       8.347  22.899  53.675  1.00  0.00     0.047 C 
HETATM   12  C   UNL     1       6.184  24.099  53.173  1.00  0.00     0.100 C 
ENDROOT
BRANCH   8  13
HETATM   13  C   UNL     1       7.425  27.579  55.586  1.00  0.00    -0.046 A 
HETATM   14  C   UNL     1       8.481  28.479  55.832  1.00  0.00     0.047 A 
HETATM   15  C   UNL     1       8.460  29.307  56.956  1.00  0.00     0.101 A 
HETATM   16  C   UNL     1       7.346  29.303  57.794  1.00  0.00     0.099 A 
HETATM   17  C   UNL     1       6.284  28.442  57.566  1.00  0.00     0.040 A 
HETATM   18  C   UNL     1       6.329  27.577  56.471  1.00  0.00     0.011 A 
BRANCH  15  19
HETATM   19  O   UNL     1       9.466  30.182  57.278  1.00  0.00    -0.353 OA
HETATM   20  C   UNL     1      10.755  29.701  56.895  1.00  0.00     0.210 C 
ENDBRANCH  15  19
BRANCH  16  21
HETATM   21  O   UNL     1       7.286  30.147  58.866  1.00  0.00    -0.358 OA
HETATM   22  H   UNL     1       7.876  30.891  58.636  1.00  0.00     0.218 HD
ENDBRANCH  16  21
ENDBRANCH   8  13
BRANCH   9  23
HETATM   23  C   UNL     1       7.639  24.668  55.960  1.00  0.00     0.131 C 
HETATM   24  C   UNL     1       8.751  24.536  56.973  1.00  0.00     0.091 C 
HETATM   25  O   UNL     1       6.506  24.265  56.219  1.00  0.00    -0.298 OA
ENDBRANCH   9  23
BRANCH  10  26
HETATM   26  O   UNL     1       8.317  24.812  52.254  1.00  0.00    -0.389 OA
HETATM   27  H   UNL     1       7.894  25.659  52.029  1.00  0.00     0.210 HD
ENDBRANCH  10  26
TORSDOF 5
ENDMDL
MODEL 4
REMARK VINA RESULT:      -7.5      9.350     11.555
REMARK  5 active torsions:
REMARK  status: ('A' for Active; 'I' for Inactive)
REMARK    1  A    between atoms: C_8  and  C_9 
REMARK    2  A    between atoms: C_11  and  O_12 
REMARK    3  A    between atoms: C_14  and  O_15 
REMARK    4  A    between atoms: C_18  and  C_19 
REMARK    5  A    between atoms: C_22  and  O_23 
ROOT
HETATM    1  C   UNL     1       7.257  33.787  65.193  1.00  0.00     0.070 C 
HETATM    2  C   UNL     1       5.814  33.881  64.872  1.00  0.00     0.033 A 
HETATM    3  N   UNL     1       4.869  33.958  65.861  1.00  0.00    -0.282 N 
HETATM    4  H   UNL     1       5.011  33.941  66.864  1.00  0.00     0.189 HD
HETATM    5  N   UNL     1       3.618  34.115  65.406  1.00  0.00    -0.179 NA
HETATM    6  C   UNL     1       3.767  34.122  64.079  1.00  0.00     0.066 A 
HETATM    7  C   UNL     1       5.113  33.919  63.680  1.00  0.00     0.001 A 
HETATM    8  C   UNL     1       5.523  33.929  62.237  1.00  0.00     0.070 C 
HETATM    9  C   UNL     1       4.319  33.784  61.262  1.00  0.00     0.102 C 
HETATM   10  C   UNL     1       3.098  34.642  61.702  1.00  0.00     0.071 C 
HETATM   11  C   UNL     1       1.911  34.511  60.734  1.00  0.00     0.047 C 
HETATM   12  C   UNL     1       2.621  34.340  63.150  1.00  0.00     0.100 C 
ENDROOT
BRANCH   8  13
HETATM   13  C   UNL     1       6.632  32.916  61.987  1.00  0.00    -0.046 A 
HETATM   14  C   UNL     1       7.683  33.126  61.073  1.00  0.00     0.047 A 
HETATM   15  C   UNL     1       8.686  32.169  60.911  1.00  0.00     0.101 A 
HETATM   16  C   UNL     1       8.691  31.033  61.720  1.00  0.00     0.099 A 
HETATM   17  C   UNL     1       7.680  30.808  62.641  1.00  0.00     0.040 A 
HETATM   18  C   UNL     1       6.650  31.741  62.766  1.00  0.00     0.011 A 
BRANCH  15  19
HETATM   19  O   UNL     1       9.719  32.289  60.018  1.00  0.00    -0.353 OA
HETATM   20  C   UNL     1       9.450  31.640  58.775  1.00  0.00     0.210 C 
ENDBRANCH  15  19
BRANCH  16  21
HETATM   21  O   UNL     1       9.695  30.113  61.611  1.00  0.00    -0.358 OA
HETATM   22  H   UNL     1      10.386  30.554  61.080  1.00  0.00     0.218 HD
ENDBRANCH  16  21
ENDBRANCH   8  13
BRANCH   9  23
HETATM   23  C   UNL     1       3.912  32.329  61.029  1.00  0.00     0.131 C 
HETATM   24  C   UNL     1       4.007  31.814  59.613  1.00  0.00     0.091 C 
HETATM   25  O   UNL     1       3.486  31.608  61.930  1.00  0.00    -0.298 OA
ENDBRANCH   9  23
BRANCH  10  26
HETATM   26  O   UNL     1       3.509  36.027  61.645  1.00  0.00    -0.389 OA
HETATM   27  H   UNL     1       4.470  36.082  61.787  1.00  0.00     0.210 HD
ENDBRANCH  10  26
TORSDOF 5
ENDMDL
MODEL 5
REMARK VINA RESULT:      -7.3      2.840      6.301
REMARK  5 active torsions:
REMARK  status: ('A' for Active; 'I' for Inactive)
REMARK    1  A    between atoms: C_8  and  C_9 
REMARK    2  A    between atoms: C_11  and  O_12 
REMARK    3  A    between atoms: C_14  and  O_15 
REMARK    4  A    between atoms: C_18  and  C_19 
REMARK    5  A    between atoms: C_22  and  O_23 
ROOT
HETATM    1  C   UNL     1       5.170  29.034  52.771  1.00  0.00     0.070 C 
HETATM    2  C   UNL     1       5.179  27.554  52.815  1.00  0.00     0.033 A 
HETATM    3  N   UNL     1       4.211  26.817  52.184  1.00  0.00    -0.282 N 
HETATM    4  H   UNL     1       3.410  27.154  51.663  1.00  0.00     0.189 HD
HETATM    5  N   UNL     1       4.405  25.492  52.254  1.00  0.00    -0.179 NA
HETATM    6  C   UNL     1       5.526  25.378  52.969  1.00  0.00     0.066 A 
HETATM    7  C   UNL     1       6.028  26.632  53.402  1.00  0.00     0.001 A 
HETATM    8  C   UNL     1       7.302  26.749  54.186  1.00  0.00     0.070 C 
HETATM    9  C   UNL     1       7.769  25.395  54.792  1.00  0.00     0.102 C 
HETATM   10  C   UNL     1       7.610  24.215  53.790  1.00  0.00     0.071 C 
HETATM   11  C   UNL     1       8.083  22.877  54.382  1.00  0.00     0.047 C 
HETATM   12  C   UNL     1       6.162  24.058  53.248  1.00  0.00     0.100 C 
ENDROOT
BRANCH   8  13
HETATM   13  C   UNL     1       7.199  27.871  55.212  1.00  0.00    -0.046 A 
HETATM   14  C   UNL     1       6.019  28.167  55.921  1.00  0.00     0.047 A 
HETATM   15  C   UNL     1       5.999  29.192  56.869  1.00  0.00     0.101 A 
HETATM   16  C   UNL     1       7.178  29.870  57.176  1.00  0.00     0.099 A 
HETATM   17  C   UNL     1       8.359  29.587  56.507  1.00  0.00     0.040 A 
HETATM   18  C   UNL     1       8.366  28.598  55.522  1.00  0.00     0.011 A 
BRANCH  15  19
HETATM   19  O   UNL     1       4.881  29.559  57.573  1.00  0.00    -0.353 OA
HETATM   20  C   UNL     1       3.801  29.950  56.724  1.00  0.00     0.210 C 
ENDBRANCH  15  19
BRANCH  16  21
HETATM   21  O   UNL     1       7.187  30.837  58.140  1.00  0.00    -0.358 OA
HETATM   22  H   UNL     1       7.164  30.352  58.987  1.00  0.00     0.218 HD
ENDBRANCH  16  21
ENDBRANCH   8  13
BRANCH   9  23
HETATM   23  C   UNL     1       7.098  25.076  56.128  1.00  0.00     0.131 C 
HETATM   24  C   UNL     1       7.971  25.132  57.358  1.00  0.00     0.091 C 
HETATM   25  O   UNL     1       5.916  24.747  56.214  1.00  0.00    -0.298 OA
ENDBRANCH   9  23
BRANCH  10  26
HETATM   26  O   UNL     1       8.483  24.487  52.670  1.00  0.00    -0.389 OA
HETATM   27  H   UNL     1       8.278  23.869  51.948  1.00  0.00     0.210 HD
ENDBRANCH  10  26
TORSDOF 5
ENDMDL
MODEL 6
REMARK VINA RESULT:      -7.2     10.087     12.865
REMARK  5 active torsions:
REMARK  status: ('A' for Active; 'I' for Inactive)
REMARK    1  A    between atoms: C_8  and  C_9 
REMARK    2  A    between atoms: C_11  and  O_12 
REMARK    3  A    between atoms: C_14  and  O_15 
REMARK    4  A    between atoms: C_18  and  C_19 
REMARK    5  A    between atoms: C_22  and  O_23 
ROOT
HETATM    1  C   UNL     1       7.650  31.193  62.463  1.00  0.00     0.070 C 
HETATM    2  C   UNL     1       6.971  31.875  61.337  1.00  0.00     0.033 A 
HETATM    3  N   UNL     1       7.500  31.861  60.073  1.00  0.00    -0.282 N 
HETATM    4  H   UNL     1       8.367  31.437  59.764  1.00  0.00     0.189 HD
HETATM    5  N   UNL     1       6.728  32.457  59.154  1.00  0.00    -0.179 NA
HETATM    6  C   UNL     1       5.676  32.881  59.857  1.00  0.00     0.066 A 
HETATM    7  C   UNL     1       5.796  32.600  61.242  1.00  0.00     0.001 A 
HETATM    8  C   UNL     1       4.714  32.950  62.220  1.00  0.00     0.070 C 
HETATM    9  C   UNL     1       3.683  33.966  61.648  1.00  0.00     0.102 C 
HETATM   10  C   UNL     1       3.291  33.642  60.178  1.00  0.00     0.071 C 
HETATM   11  C   UNL     1       2.263  34.636  59.613  1.00  0.00     0.047 C 
HETATM   12  C   UNL     1       4.511  33.558  59.218  1.00  0.00     0.100 C 
ENDROOT
BRANCH   8  13
HETATM   13  C   UNL     1       5.312  33.378  63.553  1.00  0.00    -0.046 A 
HETATM   14  C   UNL     1       4.566  33.467  64.745  1.00  0.00     0.047 A 
HETATM   15  C   UNL     1       5.182  33.840  65.942  1.00  0.00     0.101 A 
HETATM   16  C   UNL     1       6.561  34.043  65.973  1.00  0.00     0.099 A 
HETATM   17  C   UNL     1       7.323  33.945  64.820  1.00  0.00     0.040 A 
HETATM   18  C   UNL     1       6.699  33.623  63.613  1.00  0.00     0.011 A 
BRANCH  15  19
HETATM   19  O   UNL     1       4.515  33.980  67.132  1.00  0.00    -0.353 OA
HETATM   20  C   UNL     1       3.510  34.994  67.082  1.00  0.00     0.210 C 
ENDBRANCH  15  19
BRANCH  16  21
HETATM   21  O   UNL     1       7.186  34.355  67.147  1.00  0.00    -0.358 OA
HETATM   22  H   UNL     1       7.027  35.311  67.273  1.00  0.00     0.218 HD
ENDBRANCH  16  21
ENDBRANCH   8  13
BRANCH   9  23
HETATM   23  C   UNL     1       4.136  35.418  61.789  1.00  0.00     0.131 C 
HETATM   24  C   UNL     1       3.286  36.316  62.656  1.00  0.00     0.091 C 
HETATM   25  O   UNL     1       5.119  35.866  61.200  1.00  0.00    -0.298 OA
ENDBRANCH   9  23
BRANCH  10  26
HETATM   26  O   UNL     1       2.637  32.352  60.185  1.00  0.00    -0.389 OA
HETATM   27  H   UNL     1       1.755  32.443  60.586  1.00  0.00     0.210 HD
ENDBRANCH  10  26
TORSDOF 5
ENDMDL
MODEL 7
REMARK VINA RESULT:      -7.1      2.692      6.239
REMARK  5 active torsions:
REMARK  status: ('A' for Active; 'I' for Inactive)
REMARK    1  A    between atoms: C_8  and  C_9 
REMARK    2  A    between atoms: C_11  and  O_12 
REMARK    3  A    between atoms: C_14  and  O_15 
REMARK    4  A    between atoms: C_18  and  C_19 
REMARK    5  A    between atoms: C_22  and  O_23 
ROOT
HETATM    1  C   UNL     1       3.486  30.112  53.524  1.00  0.00     0.070 C 
HETATM    2  C   UNL     1       4.404  29.455  54.482  1.00  0.00     0.033 A 
HETATM    3  N   UNL     1       4.795  30.082  55.637  1.00  0.00    -0.282 N 
HETATM    4  H   UNL     1       4.549  31.011  55.957  1.00  0.00     0.189 HD
HETATM    5  N   UNL     1       5.564  29.325  56.432  1.00  0.00    -0.179 NA
HETATM    6  C   UNL     1       5.683  28.181  55.755  1.00  0.00     0.066 A 
HETATM    7  C   UNL     1       5.028  28.220  54.497  1.00  0.00     0.001 A 
HETATM    8  C   UNL     1       4.995  27.032  53.582  1.00  0.00     0.070 C 
HETATM    9  C   UNL     1       6.045  25.947  53.957  1.00  0.00     0.102 C 
HETATM   10  C   UNL     1       6.124  25.710  55.492  1.00  0.00     0.071 C 
HETATM   11  C   UNL     1       7.152  24.629  55.865  1.00  0.00     0.047 C 
HETATM   12  C   UNL     1       6.418  27.004  56.302  1.00  0.00     0.100 C 
ENDROOT
BRANCH   8  13
HETATM   13  C   UNL     1       5.071  27.474  52.126  1.00  0.00    -0.046 A 
HETATM   14  C   UNL     1       5.647  28.691  51.714  1.00  0.00     0.047 A 
HETATM   15  C   UNL     1       5.711  29.024  50.360  1.00  0.00     0.101 A 
HETATM   16  C   UNL     1       5.276  28.107  49.404  1.00  0.00     0.099 A 
HETATM   17  C   UNL     1       4.722  26.894  49.779  1.00  0.00     0.040 A 
HETATM   18  C   UNL     1       4.611  26.583  51.135  1.00  0.00     0.011 A 
BRANCH  15  19
HETATM   19  O   UNL     1       6.226  30.204  49.887  1.00  0.00    -0.353 OA
HETATM   20  C   UNL     1       5.435  31.335  50.256  1.00  0.00     0.210 C 
ENDBRANCH  15  19
BRANCH  16  21
HETATM   21  O   UNL     1       5.382  28.395  48.073  1.00  0.00    -0.358 OA
HETATM   22  H   UNL     1       4.521  28.787  47.829  1.00  0.00     0.218 HD
ENDBRANCH  16  21
ENDBRANCH   8  13
BRANCH   9  23
HETATM   23  C   UNL     1       7.428  26.228  53.372  1.00  0.00     0.131 C 
HETATM   24  C   UNL     1       7.986  25.200  52.417  1.00  0.00     0.091 C 
HETATM   25  O   UNL     1       8.091  27.217  53.682  1.00  0.00    -0.298 OA
ENDBRANCH   9  23
BRANCH  10  26
HETATM   26  O   UNL     1       4.838  25.200  55.912  1.00  0.00    -0.389 OA
HETATM   27  H   UNL     1       4.868  24.228  55.924  1.00  0.00     0.210 HD
ENDBRANCH  10  26
TORSDOF 5
ENDMDL
MODEL 8
REMARK VINA RESULT:      -7.0      9.645     12.312
REMARK  5 active torsions:
REMARK  status: ('A' for Active; 'I' for Inactive)
REMARK    1  A    between atoms: C_8  and  C_9 
REMARK    2  A    between atoms: C_11  and  O_12 
REMARK    3  A    between atoms: C_14  and  O_15 
REMARK    4  A    between atoms: C_18  and  C_19 
REMARK    5  A    between atoms: C_22  and  O_23 
ROOT
HETATM    1  C   UNL     1       7.848  32.509  60.522  1.00  0.00     0.070 C 
HETATM    2  C   UNL     1       7.482  32.885  61.906  1.00  0.00     0.033 A 
HETATM    3  N   UNL     1       8.149  32.367  62.985  1.00  0.00    -0.282 N 
HETATM    4  H   UNL     1       8.907  31.694  62.986  1.00  0.00     0.189 HD
HETATM    5  N   UNL     1       7.748  32.865  64.163  1.00  0.00    -0.179 NA
HETATM    6  C   UNL     1       6.779  33.720  63.827  1.00  0.00     0.066 A 
HETATM    7  C   UNL     1       6.523  33.734  62.432  1.00  0.00     0.001 A 
HETATM    8  C   UNL     1       5.503  34.648  61.821  1.00  0.00     0.070 C 
HETATM    9  C   UNL     1       4.522  35.251  62.868  1.00  0.00     0.102 C 
HETATM   10  C   UNL     1       5.252  35.700  64.168  1.00  0.00     0.071 C 
HETATM   11  C   UNL     1       4.287  36.307  65.200  1.00  0.00     0.047 C 
HETATM   12  C   UNL     1       6.077  34.564  64.836  1.00  0.00     0.100 C 
ENDROOT
BRANCH   8  13
HETATM   13  C   UNL     1       4.801  33.967  60.654  1.00  0.00    -0.046 A 
HETATM   14  C   UNL     1       4.523  34.612  59.433  1.00  0.00     0.047 A 
HETATM   15  C   UNL     1       3.901  33.922  58.391  1.00  0.00     0.101 A 
HETATM   16  C   UNL     1       3.629  32.561  58.531  1.00  0.00     0.099 A 
HETATM   17  C   UNL     1       3.909  31.896  59.714  1.00  0.00     0.040 A 
HETATM   18  C   UNL     1       4.483  32.599  60.775  1.00  0.00     0.011 A 
BRANCH  15  19
HETATM   19  O   UNL     1       3.570  34.491  57.189  1.00  0.00    -0.353 OA
HETATM   20  C   UNL     1       4.698  35.060  56.521  1.00  0.00     0.210 C 
ENDBRANCH  15  19
BRANCH  16  21
HETATM   21  O   UNL     1       3.071  31.860  57.501  1.00  0.00    -0.358 OA
HETATM   22  H   UNL     1       2.699  32.538  56.904  1.00  0.00     0.218 HD
ENDBRANCH  16  21
ENDBRANCH   8  13
BRANCH   9  23
HETATM   23  C   UNL     1       3.349  34.325  63.188  1.00  0.00     0.131 C 
HETATM   24  C   UNL     1       2.013  34.688  62.588  1.00  0.00     0.091 C 
HETATM   25  O   UNL     1       3.457  33.351  63.931  1.00  0.00    -0.298 OA
ENDBRANCH   9  23
BRANCH  10  26
HETATM   26  O   UNL     1       6.163  36.760  63.800  1.00  0.00    -0.389 OA
HETATM   27  H   UNL     1       7.013  36.372  63.528  1.00  0.00     0.210 HD
ENDBRANCH  10  26
TORSDOF 5
ENDMDL
MODEL 9
REMARK VINA RESULT:      -6.9      8.574     11.923
REMARK  5 active torsions:
REMARK  status: ('A' for Active; 'I' for Inactive)
REMARK    1  A    between atoms: C_8  and  C_9 
REMARK    2  A    between atoms: C_11  and  O_12 
REMARK    3  A    between atoms: C_14  and  O_15 
REMARK    4  A    between atoms: C_18  and  C_19 
REMARK    5  A    between atoms: C_22  and  O_23 
ROOT
HETATM    1  C   UNL     1       7.581  32.376  62.529  1.00  0.00     0.070 C 
HETATM    2  C   UNL     1       7.345  32.254  61.072  1.00  0.00     0.033 A 
HETATM    3  N   UNL     1       8.383  32.066  60.197  1.00  0.00    -0.282 N 
HETATM    4  H   UNL     1       9.373  32.012  60.404  1.00  0.00     0.189 HD
HETATM    5  N   UNL     1       7.996  31.899  58.924  1.00  0.00    -0.179 NA
HETATM    6  C   UNL     1       6.667  32.000  58.986  1.00  0.00     0.066 A 
HETATM    7  C   UNL     1       6.200  32.282  60.295  1.00  0.00     0.001 A 
HETATM    8  C   UNL     1       4.738  32.399  60.610  1.00  0.00     0.070 C 
HETATM    9  C   UNL     1       3.856  32.574  59.341  1.00  0.00     0.102 C 
HETATM   10  C   UNL     1       4.303  31.640  58.179  1.00  0.00     0.071 C 
HETATM   11  C   UNL     1       3.425  31.802  56.928  1.00  0.00     0.047 C 
HETATM   12  C   UNL     1       5.797  31.813  57.789  1.00  0.00     0.100 C 
ENDROOT
BRANCH   8  13
HETATM   13  C   UNL     1       4.500  33.468  61.668  1.00  0.00    -0.046 A 
HETATM   14  C   UNL     1       5.259  34.651  61.760  1.00  0.00     0.047 A 
HETATM   15  C   UNL     1       4.971  35.605  62.737  1.00  0.00     0.101 A 
HETATM   16  C   UNL     1       3.871  35.424  63.574  1.00  0.00     0.099 A 
HETATM   17  C   UNL     1       3.095  34.279  63.494  1.00  0.00     0.040 A 
HETATM   18  C   UNL     1       3.414  33.300  62.551  1.00  0.00     0.011 A 
BRANCH  15  19
HETATM   19  O   UNL     1       5.686  36.762  62.908  1.00  0.00    -0.353 OA
HETATM   20  C   UNL     1       5.550  37.660  61.805  1.00  0.00     0.210 C 
ENDBRANCH  15  19
BRANCH  16  21
HETATM   21  O   UNL     1       3.544  36.374  64.499  1.00  0.00    -0.358 OA
HETATM   22  H   UNL     1       4.083  37.154  64.264  1.00  0.00     0.218 HD
ENDBRANCH  16  21
ENDBRANCH   8  13
BRANCH   9  23
HETATM   23  C   UNL     1       3.765  34.027  58.874  1.00  0.00     0.131 C 
HETATM   24  C   UNL     1       2.453  34.736  59.107  1.00  0.00     0.091 C 
HETATM   25  O   UNL     1       4.689  34.596  58.296  1.00  0.00    -0.298 OA
ENDBRANCH   9  23
BRANCH  10  26
HETATM   26  O   UNL     1       4.110  30.280  58.629  1.00  0.00    -0.389 OA
HETATM   27  H   UNL     1       4.175  30.251  59.599  1.00  0.00     0.210 HD
ENDBRANCH  10  26
TORSDOF 5
ENDMDL
MODEL 10
REMARK VINA RESULT:      -6.9      9.229     12.028
REMARK  5 active torsions:
REMARK  status: ('A' for Active; 'I' for Inactive)
REMARK    1  A    between atoms: C_8  and  C_9 
REMARK    2  A    between atoms: C_11  and  O_12 
REMARK    3  A    between atoms: C_14  and  O_15 
REMARK    4  A    between atoms: C_18  and  C_19 
REMARK    5  A    between atoms: C_22  and  O_23 
ROOT
HETATM    1  C   UNL     1       7.865  32.700  60.328  1.00  0.00     0.070 C 
HETATM    2  C   UNL     1       7.438  32.919  61.729  1.00  0.00     0.033 A 
HETATM    3  N   UNL     1       8.052  32.273  62.769  1.00  0.00    -0.282 N 
HETATM    4  H   UNL     1       8.804  31.596  62.727  1.00  0.00     0.189 HD
HETATM    5  N   UNL     1       7.601  32.638  63.978  1.00  0.00    -0.179 NA
HETATM    6  C   UNL     1       6.654  33.537  63.699  1.00  0.00     0.066 A 
HETATM    7  C   UNL     1       6.462  33.713  62.305  1.00  0.00     0.001 A 
HETATM    8  C   UNL     1       5.477  34.704  61.758  1.00  0.00     0.070 C 
HETATM    9  C   UNL     1       4.453  35.194  62.823  1.00  0.00     0.102 C 
HETATM   10  C   UNL     1       5.125  35.482  64.196  1.00  0.00     0.071 C 
HETATM   11  C   UNL     1       4.119  35.979  65.247  1.00  0.00     0.047 C 
HETATM   12  C   UNL     1       5.911  34.268  64.766  1.00  0.00     0.100 C 
ENDROOT
BRANCH   8  13
HETATM   13  C   UNL     1       4.824  34.169  60.490  1.00  0.00    -0.046 A 
HETATM   14  C   UNL     1       4.630  32.796  60.238  1.00  0.00     0.047 A 
HETATM   15  C   UNL     1       4.000  32.372  59.067  1.00  0.00     0.101 A 
HETATM   16  C   UNL     1       3.484  33.317  58.181  1.00  0.00     0.099 A 
HETATM   17  C   UNL     1       3.643  34.674  58.412  1.00  0.00     0.040 A 
HETATM   18  C   UNL     1       4.320  35.097  59.558  1.00  0.00     0.011 A 
BRANCH  15  19
HETATM   19  O   UNL     1       3.807  31.055  58.738  1.00  0.00    -0.353 OA
HETATM   20  C   UNL     1       4.903  30.506  58.005  1.00  0.00     0.210 C 
ENDBRANCH  15  19
BRANCH  16  21
HETATM   21  O   UNL     1       2.817  32.918  57.058  1.00  0.00    -0.358 OA
HETATM   22  H   UNL     1       2.606  31.976  57.209  1.00  0.00     0.218 HD
ENDBRANCH  16  21
ENDBRANCH   8  13
BRANCH   9  23
HETATM   23  C   UNL     1       3.261  34.251  62.982  1.00  0.00     0.131 C 
HETATM   24  C   UNL     1       1.930  34.746  62.469  1.00  0.00     0.091 C 
HETATM   25  O   UNL     1       3.350  33.157  63.535  1.00  0.00    -0.298 OA
ENDBRANCH   9  23
BRANCH  10  26
HETATM   26  O   UNL     1       6.059  36.567  63.994  1.00  0.00    -0.389 OA
HETATM   27  H   UNL     1       5.876  36.992  63.138  1.00  0.00     0.210 HD
ENDBRANCH  10  26
TORSDOF 5
ENDMDL
