MODEL 1
REMARK VINA RESULT:      -9.0      0.000      0.000
REMARK  7 active torsions:
REMARK  status: ('A' for Active; 'I' for Inactive)
REMARK    1  A    between atoms: C_2  and  N_3 
REMARK    2  A    between atoms: C_2  and  C_17 
REMARK       I    between atoms: N_3  and  C_4 
REMARK    3  A    between atoms: C_4  and  C_5 
REMARK    4  A    between atoms: C_7  and  N_8 
REMARK    5  A    between atoms: C_17  and  O_18 
REMARK    6  A    between atoms: C_17  and  C_19 
REMARK    7  A    between atoms: C_22  and  O_23 
ROOT
HETATM    1  N   UNL     1       7.838  26.691  57.380  1.00  0.00    -0.349 N 
HETATM    2  C   UNL     1       8.082  27.776  56.563  1.00  0.00     0.270 C 
HETATM    3  O   UNL     1       7.753  27.831  55.385  1.00  0.00    -0.266 OA
HETATM    4  H   UNL     1       8.296  26.706  58.287  1.00  0.00     0.163 HD
ENDROOT
BRANCH   1   5
HETATM    5  C   UNL     1       7.258  25.448  56.880  1.00  0.00     0.114 C 
HETATM    6  C   UNL     1       5.732  25.525  56.946  1.00  0.00     0.035 C 
BRANCH   5   7
HETATM    7  C   UNL     1       7.852  24.184  57.565  1.00  0.00     0.173 C 
BRANCH   7   8
HETATM    8  O   UNL     1       9.059  24.523  58.260  1.00  0.00    -0.389 OA
HETATM    9  H   UNL     1       9.121  25.494  58.236  1.00  0.00     0.210 HD
ENDBRANCH   7   8
BRANCH   7  10
HETATM   10  C   UNL     1       8.113  23.017  56.628  1.00  0.00    -0.028 A 
HETATM   11  C   UNL     1       8.160  23.225  55.243  1.00  0.00     0.012 A 
HETATM   12  C   UNL     1       8.403  22.158  54.372  1.00  0.00     0.037 A 
HETATM   13  C   UNL     1       8.604  20.867  54.863  1.00  0.00     0.068 A 
HETATM   14  C   UNL     1       8.565  20.650  56.238  1.00  0.00     0.037 A 
HETATM   15  C   UNL     1       8.323  21.716  57.113  1.00  0.00     0.012 A 
BRANCH  13  16
HETATM   16  O   UNL     1       8.827  19.918  53.904  1.00  0.00    -0.356 OA
HETATM   17  C   UNL     1       8.458  20.251  52.572  1.00  0.00     0.210 C 
ENDBRANCH  13  16
ENDBRANCH   7  10
ENDBRANCH   5   7
ENDBRANCH   1   5
BRANCH   2  18
HETATM   18  C   UNL     1       8.815  28.902  57.227  1.00  0.00     0.126 A 
HETATM   19  N   UNL     1       8.332  29.304  58.436  1.00  0.00    -0.224 NA
HETATM   20  C   UNL     1       8.994  30.326  59.046  1.00  0.00     0.151 A 
HETATM   21  C   UNL     1      10.109  30.949  58.482  1.00  0.00     0.052 A 
HETATM   22  C   UNL     1      10.575  30.508  57.246  1.00  0.00     0.006 A 
HETATM   23  C   UNL     1       9.921  29.463  56.603  1.00  0.00     0.037 A 
BRANCH  20  24
HETATM   24  N   UNL     1       8.524  30.772  60.318  1.00  0.00    -0.227 N 
HETATM   25  N   UNL     1       7.360  31.461  60.468  1.00  0.00    -0.179 NA
HETATM   26  C   UNL     1       7.278  31.695  61.779  1.00  0.00     0.141 A 
HETATM   27  C   UNL     1       8.368  31.170  62.492  1.00  0.00     0.040 A 
HETATM   28  C   UNL     1       9.154  30.581  61.531  1.00  0.00     0.122 A 
ENDBRANCH  20  24
ENDBRANCH   2  18
TORSDOF 7
ENDMDL
MODEL 2
REMARK VINA RESULT:      -8.6      1.658      2.078
REMARK  7 active torsions:
REMARK  status: ('A' for Active; 'I' for Inactive)
REMARK    1  A    between atoms: C_2  and  N_3 
REMARK    2  A    between atoms: C_2  and  C_17 
REMARK       I    between atoms: N_3  and  C_4 
REMARK    3  A    between atoms: C_4  and  C_5 
REMARK    4  A    between atoms: C_7  and  N_8 
REMARK    5  A    between atoms: C_17  and  O_18 
REMARK    6  A    between atoms: C_17  and  C_19 
REMARK    7  A    between atoms: C_22  and  O_23 
ROOT
HETATM    1  N   UNL     1       6.838  28.015  55.837  1.00  0.00    -0.349 N 
HETATM    2  C   UNL     1       8.001  28.542  55.319  1.00  0.00     0.270 C 
HETATM    3  O   UNL     1       8.339  28.432  54.146  1.00  0.00    -0.266 OA
HETATM    4  H   UNL     1       6.750  28.040  56.850  1.00  0.00     0.163 HD
ENDROOT
BRANCH   1   5
HETATM    5  C   UNL     1       5.942  27.170  55.052  1.00  0.00     0.114 C 
HETATM    6  C   UNL     1       4.637  27.916  54.773  1.00  0.00     0.035 C 
BRANCH   5   7
HETATM    7  C   UNL     1       5.736  25.760  55.678  1.00  0.00     0.173 C 
BRANCH   7   8
HETATM    8  O   UNL     1       5.939  25.817  57.096  1.00  0.00    -0.389 OA
HETATM    9  H   UNL     1       6.287  26.708  57.283  1.00  0.00     0.210 HD
ENDBRANCH   7   8
BRANCH   7  10
HETATM   10  C   UNL     1       6.608  24.667  55.082  1.00  0.00    -0.028 A 
HETATM   11  C   UNL     1       6.752  24.563  53.693  1.00  0.00     0.012 A 
HETATM   12  C   UNL     1       7.554  23.563  53.135  1.00  0.00     0.037 A 
HETATM   13  C   UNL     1       8.226  22.649  53.948  1.00  0.00     0.068 A 
HETATM   14  C   UNL     1       8.094  22.747  55.332  1.00  0.00     0.037 A 
HETATM   15  C   UNL     1       7.291  23.747  55.893  1.00  0.00     0.012 A 
BRANCH  13  16
HETATM   16  O   UNL     1       8.972  21.721  53.274  1.00  0.00    -0.356 OA
HETATM   17  C   UNL     1       8.361  20.461  53.030  1.00  0.00     0.210 C 
ENDBRANCH  13  16
ENDBRANCH   7  10
ENDBRANCH   5   7
ENDBRANCH   1   5
BRANCH   2  18
HETATM   18  C   UNL     1       8.859  29.258  56.317  1.00  0.00     0.126 A 
HETATM   19  N   UNL     1       8.224  29.727  57.429  1.00  0.00    -0.224 NA
HETATM   20  C   UNL     1       8.997  30.378  58.341  1.00  0.00     0.151 A 
HETATM   21  C   UNL     1      10.369  30.572  58.171  1.00  0.00     0.052 A 
HETATM   22  C   UNL     1      10.983  30.075  57.023  1.00  0.00     0.006 A 
HETATM   23  C   UNL     1      10.218  29.403  56.077  1.00  0.00     0.037 A 
BRANCH  20  24
HETATM   24  N   UNL     1       8.371  30.878  59.523  1.00  0.00    -0.227 N 
HETATM   25  N   UNL     1       8.797  30.547  60.773  1.00  0.00    -0.179 NA
HETATM   26  C   UNL     1       7.969  31.200  61.590  1.00  0.00     0.141 A 
HETATM   27  C   UNL     1       7.009  31.954  60.898  1.00  0.00     0.040 A 
HETATM   28  C   UNL     1       7.288  31.732  59.572  1.00  0.00     0.122 A 
ENDBRANCH  20  24
ENDBRANCH   2  18
TORSDOF 7
ENDMDL
MODEL 3
REMARK VINA RESULT:      -8.5      1.695      2.441
REMARK  7 active torsions:
REMARK  status: ('A' for Active; 'I' for Inactive)
REMARK    1  A    between atoms: C_2  and  N_3 
REMARK    2  A    between atoms: C_2  and  C_17 
REMARK       I    between atoms: N_3  and  C_4 
REMARK    3  A    between atoms: C_4  and  C_5 
REMARK    4  A    between atoms: C_7  and  N_8 
REMARK    5  A    between atoms: C_17  and  O_18 
REMARK    6  A    between atoms: C_17  and  C_19 
REMARK    7  A    between atoms: C_22  and  O_23 
ROOT
HETATM    1  N   UNL     1       7.582  27.308  55.232  1.00  0.00    -0.349 N 
HETATM    2  C   UNL     1       7.253  28.583  55.642  1.00  0.00     0.270 C 
HETATM    3  O   UNL     1       6.210  29.149  55.340  1.00  0.00    -0.266 OA
HETATM    4  H   UNL     1       8.538  27.013  55.418  1.00  0.00     0.163 HD
ENDROOT
BRANCH   1   5
HETATM    5  C   UNL     1       6.758  26.547  54.297  1.00  0.00     0.114 C 
HETATM    6  C   UNL     1       5.740  25.707  55.069  1.00  0.00     0.035 C 
BRANCH   5   7
HETATM    7  C   UNL     1       7.600  25.729  53.275  1.00  0.00     0.173 C 
BRANCH   7   8
HETATM    8  O   UNL     1       6.981  25.774  51.983  1.00  0.00    -0.389 OA
HETATM    9  H   UNL     1       6.602  24.889  51.834  1.00  0.00     0.210 HD
ENDBRANCH   7   8
BRANCH   7  10
HETATM   10  C   UNL     1       7.850  24.283  53.671  1.00  0.00    -0.028 A 
HETATM   11  C   UNL     1       8.406  23.984  54.922  1.00  0.00     0.012 A 
HETATM   12  C   UNL     1       8.636  22.656  55.296  1.00  0.00     0.037 A 
HETATM   13  C   UNL     1       8.319  21.605  54.435  1.00  0.00     0.068 A 
HETATM   14  C   UNL     1       7.760  21.892  53.191  1.00  0.00     0.037 A 
HETATM   15  C   UNL     1       7.527  23.220  52.814  1.00  0.00     0.012 A 
BRANCH  13  16
HETATM   16  O   UNL     1       8.599  20.359  54.923  1.00  0.00    -0.356 OA
HETATM   17  C   UNL     1       9.297  20.296  56.161  1.00  0.00     0.210 C 
ENDBRANCH  13  16
ENDBRANCH   7  10
ENDBRANCH   5   7
ENDBRANCH   1   5
BRANCH   2  18
HETATM   18  C   UNL     1       8.295  29.254  56.484  1.00  0.00     0.126 A 
HETATM   19  N   UNL     1       7.887  29.693  57.708  1.00  0.00    -0.224 NA
HETATM   20  C   UNL     1       8.828  30.303  58.481  1.00  0.00     0.151 A 
HETATM   21  C   UNL     1      10.148  30.484  58.064  1.00  0.00     0.052 A 
HETATM   22  C   UNL     1      10.529  30.019  56.807  1.00  0.00     0.006 A 
HETATM   23  C   UNL     1       9.588  29.388  56.000  1.00  0.00     0.037 A 
BRANCH  20  24
HETATM   24  N   UNL     1       8.442  30.771  59.773  1.00  0.00    -0.227 N 
HETATM   25  N   UNL     1       7.300  31.481  59.984  1.00  0.00    -0.179 NA
HETATM   26  C   UNL     1       7.301  31.731  61.294  1.00  0.00     0.141 A 
HETATM   27  C   UNL     1       8.423  31.197  61.947  1.00  0.00     0.040 A 
HETATM   28  C   UNL     1       9.141  30.584  60.949  1.00  0.00     0.122 A 
ENDBRANCH  20  24
ENDBRANCH   2  18
TORSDOF 7
ENDMDL
MODEL 4
REMARK VINA RESULT:      -8.4      3.000      3.938
REMARK  7 active torsions:
REMARK  status: ('A' for Active; 'I' for Inactive)
REMARK    1  A    between atoms: C_2  and  N_3 
REMARK    2  A    between atoms: C_2  and  C_17 
REMARK       I    between atoms: N_3  and  C_4 
REMARK    3  A    between atoms: C_4  and  C_5 
REMARK    4  A    between atoms: C_7  and  N_8 
REMARK    5  A    between atoms: C_17  and  O_18 
REMARK    6  A    between atoms: C_17  and  C_19 
REMARK    7  A    between atoms: C_22  and  O_23 
ROOT
HETATM    1  N   UNL     1       5.711  27.628  53.442  1.00  0.00    -0.349 N 
HETATM    2  C   UNL     1       6.698  28.095  54.284  1.00  0.00     0.270 C 
HETATM    3  O   UNL     1       7.894  27.885  54.117  1.00  0.00    -0.266 OA
HETATM    4  H   UNL     1       4.756  27.736  53.773  1.00  0.00     0.163 HD
ENDROOT
BRANCH   1   5
HETATM    5  C   UNL     1       5.993  26.733  52.323  1.00  0.00     0.114 C 
HETATM    6  C   UNL     1       5.479  27.352  51.023  1.00  0.00     0.035 C 
BRANCH   5   7
HETATM    7  C   UNL     1       5.490  25.280  52.567  1.00  0.00     0.173 C 
BRANCH   7   8
HETATM    8  O   UNL     1       4.204  25.305  53.198  1.00  0.00    -0.389 OA
HETATM    9  H   UNL     1       3.559  25.071  52.507  1.00  0.00     0.210 HD
ENDBRANCH   7   8
BRANCH   7  10
HETATM   10  C   UNL     1       6.438  24.408  53.374  1.00  0.00    -0.028 A 
HETATM   11  C   UNL     1       7.433  23.665  52.726  1.00  0.00     0.012 A 
HETATM   12  C   UNL     1       8.311  22.862  53.459  1.00  0.00     0.037 A 
HETATM   13  C   UNL     1       8.215  22.784  54.849  1.00  0.00     0.068 A 
HETATM   14  C   UNL     1       7.233  23.523  55.505  1.00  0.00     0.037 A 
HETATM   15  C   UNL     1       6.352  24.328  54.773  1.00  0.00     0.012 A 
BRANCH  13  16
HETATM   16  O   UNL     1       9.132  21.959  55.442  1.00  0.00    -0.356 OA
HETATM   17  C   UNL     1       8.648  21.082  56.452  1.00  0.00     0.210 C 
ENDBRANCH  13  16
ENDBRANCH   7  10
ENDBRANCH   5   7
ENDBRANCH   1   5
BRANCH   2  18
HETATM   18  C   UNL     1       6.195  28.879  55.457  1.00  0.00     0.126 A 
HETATM   19  N   UNL     1       7.145  29.470  56.237  1.00  0.00    -0.224 NA
HETATM   20  C   UNL     1       6.696  30.185  57.305  1.00  0.00     0.151 A 
HETATM   21  C   UNL     1       5.340  30.321  57.609  1.00  0.00     0.052 A 
HETATM   22  C   UNL     1       4.399  29.706  56.787  1.00  0.00     0.006 A 
HETATM   23  C   UNL     1       4.830  28.973  55.687  1.00  0.00     0.037 A 
BRANCH  20  24
HETATM   24  N   UNL     1       7.658  30.825  58.143  1.00  0.00    -0.227 N 
HETATM   25  N   UNL     1       7.326  31.819  59.013  1.00  0.00    -0.179 NA
HETATM   26  C   UNL     1       8.480  32.150  59.595  1.00  0.00     0.141 A 
HETATM   27  C   UNL     1       9.562  31.391  59.123  1.00  0.00     0.040 A 
HETATM   28  C   UNL     1       9.009  30.547  58.192  1.00  0.00     0.122 A 
ENDBRANCH  20  24
ENDBRANCH   2  18
TORSDOF 7
ENDMDL
MODEL 5
REMARK VINA RESULT:      -8.3      4.290     10.412
REMARK  7 active torsions:
REMARK  status: ('A' for Active; 'I' for Inactive)
REMARK    1  A    between atoms: C_2  and  N_3 
REMARK    2  A    between atoms: C_2  and  C_17 
REMARK       I    between atoms: N_3  and  C_4 
REMARK    3  A    between atoms: C_4  and  C_5 
REMARK    4  A    between atoms: C_7  and  N_8 
REMARK    5  A    between atoms: C_17  and  O_18 
REMARK    6  A    between atoms: C_17  and  C_19 
REMARK    7  A    between atoms: C_22  and  O_23 
ROOT
HETATM    1  N   UNL     1       7.540  31.053  60.310  1.00  0.00    -0.349 N 
HETATM    2  C   UNL     1       8.587  31.546  59.560  1.00  0.00     0.270 C 
HETATM    3  O   UNL     1       9.045  32.675  59.686  1.00  0.00    -0.266 OA
HETATM    4  H   UNL     1       7.153  30.163  60.003  1.00  0.00     0.163 HD
ENDROOT
BRANCH   1   5
HETATM    5  C   UNL     1       6.797  31.877  61.258  1.00  0.00     0.114 C 
HETATM    6  C   UNL     1       6.164  33.063  60.529  1.00  0.00     0.035 C 
BRANCH   5   7
HETATM    7  C   UNL     1       7.643  32.284  62.500  1.00  0.00     0.173 C 
BRANCH   7   8
HETATM    8  O   UNL     1       8.413  31.166  62.957  1.00  0.00    -0.389 OA
HETATM    9  H   UNL     1       8.895  31.473  63.745  1.00  0.00     0.210 HD
ENDBRANCH   7   8
BRANCH   7  10
HETATM   10  C   UNL     1       6.840  32.858  63.655  1.00  0.00    -0.028 A 
HETATM   11  C   UNL     1       7.497  33.435  64.750  1.00  0.00     0.012 A 
HETATM   12  C   UNL     1       6.766  33.968  65.816  1.00  0.00     0.037 A 
HETATM   13  C   UNL     1       5.371  33.937  65.812  1.00  0.00     0.068 A 
HETATM   14  C   UNL     1       4.707  33.371  64.726  1.00  0.00     0.037 A 
HETATM   15  C   UNL     1       5.436  32.837  63.656  1.00  0.00     0.012 A 
BRANCH  13  16
HETATM   16  O   UNL     1       4.782  34.488  66.917  1.00  0.00    -0.356 OA
HETATM   17  C   UNL     1       3.591  35.235  66.705  1.00  0.00     0.210 C 
ENDBRANCH  13  16
ENDBRANCH   7  10
ENDBRANCH   5   7
ENDBRANCH   1   5
BRANCH   2  18
HETATM   18  C   UNL     1       9.125  30.591  58.539  1.00  0.00     0.126 A 
HETATM   19  N   UNL     1       8.382  29.472  58.310  1.00  0.00    -0.224 NA
HETATM   20  C   UNL     1       8.864  28.600  57.383  1.00  0.00     0.151 A 
HETATM   21  C   UNL     1      10.057  28.815  56.690  1.00  0.00     0.052 A 
HETATM   22  C   UNL     1      10.788  29.972  56.948  1.00  0.00     0.006 A 
HETATM   23  C   UNL     1      10.316  30.882  57.887  1.00  0.00     0.037 A 
BRANCH  20  24
HETATM   24  N   UNL     1       8.111  27.418  57.109  1.00  0.00    -0.227 N 
HETATM   25  N   UNL     1       7.898  26.452  58.045  1.00  0.00    -0.179 NA
HETATM   26  C   UNL     1       7.170  25.531  57.411  1.00  0.00     0.141 A 
HETATM   27  C   UNL     1       6.900  25.876  56.078  1.00  0.00     0.040 A 
HETATM   28  C   UNL     1       7.514  27.093  55.908  1.00  0.00     0.122 A 
ENDBRANCH  20  24
ENDBRANCH   2  18
TORSDOF 7
ENDMDL
MODEL 6
REMARK VINA RESULT:      -8.3      2.745      4.048
REMARK  7 active torsions:
REMARK  status: ('A' for Active; 'I' for Inactive)
REMARK    1  A    between atoms: C_2  and  N_3 
REMARK    2  A    between atoms: C_2  and  C_17 
REMARK       I    between atoms: N_3  and  C_4 
REMARK    3  A    between atoms: C_4  and  C_5 
REMARK    4  A    between atoms: C_7  and  N_8 
REMARK    5  A    between atoms: C_17  and  O_18 
REMARK    6  A    between atoms: C_17  and  C_19 
REMARK    7  A    between atoms: C_22  and  O_23 
ROOT
HETATM    1  N   UNL     1       7.681  25.480  56.313  1.00  0.00    -0.349 N 
HETATM    2  C   UNL     1       7.701  26.213  57.481  1.00  0.00     0.270 C 
HETATM    3  O   UNL     1       7.978  25.743  58.578  1.00  0.00    -0.266 OA
HETATM    4  H   UNL     1       7.286  25.948  55.501  1.00  0.00     0.163 HD
ENDROOT
BRANCH   1   5
HETATM    5  C   UNL     1       7.879  24.034  56.291  1.00  0.00     0.114 C 
HETATM    6  C   UNL     1       9.371  23.717  56.181  1.00  0.00     0.035 C 
BRANCH   5   7
HETATM    7  C   UNL     1       7.005  23.318  55.221  1.00  0.00     0.173 C 
BRANCH   7   8
HETATM    8  O   UNL     1       7.622  22.086  54.828  1.00  0.00    -0.389 OA
HETATM    9  H   UNL     1       8.434  22.330  54.349  1.00  0.00     0.210 HD
ENDBRANCH   7   8
BRANCH   7  10
HETATM   10  C   UNL     1       6.702  24.153  53.987  1.00  0.00    -0.028 A 
HETATM   11  C   UNL     1       5.464  24.795  53.861  1.00  0.00     0.012 A 
HETATM   12  C   UNL     1       5.177  25.568  52.731  1.00  0.00     0.037 A 
HETATM   13  C   UNL     1       6.115  25.714  51.709  1.00  0.00     0.068 A 
HETATM   14  C   UNL     1       7.352  25.084  51.827  1.00  0.00     0.037 A 
HETATM   15  C   UNL     1       7.642  24.310  52.957  1.00  0.00     0.012 A 
BRANCH  13  16
HETATM   16  O   UNL     1       5.705  26.492  50.661  1.00  0.00    -0.356 OA
HETATM   17  C   UNL     1       4.760  27.514  50.950  1.00  0.00     0.210 C 
ENDBRANCH  13  16
ENDBRANCH   7  10
ENDBRANCH   5   7
ENDBRANCH   1   5
BRANCH   2  18
HETATM   18  C   UNL     1       7.332  27.656  57.316  1.00  0.00     0.126 A 
HETATM   19  N   UNL     1       7.858  28.519  58.231  1.00  0.00    -0.224 NA
HETATM   20  C   UNL     1       7.528  29.832  58.087  1.00  0.00     0.151 A 
HETATM   21  C   UNL     1       6.695  30.297  57.068  1.00  0.00     0.052 A 
HETATM   22  C   UNL     1       6.179  29.385  56.150  1.00  0.00     0.006 A 
HETATM   23  C   UNL     1       6.503  28.038  56.271  1.00  0.00     0.037 A 
BRANCH  20  24
HETATM   24  N   UNL     1       8.065  30.770  59.020  1.00  0.00    -0.227 N 
HETATM   25  N   UNL     1       7.277  31.603  59.756  1.00  0.00    -0.179 NA
HETATM   26  C   UNL     1       8.138  32.312  60.489  1.00  0.00     0.141 A 
HETATM   27  C   UNL     1       9.475  31.958  60.248  1.00  0.00     0.040 A 
HETATM   28  C   UNL     1       9.402  30.966  59.301  1.00  0.00     0.122 A 
ENDBRANCH  20  24
ENDBRANCH   2  18
TORSDOF 7
ENDMDL
MODEL 7
REMARK VINA RESULT:      -8.2      2.678      4.072
REMARK  7 active torsions:
REMARK  status: ('A' for Active; 'I' for Inactive)
REMARK    1  A    between atoms: C_2  and  N_3 
REMARK    2  A    between atoms: C_2  and  C_17 
REMARK       I    between atoms: N_3  and  C_4 
REMARK    3  A    between atoms: C_4  and  C_5 
REMARK    4  A    between atoms: C_7  and  N_8 
REMARK    5  A    between atoms: C_17  and  O_18 
REMARK    6  A    between atoms: C_17  and  C_19 
REMARK    7  A    between atoms: C_22  and  O_23 
ROOT
HETATM    1  N   UNL     1       6.142  26.749  54.193  1.00  0.00    -0.349 N 
HETATM    2  C   UNL     1       5.391  27.895  54.340  1.00  0.00     0.270 C 
HETATM    3  O   UNL     1       4.532  28.256  53.545  1.00  0.00    -0.266 OA
HETATM    4  H   UNL     1       6.925  26.644  54.834  1.00  0.00     0.163 HD
ENDROOT
BRANCH   1   5
HETATM    5  C   UNL     1       6.062  25.906  53.004  1.00  0.00     0.114 C 
HETATM    6  C   UNL     1       4.927  24.894  53.161  1.00  0.00     0.035 C 
BRANCH   5   7
HETATM    7  C   UNL     1       7.427  25.262  52.624  1.00  0.00     0.173 C 
BRANCH   7   8
HETATM    8  O   UNL     1       7.480  25.022  51.212  1.00  0.00    -0.389 OA
HETATM    9  H   UNL     1       7.822  25.841  50.810  1.00  0.00     0.210 HD
ENDBRANCH   7   8
BRANCH   7  10
HETATM   10  C   UNL     1       7.755  23.981  53.372  1.00  0.00    -0.028 A 
HETATM   11  C   UNL     1       8.090  24.027  54.731  1.00  0.00     0.012 A 
HETATM   12  C   UNL     1       8.390  22.853  55.429  1.00  0.00     0.037 A 
HETATM   13  C   UNL     1       8.363  21.614  54.788  1.00  0.00     0.068 A 
HETATM   14  C   UNL     1       8.026  21.556  53.437  1.00  0.00     0.037 A 
HETATM   15  C   UNL     1       7.724  22.730  52.736  1.00  0.00     0.012 A 
BRANCH  13  16
HETATM   16  O   UNL     1       8.681  20.548  55.584  1.00  0.00    -0.356 OA
HETATM   17  C   UNL     1       8.546  20.733  56.988  1.00  0.00     0.210 C 
ENDBRANCH  13  16
ENDBRANCH   7  10
ENDBRANCH   5   7
ENDBRANCH   1   5
BRANCH   2  18
HETATM   18  C   UNL     1       5.720  28.703  55.559  1.00  0.00     0.126 A 
HETATM   19  N   UNL     1       7.043  28.938  55.786  1.00  0.00    -0.224 NA
HETATM   20  C   UNL     1       7.349  29.672  56.891  1.00  0.00     0.151 A 
HETATM   21  C   UNL     1       6.379  30.168  57.764  1.00  0.00     0.052 A 
HETATM   22  C   UNL     1       5.036  29.910  57.497  1.00  0.00     0.006 A 
HETATM   23  C   UNL     1       4.695  29.166  56.373  1.00  0.00     0.037 A 
BRANCH  20  24
HETATM   24  N   UNL     1       8.724  29.947  57.160  1.00  0.00    -0.227 N 
HETATM   25  N   UNL     1       9.735  29.442  56.399  1.00  0.00    -0.179 NA
HETATM   26  C   UNL     1      10.846  29.916  56.966  1.00  0.00     0.141 A 
HETATM   27  C   UNL     1      10.582  30.724  58.083  1.00  0.00     0.040 A 
HETATM   28  C   UNL     1       9.213  30.729  58.187  1.00  0.00     0.122 A 
ENDBRANCH  20  24
ENDBRANCH   2  18
TORSDOF 7
ENDMDL
MODEL 8
REMARK VINA RESULT:      -8.2      2.373      3.071
REMARK  7 active torsions:
REMARK  status: ('A' for Active; 'I' for Inactive)
REMARK    1  A    between atoms: C_2  and  N_3 
REMARK    2  A    between atoms: C_2  and  C_17 
REMARK       I    between atoms: N_3  and  C_4 
REMARK    3  A    between atoms: C_4  and  C_5 
REMARK    4  A    between atoms: C_7  and  N_8 
REMARK    5  A    between atoms: C_17  and  O_18 
REMARK    6  A    between atoms: C_17  and  C_19 
REMARK    7  A    between atoms: C_22  and  O_23 
ROOT
HETATM    1  N   UNL     1       6.220  28.485  54.840  1.00  0.00    -0.349 N 
HETATM    2  C   UNL     1       7.218  28.857  55.716  1.00  0.00     0.270 C 
HETATM    3  O   UNL     1       8.360  28.415  55.678  1.00  0.00    -0.266 OA
HETATM    4  H   UNL     1       5.283  28.803  55.072  1.00  0.00     0.163 HD
ENDROOT
BRANCH   1   5
HETATM    5  C   UNL     1       6.403  27.433  53.844  1.00  0.00     0.114 C 
HETATM    6  C   UNL     1       6.083  27.977  52.451  1.00  0.00     0.035 C 
BRANCH   5   7
HETATM    7  C   UNL     1       5.638  26.124  54.197  1.00  0.00     0.173 C 
BRANCH   7   8
HETATM    8  O   UNL     1       5.014  26.251  55.480  1.00  0.00    -0.389 OA
HETATM    9  H   UNL     1       4.507  25.432  55.617  1.00  0.00     0.210 HD
ENDBRANCH   7   8
BRANCH   7  10
HETATM   10  C   UNL     1       6.487  24.864  54.164  1.00  0.00    -0.028 A 
HETATM   11  C   UNL     1       6.915  24.337  52.939  1.00  0.00     0.012 A 
HETATM   12  C   UNL     1       7.699  23.180  52.899  1.00  0.00     0.037 A 
HETATM   13  C   UNL     1       8.070  22.528  54.075  1.00  0.00     0.068 A 
HETATM   14  C   UNL     1       7.655  23.047  55.299  1.00  0.00     0.037 A 
HETATM   15  C   UNL     1       6.870  24.205  55.343  1.00  0.00     0.012 A 
BRANCH  13  16
HETATM   16  O   UNL     1       8.833  21.407  53.893  1.00  0.00    -0.356 OA
HETATM   17  C   UNL     1       8.361  20.456  52.947  1.00  0.00     0.210 C 
ENDBRANCH  13  16
ENDBRANCH   7  10
ENDBRANCH   5   7
ENDBRANCH   1   5
BRANCH   2  18
HETATM   18  C   UNL     1       6.794  29.847  56.757  1.00  0.00     0.126 A 
HETATM   19  N   UNL     1       7.633  29.998  57.821  1.00  0.00    -0.224 NA
HETATM   20  C   UNL     1       7.256  30.897  58.771  1.00  0.00     0.151 A 
HETATM   21  C   UNL     1       6.075  31.637  58.686  1.00  0.00     0.052 A 
HETATM   22  C   UNL     1       5.244  31.459  57.582  1.00  0.00     0.006 A 
HETATM   23  C   UNL     1       5.608  30.549  56.595  1.00  0.00     0.037 A 
BRANCH  20  24
HETATM   24  N   UNL     1       8.111  31.090  59.897  1.00  0.00    -0.227 N 
HETATM   25  N   UNL     1       8.829  30.075  60.454  1.00  0.00    -0.179 NA
HETATM   26  C   UNL     1       9.485  30.647  61.465  1.00  0.00     0.141 A 
HETATM   27  C   UNL     1       9.211  32.019  61.581  1.00  0.00     0.040 A 
HETATM   28  C   UNL     1       8.327  32.280  60.563  1.00  0.00     0.122 A 
ENDBRANCH  20  24
ENDBRANCH   2  18
TORSDOF 7
ENDMDL
MODEL 9
REMARK VINA RESULT:      -8.2      2.309      4.253
REMARK  7 active torsions:
REMARK  status: ('A' for Active; 'I' for Inactive)
REMARK    1  A    between atoms: C_2  and  N_3 
REMARK    2  A    between atoms: C_2  and  C_17 
REMARK       I    between atoms: N_3  and  C_4 
REMARK    3  A    between atoms: C_4  and  C_5 
REMARK    4  A    between atoms: C_7  and  N_8 
REMARK    5  A    between atoms: C_17  and  O_18 
REMARK    6  A    between atoms: C_17  and  C_19 
REMARK    7  A    between atoms: C_22  and  O_23 
ROOT
HETATM    1  N   UNL     1       6.893  29.756  58.230  1.00  0.00    -0.349 N 
HETATM    2  C   UNL     1       6.985  31.039  58.726  1.00  0.00     0.270 C 
HETATM    3  O   UNL     1       6.558  32.029  58.144  1.00  0.00    -0.266 OA
HETATM    4  H   UNL     1       7.421  29.046  58.731  1.00  0.00     0.163 HD
ENDROOT
BRANCH   1   5
HETATM    5  C   UNL     1       6.373  29.466  56.897  1.00  0.00     0.114 C 
HETATM    6  C   UNL     1       5.075  28.665  57.009  1.00  0.00     0.035 C 
BRANCH   5   7
HETATM    7  C   UNL     1       7.432  28.814  55.962  1.00  0.00     0.173 C 
BRANCH   7   8
HETATM    8  O   UNL     1       7.132  29.116  54.594  1.00  0.00    -0.389 OA
HETATM    9  H   UNL     1       7.715  28.550  54.057  1.00  0.00     0.210 HD
ENDBRANCH   7   8
BRANCH   7  10
HETATM   10  C   UNL     1       7.589  27.311  56.129  1.00  0.00    -0.028 A 
HETATM   11  C   UNL     1       8.185  26.792  57.286  1.00  0.00     0.012 A 
HETATM   12  C   UNL     1       8.330  25.411  57.451  1.00  0.00     0.037 A 
HETATM   13  C   UNL     1       7.885  24.524  56.470  1.00  0.00     0.068 A 
HETATM   14  C   UNL     1       7.285  25.029  55.318  1.00  0.00     0.037 A 
HETATM   15  C   UNL     1       7.138  26.412  55.150  1.00  0.00     0.012 A 
BRANCH  13  16
HETATM   16  O   UNL     1       8.092  23.202  56.755  1.00  0.00    -0.356 OA
HETATM   17  C   UNL     1       7.758  22.266  55.738  1.00  0.00     0.210 C 
ENDBRANCH  13  16
ENDBRANCH   7  10
ENDBRANCH   5   7
ENDBRANCH   1   5
BRANCH   2  18
HETATM   18  C   UNL     1       7.679  31.147  60.050  1.00  0.00     0.126 A 
HETATM   19  N   UNL     1       6.992  31.785  61.039  1.00  0.00    -0.224 NA
HETATM   20  C   UNL     1       7.616  31.885  62.245  1.00  0.00     0.151 A 
HETATM   21  C   UNL     1       8.892  31.372  62.482  1.00  0.00     0.052 A 
HETATM   22  C   UNL     1       9.562  30.723  61.447  1.00  0.00     0.006 A 
HETATM   23  C   UNL     1       8.946  30.603  60.207  1.00  0.00     0.037 A 
BRANCH  20  24
HETATM   24  N   UNL     1       6.927  32.540  63.310  1.00  0.00    -0.227 N 
HETATM   25  N   UNL     1       5.568  32.605  63.373  1.00  0.00    -0.179 NA
HETATM   26  C   UNL     1       5.319  33.289  64.491  1.00  0.00     0.141 A 
HETATM   27  C   UNL     1       6.490  33.673  65.163  1.00  0.00     0.040 A 
HETATM   28  C   UNL     1       7.509  33.180  64.385  1.00  0.00     0.122 A 
ENDBRANCH  20  24
ENDBRANCH   2  18
TORSDOF 7
ENDMDL
MODEL 10
REMARK VINA RESULT:      -8.2      3.088      9.088
REMARK  7 active torsions:
REMARK  status: ('A' for Active; 'I' for Inactive)
REMARK    1  A    between atoms: C_2  and  N_3 
REMARK    2  A    between atoms: C_2  and  C_17 
REMARK       I    between atoms: N_3  and  C_4 
REMARK    3  A    between atoms: C_4  and  C_5 
REMARK    4  A    between atoms: C_7  and  N_8 
REMARK    5  A    between atoms: C_17  and  O_18 
REMARK    6  A    between atoms: C_17  and  C_19 
REMARK    7  A    between atoms: C_22  and  O_23 
ROOT
HETATM    1  N   UNL     1       6.005  27.453  55.510  1.00  0.00    -0.349 N 
HETATM    2  C   UNL     1       7.044  26.596  55.805  1.00  0.00     0.270 C 
HETATM    3  O   UNL     1       7.654  26.603  56.868  1.00  0.00    -0.266 OA
HETATM    4  H   UNL     1       5.688  27.451  54.544  1.00  0.00     0.163 HD
ENDROOT
BRANCH   1   5
HETATM    5  C   UNL     1       5.603  28.536  56.403  1.00  0.00     0.114 C 
HETATM    6  C   UNL     1       4.123  28.858  56.193  1.00  0.00     0.035 C 
BRANCH   5   7
HETATM    7  C   UNL     1       6.535  29.778  56.307  1.00  0.00     0.173 C 
BRANCH   7   8
HETATM    8  O   UNL     1       7.694  29.463  55.524  1.00  0.00    -0.389 OA
HETATM    9  H   UNL     1       8.452  29.854  55.994  1.00  0.00     0.210 HD
ENDBRANCH   7   8
BRANCH   7  10
HETATM   10  C   UNL     1       6.965  30.355  57.645  1.00  0.00    -0.028 A 
HETATM   11  C   UNL     1       8.027  29.776  58.352  1.00  0.00     0.012 A 
HETATM   12  C   UNL     1       8.431  30.302  59.582  1.00  0.00     0.037 A 
HETATM   13  C   UNL     1       7.788  31.411  60.132  1.00  0.00     0.068 A 
HETATM   14  C   UNL     1       6.734  31.999  59.435  1.00  0.00     0.037 A 
HETATM   15  C   UNL     1       6.326  31.475  58.202  1.00  0.00     0.012 A 
BRANCH  13  16
HETATM   16  O   UNL     1       8.279  31.820  61.341  1.00  0.00    -0.356 OA
HETATM   17  C   UNL     1       8.429  30.822  62.343  1.00  0.00     0.210 C 
ENDBRANCH  13  16
ENDBRANCH   7  10
ENDBRANCH   5   7
ENDBRANCH   1   5
BRANCH   2  18
HETATM   18  C   UNL     1       7.401  25.647  54.703  1.00  0.00     0.126 A 
HETATM   19  N   UNL     1       7.601  24.349  55.068  1.00  0.00    -0.224 NA
HETATM   20  C   UNL     1       7.924  23.479  54.071  1.00  0.00     0.151 A 
HETATM   21  C   UNL     1       8.053  23.871  52.737  1.00  0.00     0.052 A 
HETATM   22  C   UNL     1       7.837  25.206  52.402  1.00  0.00     0.006 A 
HETATM   23  C   UNL     1       7.502  26.114  53.400  1.00  0.00     0.037 A 
BRANCH  20  24
HETATM   24  N   UNL     1       8.135  22.109  54.411  1.00  0.00    -0.227 N 
HETATM   25  N   UNL     1       8.636  21.204  53.526  1.00  0.00    -0.179 NA
HETATM   26  C   UNL     1       8.677  20.058  54.209  1.00  0.00     0.141 A 
HETATM   27  C   UNL     1       8.213  20.197  55.527  1.00  0.00     0.040 A 
HETATM   28  C   UNL     1       7.871  21.523  55.632  1.00  0.00     0.122 A 
ENDBRANCH  20  24
ENDBRANCH   2  18
TORSDOF 7
ENDMDL
