MODEL 1
REMARK VINA RESULT:      -9.3      0.000      0.000
REMARK  7 active torsions:
REMARK  status: ('A' for Active; 'I' for Inactive)
REMARK       I    between atoms: C_2  and  N_3 
REMARK    1  A    between atoms: N_3  and  C_4 
REMARK    2  A    between atoms: C_7  and  N_8 
REMARK       I    between atoms: N_8  and  C_9 
REMARK    3  A    between atoms: C_9  and  C_10 
REMARK    4  A    between atoms: C_11  and  C_12 
REMARK    5  A    between atoms: C_13  and  O_14 
REMARK    6  A    between atoms: N_20  and  C_21 
REMARK    7  A    between atoms: C_24  and  O_25 
ROOT
HETATM    1  C   UNL     1       4.576  29.102  54.977  1.00  0.00     0.106 C 
HETATM    2  C   UNL     1       5.821  28.296  54.559  1.00  0.00     0.142 C 
HETATM    3  N   UNL     1       5.492  27.502  53.338  1.00  0.00    -0.308 N 
HETATM    4  C   UNL     1       4.936  28.177  52.239  1.00  0.00     0.225 C 
HETATM    5  O   UNL     1       4.997  27.791  51.068  1.00  0.00    -0.273 OA
HETATM    6  C   UNL     1       4.020  29.353  52.558  1.00  0.00     0.104 C 
HETATM    7  C   UNL     1       4.281  30.094  53.857  1.00  0.00     0.026 C 
ENDROOT
BRANCH   1   8
HETATM    8  C   UNL     1       4.633  29.835  56.314  1.00  0.00     0.228 C 
HETATM    9  N   UNL     1       5.765  30.588  56.555  1.00  0.00    -0.327 N 
HETATM   10  H   UNL     1       6.519  30.541  55.882  1.00  0.00     0.169 HD
HETATM   11  O   UNL     1       3.664  29.736  57.066  1.00  0.00    -0.273 OA
BRANCH   9  12
HETATM   12  C   UNL     1       6.092  31.235  57.770  1.00  0.00     0.034 A 
HETATM   13  C   UNL     1       5.329  32.249  58.347  1.00  0.00     0.032 A 
HETATM   14  C   UNL     1       5.679  32.797  59.590  1.00  0.00     0.032 A 
HETATM   15  C   UNL     1       6.799  32.340  60.278  1.00  0.00     0.034 A 
HETATM   16  C   UNL     1       7.586  31.346  59.686  1.00  0.00     0.032 A 
HETATM   17  C   UNL     1       7.239  30.802  58.441  1.00  0.00     0.032 A 
BRANCH  15  18
HETATM   18  N   UNL     1       7.187  32.804  61.552  1.00  0.00    -0.328 N 
HETATM   19  C   UNL     1       6.688  32.402  62.780  1.00  0.00     0.218 C 
HETATM   20  C   UNL     1       7.392  33.066  63.938  1.00  0.00     0.117 C 
HETATM   21  O   UNL     1       5.804  31.580  62.984  1.00  0.00    -0.274 OA
HETATM   22  H   UNL     1       7.935  33.484  61.564  1.00  0.00     0.169 HD
ENDBRANCH  15  18
ENDBRANCH   9  12
ENDBRANCH   1   8
BRANCH   2  23
HETATM   23  C   UNL     1       6.556  27.586  55.696  1.00  0.00    -0.001 A 
HETATM   24  C   UNL     1       7.848  28.012  56.075  1.00  0.00     0.076 A 
HETATM   25  C   UNL     1       8.512  27.408  57.148  1.00  0.00     0.037 A 
HETATM   26  C   UNL     1       7.914  26.357  57.838  1.00  0.00     0.003 A 
HETATM   27  C   UNL     1       6.651  25.909  57.463  1.00  0.00     0.001 A 
HETATM   28  C   UNL     1       5.976  26.517  56.402  1.00  0.00     0.012 A 
BRANCH  24  29
HETATM   29  O   UNL     1       8.384  29.085  55.407  1.00  0.00    -0.355 OA
HETATM   30  C   UNL     1       9.660  29.495  55.900  1.00  0.00     0.210 C 
ENDBRANCH  24  29
ENDBRANCH   2  23
BRANCH   3  31
HETATM   31  C   UNL     1       6.127  26.238  53.132  1.00  0.00     0.038 A 
HETATM   32  C   UNL     1       5.454  25.029  53.324  1.00  0.00     0.032 A 
HETATM   33  C   UNL     1       6.110  23.811  53.114  1.00  0.00     0.039 A 
HETATM   34  C   UNL     1       7.451  23.779  52.725  1.00  0.00     0.068 A 
HETATM   35  C   UNL     1       8.137  24.979  52.564  1.00  0.00     0.039 A 
HETATM   36  C   UNL     1       7.481  26.196  52.780  1.00  0.00     0.032 A 
BRANCH  34  37
HETATM   37  O   UNL     1       7.968  22.526  52.542  1.00  0.00    -0.356 OA
HETATM   38  C   UNL     1       8.627  21.938  53.659  1.00  0.00     0.210 C 
ENDBRANCH  34  37
ENDBRANCH   3  31
TORSDOF 7
ENDMDL
MODEL 2
REMARK VINA RESULT:      -8.2      0.959      1.823
REMARK  7 active torsions:
REMARK  status: ('A' for Active; 'I' for Inactive)
REMARK       I    between atoms: C_2  and  N_3 
REMARK    1  A    between atoms: N_3  and  C_4 
REMARK    2  A    between atoms: C_7  and  N_8 
REMARK       I    between atoms: N_8  and  C_9 
REMARK    3  A    between atoms: C_9  and  C_10 
REMARK    4  A    between atoms: C_11  and  C_12 
REMARK    5  A    between atoms: C_13  and  O_14 
REMARK    6  A    between atoms: N_20  and  C_21 
REMARK    7  A    between atoms: C_24  and  O_25 
ROOT
HETATM    1  C   UNL     1       4.322  29.276  55.365  1.00  0.00     0.106 C 
HETATM    2  C   UNL     1       5.582  28.616  54.773  1.00  0.00     0.142 C 
HETATM    3  N   UNL     1       5.180  27.763  53.615  1.00  0.00    -0.308 N 
HETATM    4  C   UNL     1       4.393  28.342  52.606  1.00  0.00     0.225 C 
HETATM    5  O   UNL     1       4.332  27.942  51.441  1.00  0.00    -0.273 OA
HETATM    6  C   UNL     1       3.397  29.408  53.051  1.00  0.00     0.104 C 
HETATM    7  C   UNL     1       3.750  30.202  54.296  1.00  0.00     0.026 C 
ENDROOT
BRANCH   1   8
HETATM    8  C   UNL     1       4.481  30.039  56.676  1.00  0.00     0.228 C 
HETATM    9  N   UNL     1       5.698  30.658  56.884  1.00  0.00    -0.327 N 
HETATM   10  H   UNL     1       6.432  30.500  56.207  1.00  0.00     0.169 HD
HETATM   11  O   UNL     1       3.516  30.081  57.439  1.00  0.00    -0.273 OA
BRANCH   9  12
HETATM   12  C   UNL     1       6.114  31.299  58.075  1.00  0.00     0.034 A 
HETATM   13  C   UNL     1       5.421  32.345  58.684  1.00  0.00     0.032 A 
HETATM   14  C   UNL     1       5.858  32.887  59.902  1.00  0.00     0.032 A 
HETATM   15  C   UNL     1       6.995  32.391  60.533  1.00  0.00     0.034 A 
HETATM   16  C   UNL     1       7.711  31.364  59.908  1.00  0.00     0.032 A 
HETATM   17  C   UNL     1       7.278  30.827  58.688  1.00  0.00     0.032 A 
BRANCH  15  18
HETATM   18  N   UNL     1       7.468  32.848  61.781  1.00  0.00    -0.328 N 
HETATM   19  C   UNL     1       6.890  32.645  63.023  1.00  0.00     0.218 C 
HETATM   20  C   UNL     1       7.714  33.221  64.148  1.00  0.00     0.117 C 
HETATM   21  O   UNL     1       5.850  32.046  63.265  1.00  0.00    -0.274 OA
HETATM   22  H   UNL     1       8.343  33.353  61.763  1.00  0.00     0.169 HD
ENDBRANCH  15  18
ENDBRANCH   9  12
ENDBRANCH   1   8
BRANCH   2  23
HETATM   23  C   UNL     1       6.554  28.024  55.793  1.00  0.00    -0.001 A 
HETATM   24  C   UNL     1       6.120  27.014  56.679  1.00  0.00     0.076 A 
HETATM   25  C   UNL     1       7.012  26.425  57.582  1.00  0.00     0.037 A 
HETATM   26  C   UNL     1       8.336  26.852  57.635  1.00  0.00     0.003 A 
HETATM   27  C   UNL     1       8.775  27.862  56.785  1.00  0.00     0.001 A 
HETATM   28  C   UNL     1       7.895  28.444  55.871  1.00  0.00     0.012 A 
BRANCH  24  29
HETATM   29  O   UNL     1       4.823  26.582  56.562  1.00  0.00    -0.355 OA
HETATM   30  C   UNL     1       4.578  25.313  57.169  1.00  0.00     0.210 C 
ENDBRANCH  24  29
ENDBRANCH   2  23
BRANCH   3  31
HETATM   31  C   UNL     1       5.928  26.580  53.324  1.00  0.00     0.038 A 
HETATM   32  C   UNL     1       7.241  26.631  52.849  1.00  0.00     0.032 A 
HETATM   33  C   UNL     1       7.941  25.450  52.573  1.00  0.00     0.039 A 
HETATM   34  C   UNL     1       7.338  24.204  52.751  1.00  0.00     0.068 A 
HETATM   35  C   UNL     1       6.019  24.147  53.191  1.00  0.00     0.039 A 
HETATM   36  C   UNL     1       5.319  25.328  53.462  1.00  0.00     0.032 A 
BRANCH  34  37
HETATM   37  O   UNL     1       8.134  23.131  52.456  1.00  0.00    -0.356 OA
HETATM   38  C   UNL     1       8.496  22.286  53.542  1.00  0.00     0.210 C 
ENDBRANCH  34  37
ENDBRANCH   3  31
TORSDOF 7
ENDMDL
MODEL 3
REMARK VINA RESULT:      -7.6      2.547      9.518
REMARK  7 active torsions:
REMARK  status: ('A' for Active; 'I' for Inactive)
REMARK       I    between atoms: C_2  and  N_3 
REMARK    1  A    between atoms: N_3  and  C_4 
REMARK    2  A    between atoms: C_7  and  N_8 
REMARK       I    between atoms: N_8  and  C_9 
REMARK    3  A    between atoms: C_9  and  C_10 
REMARK    4  A    between atoms: C_11  and  C_12 
REMARK    5  A    between atoms: C_13  and  O_14 
REMARK    6  A    between atoms: N_20  and  C_21 
REMARK    7  A    between atoms: C_24  and  O_25 
ROOT
HETATM    1  C   UNL     1       7.289  30.464  58.877  1.00  0.00     0.106 C 
HETATM    2  C   UNL     1       6.358  31.686  58.766  1.00  0.00     0.142 C 
HETATM    3  N   UNL     1       6.207  32.301  60.118  1.00  0.00    -0.308 N 
HETATM    4  C   UNL     1       7.372  32.619  60.836  1.00  0.00     0.225 C 
HETATM    5  O   UNL     1       7.444  33.472  61.724  1.00  0.00    -0.273 OA
HETATM    6  C   UNL     1       8.566  31.693  60.634  1.00  0.00     0.104 C 
HETATM    7  C   UNL     1       8.663  30.977  59.299  1.00  0.00     0.026 C 
ENDROOT
BRANCH   1   8
HETATM    8  C   UNL     1       7.427  29.573  57.647  1.00  0.00     0.228 C 
HETATM    9  N   UNL     1       6.899  28.300  57.746  1.00  0.00    -0.327 N 
HETATM   10  H   UNL     1       6.536  28.006  58.643  1.00  0.00     0.169 HD
HETATM   11  O   UNL     1       7.963  30.051  56.647  1.00  0.00    -0.273 OA
BRANCH   9  12
HETATM   12  C   UNL     1       7.031  27.267  56.789  1.00  0.00     0.034 A 
HETATM   13  C   UNL     1       6.432  27.285  55.530  1.00  0.00     0.032 A 
HETATM   14  C   UNL     1       6.663  26.255  54.606  1.00  0.00     0.032 A 
HETATM   15  C   UNL     1       7.500  25.189  54.925  1.00  0.00     0.034 A 
HETATM   16  C   UNL     1       8.076  25.151  56.200  1.00  0.00     0.032 A 
HETATM   17  C   UNL     1       7.840  26.178  57.125  1.00  0.00     0.032 A 
BRANCH  15  18
HETATM   18  N   UNL     1       7.821  24.144  54.034  1.00  0.00    -0.328 N 
HETATM   19  C   UNL     1       7.696  22.782  54.258  1.00  0.00     0.218 C 
HETATM   20  C   UNL     1       8.071  21.959  53.050  1.00  0.00     0.117 C 
HETATM   21  O   UNL     1       7.301  22.235  55.279  1.00  0.00    -0.274 OA
HETATM   22  H   UNL     1       8.149  24.428  53.121  1.00  0.00     0.169 HD
ENDBRANCH  15  18
ENDBRANCH   9  12
ENDBRANCH   1   8
BRANCH   2  23
HETATM   23  C   UNL     1       5.095  31.476  57.932  1.00  0.00    -0.001 A 
HETATM   24  C   UNL     1       4.749  32.406  56.927  1.00  0.00     0.076 A 
HETATM   25  C   UNL     1       3.626  32.200  56.119  1.00  0.00     0.037 A 
HETATM   26  C   UNL     1       2.817  31.083  56.318  1.00  0.00     0.003 A 
HETATM   27  C   UNL     1       3.131  30.168  57.319  1.00  0.00     0.001 A 
HETATM   28  C   UNL     1       4.259  30.360  58.119  1.00  0.00     0.012 A 
BRANCH  24  29
HETATM   29  O   UNL     1       5.598  33.466  56.724  1.00  0.00    -0.355 OA
HETATM   30  C   UNL     1       4.949  34.641  56.237  1.00  0.00     0.210 C 
ENDBRANCH  24  29
ENDBRANCH   2  23
BRANCH   3  31
HETATM   31  C   UNL     1       4.979  32.948  60.460  1.00  0.00     0.038 A 
HETATM   32  C   UNL     1       4.610  34.179  59.911  1.00  0.00     0.032 A 
HETATM   33  C   UNL     1       3.400  34.781  60.272  1.00  0.00     0.039 A 
HETATM   34  C   UNL     1       2.546  34.175  61.197  1.00  0.00     0.068 A 
HETATM   35  C   UNL     1       2.924  32.966  61.773  1.00  0.00     0.039 A 
HETATM   36  C   UNL     1       4.137  32.366  61.414  1.00  0.00     0.032 A 
BRANCH  34  37
HETATM   37  O   UNL     1       1.392  34.863  61.453  1.00  0.00    -0.356 OA
HETATM   38  C   UNL     1       0.444  34.936  60.394  1.00  0.00     0.210 C 
ENDBRANCH  34  37
ENDBRANCH   3  31
TORSDOF 7
ENDMDL
MODEL 4
REMARK VINA RESULT:      -7.6      4.626      8.914
REMARK  7 active torsions:
REMARK  status: ('A' for Active; 'I' for Inactive)
REMARK       I    between atoms: C_2  and  N_3 
REMARK    1  A    between atoms: N_3  and  C_4 
REMARK    2  A    between atoms: C_7  and  N_8 
REMARK       I    between atoms: N_8  and  C_9 
REMARK    3  A    between atoms: C_9  and  C_10 
REMARK    4  A    between atoms: C_11  and  C_12 
REMARK    5  A    between atoms: C_13  and  O_14 
REMARK    6  A    between atoms: N_20  and  C_21 
REMARK    7  A    between atoms: C_24  and  O_25 
ROOT
HETATM    1  C   UNL     1       4.158  29.203  53.177  1.00  0.00     0.106 C 
HETATM    2  C   UNL     1       4.159  30.023  51.872  1.00  0.00     0.142 C 
HETATM    3  N   UNL     1       2.976  30.933  51.874  1.00  0.00    -0.308 N 
HETATM    4  C   UNL     1       2.779  31.763  52.990  1.00  0.00     0.225 C 
HETATM    5  O   UNL     1       2.143  32.820  52.981  1.00  0.00    -0.273 OA
HETATM    6  C   UNL     1       3.211  31.199  54.339  1.00  0.00     0.104 C 
HETATM    7  C   UNL     1       4.342  30.186  54.329  1.00  0.00     0.026 C 
ENDROOT
BRANCH   1   8
HETATM    8  C   UNL     1       5.175  28.073  53.296  1.00  0.00     0.228 C 
HETATM    9  N   UNL     1       4.667  26.811  53.538  1.00  0.00    -0.327 N 
HETATM   10  H   UNL     1       3.673  26.725  53.708  1.00  0.00     0.169 HD
HETATM   11  O   UNL     1       6.363  28.349  53.136  1.00  0.00    -0.273 OA
BRANCH   9  12
HETATM   12  C   UNL     1       5.422  25.648  53.818  1.00  0.00     0.034 A 
HETATM   13  C   UNL     1       5.974  24.820  52.842  1.00  0.00     0.032 A 
HETATM   14  C   UNL     1       6.771  23.721  53.195  1.00  0.00     0.032 A 
HETATM   15  C   UNL     1       7.030  23.432  54.531  1.00  0.00     0.034 A 
HETATM   16  C   UNL     1       6.450  24.241  55.514  1.00  0.00     0.032 A 
HETATM   17  C   UNL     1       5.650  25.337  55.161  1.00  0.00     0.032 A 
BRANCH  15  18
HETATM   18  N   UNL     1       7.860  22.376  54.964  1.00  0.00    -0.328 N 
HETATM   19  C   UNL     1       8.065  21.158  54.338  1.00  0.00     0.218 C 
HETATM   20  C   UNL     1       9.078  20.300  55.054  1.00  0.00     0.117 C 
HETATM   21  O   UNL     1       7.547  20.765  53.301  1.00  0.00    -0.274 OA
HETATM   22  H   UNL     1       8.386  22.548  55.811  1.00  0.00     0.169 HD
ENDBRANCH  15  18
ENDBRANCH   9  12
ENDBRANCH   1   8
BRANCH   2  23
HETATM   23  C   UNL     1       4.448  29.229  50.598  1.00  0.00    -0.001 A 
HETATM   24  C   UNL     1       5.536  29.589  49.774  1.00  0.00     0.076 A 
HETATM   25  C   UNL     1       5.846  28.841  48.633  1.00  0.00     0.037 A 
HETATM   26  C   UNL     1       5.062  27.744  48.283  1.00  0.00     0.003 A 
HETATM   27  C   UNL     1       3.972  27.388  49.072  1.00  0.00     0.001 A 
HETATM   28  C   UNL     1       3.666  28.122  50.220  1.00  0.00     0.012 A 
BRANCH  24  29
HETATM   29  O   UNL     1       6.318  30.643  50.178  1.00  0.00    -0.355 OA
HETATM   30  C   UNL     1       6.252  31.777  49.314  1.00  0.00     0.210 C 
ENDBRANCH  24  29
ENDBRANCH   2  23
BRANCH   3  31
HETATM   31  C   UNL     1       2.351  31.273  50.634  1.00  0.00     0.038 A 
HETATM   32  C   UNL     1       2.853  32.277  49.801  1.00  0.00     0.032 A 
HETATM   33  C   UNL     1       2.212  32.582  48.594  1.00  0.00     0.039 A 
HETATM   34  C   UNL     1       1.055  31.904  48.207  1.00  0.00     0.068 A 
HETATM   35  C   UNL     1       0.531  30.926  49.048  1.00  0.00     0.039 A 
HETATM   36  C   UNL     1       1.170  30.625  50.257  1.00  0.00     0.032 A 
BRANCH  34  37
HETATM   37  O   UNL     1       0.536  32.291  47.002  1.00  0.00    -0.356 OA
HETATM   38  C   UNL     1       0.573  31.330  45.953  1.00  0.00     0.210 C 
ENDBRANCH  34  37
ENDBRANCH   3  31
TORSDOF 7
ENDMDL
MODEL 5
REMARK VINA RESULT:      -7.4      3.850     10.809
REMARK  7 active torsions:
REMARK  status: ('A' for Active; 'I' for Inactive)
REMARK       I    between atoms: C_2  and  N_3 
REMARK    1  A    between atoms: N_3  and  C_4 
REMARK    2  A    between atoms: C_7  and  N_8 
REMARK       I    between atoms: N_8  and  C_9 
REMARK    3  A    between atoms: C_9  and  C_10 
REMARK    4  A    between atoms: C_11  and  C_12 
REMARK    5  A    between atoms: C_13  and  O_14 
REMARK    6  A    between atoms: N_20  and  C_21 
REMARK    7  A    between atoms: C_24  and  O_25 
ROOT
HETATM    1  C   UNL     1       4.520  33.919  59.106  1.00  0.00     0.106 C 
HETATM    2  C   UNL     1       4.264  34.492  60.513  1.00  0.00     0.142 C 
HETATM    3  N   UNL     1       4.213  35.981  60.424  1.00  0.00    -0.308 N 
HETATM    4  C   UNL     1       3.349  36.560  59.481  1.00  0.00     0.225 C 
HETATM    5  O   UNL     1       2.882  37.700  59.555  1.00  0.00    -0.273 OA
HETATM    6  C   UNL     1       3.152  35.789  58.180  1.00  0.00     0.104 C 
HETATM    7  C   UNL     1       3.314  34.281  58.244  1.00  0.00     0.026 C 
ENDROOT
BRANCH   1   8
HETATM    8  C   UNL     1       4.800  32.424  58.998  1.00  0.00     0.228 C 
HETATM    9  N   UNL     1       6.030  32.063  58.484  1.00  0.00    -0.327 N 
HETATM   10  H   UNL     1       6.630  32.798  58.131  1.00  0.00     0.169 HD
HETATM   11  O   UNL     1       3.936  31.646  59.402  1.00  0.00    -0.273 OA
BRANCH   9  12
HETATM   12  C   UNL     1       6.449  30.750  58.168  1.00  0.00     0.034 A 
HETATM   13  C   UNL     1       5.740  29.880  57.340  1.00  0.00     0.032 A 
HETATM   14  C   UNL     1       6.252  28.615  57.016  1.00  0.00     0.032 A 
HETATM   15  C   UNL     1       7.483  28.197  57.514  1.00  0.00     0.034 A 
HETATM   16  C   UNL     1       8.181  29.054  58.373  1.00  0.00     0.032 A 
HETATM   17  C   UNL     1       7.667  30.317  58.700  1.00  0.00     0.032 A 
BRANCH  15  18
HETATM   18  N   UNL     1       8.086  26.963  57.195  1.00  0.00    -0.328 N 
HETATM   19  C   UNL     1       7.491  25.712  57.198  1.00  0.00     0.218 C 
HETATM   20  C   UNL     1       8.426  24.623  56.732  1.00  0.00     0.117 C 
HETATM   21  O   UNL     1       6.335  25.446  57.497  1.00  0.00    -0.274 OA
HETATM   22  H   UNL     1       9.053  27.008  56.902  1.00  0.00     0.169 HD
ENDBRANCH  15  18
ENDBRANCH   9  12
ENDBRANCH   1   8
BRANCH   2  23
HETATM   23  C   UNL     1       5.095  33.871  61.636  1.00  0.00    -0.001 A 
HETATM   24  C   UNL     1       4.457  33.175  62.685  1.00  0.00     0.076 A 
HETATM   25  C   UNL     1       5.206  32.556  63.691  1.00  0.00     0.037 A 
HETATM   26  C   UNL     1       6.596  32.645  63.683  1.00  0.00     0.003 A 
HETATM   27  C   UNL     1       7.241  33.347  62.668  1.00  0.00     0.001 A 
HETATM   28  C   UNL     1       6.500  33.955  61.653  1.00  0.00     0.012 A 
BRANCH  24  29
HETATM   29  O   UNL     1       3.090  33.062  62.632  1.00  0.00    -0.355 OA
HETATM   30  C   UNL     1       2.406  33.849  63.607  1.00  0.00     0.210 C 
ENDBRANCH  24  29
ENDBRANCH   2  23
BRANCH   3  31
HETATM   31  C   UNL     1       4.659  36.765  61.534  1.00  0.00     0.038 A 
HETATM   32  C   UNL     1       3.995  36.757  62.763  1.00  0.00     0.032 A 
HETATM   33  C   UNL     1       4.462  37.540  63.826  1.00  0.00     0.039 A 
HETATM   34  C   UNL     1       5.587  38.352  63.676  1.00  0.00     0.068 A 
HETATM   35  C   UNL     1       6.233  38.391  62.443  1.00  0.00     0.039 A 
HETATM   36  C   UNL     1       5.763  37.612  61.380  1.00  0.00     0.032 A 
BRANCH  34  37
HETATM   37  O   UNL     1       5.943  39.056  64.793  1.00  0.00    -0.356 OA
HETATM   38  C   UNL     1       6.624  40.288  64.582  1.00  0.00     0.210 C 
ENDBRANCH  34  37
ENDBRANCH   3  31
TORSDOF 7
ENDMDL
MODEL 6
REMARK VINA RESULT:      -7.4      3.815      7.058
REMARK  7 active torsions:
REMARK  status: ('A' for Active; 'I' for Inactive)
REMARK       I    between atoms: C_2  and  N_3 
REMARK    1  A    between atoms: N_3  and  C_4 
REMARK    2  A    between atoms: C_7  and  N_8 
REMARK       I    between atoms: N_8  and  C_9 
REMARK    3  A    between atoms: C_9  and  C_10 
REMARK    4  A    between atoms: C_11  and  C_12 
REMARK    5  A    between atoms: C_13  and  O_14 
REMARK    6  A    between atoms: N_20  and  C_21 
REMARK    7  A    between atoms: C_24  and  O_25 
ROOT
HETATM    1  C   UNL     1       6.919  31.480  58.142  1.00  0.00     0.106 C 
HETATM    2  C   UNL     1       5.430  31.580  57.758  1.00  0.00     0.142 C 
HETATM    3  N   UNL     1       5.270  31.154  56.336  1.00  0.00    -0.308 N 
HETATM    4  C   UNL     1       5.807  29.915  55.950  1.00  0.00     0.225 C 
HETATM    5  O   UNL     1       5.421  29.246  54.988  1.00  0.00    -0.273 OA
HETATM    6  C   UNL     1       7.089  29.483  56.654  1.00  0.00     0.104 C 
HETATM    7  C   UNL     1       7.309  30.007  58.062  1.00  0.00     0.026 C 
ENDROOT
BRANCH   1   8
HETATM    8  C   UNL     1       7.335  32.051  59.494  1.00  0.00     0.228 C 
HETATM    9  N   UNL     1       6.537  31.722  60.572  1.00  0.00    -0.327 N 
HETATM   10  H   UNL     1       5.688  31.202  60.393  1.00  0.00     0.169 HD
HETATM   11  O   UNL     1       8.358  32.732  59.540  1.00  0.00    -0.273 OA
BRANCH   9  12
HETATM   12  C   UNL     1       6.650  32.243  61.882  1.00  0.00     0.034 A 
HETATM   13  C   UNL     1       7.621  31.846  62.801  1.00  0.00     0.032 A 
HETATM   14  C   UNL     1       7.715  32.458  64.060  1.00  0.00     0.032 A 
HETATM   15  C   UNL     1       6.840  33.478  64.422  1.00  0.00     0.034 A 
HETATM   16  C   UNL     1       5.843  33.855  63.515  1.00  0.00     0.032 A 
HETATM   17  C   UNL     1       5.747  33.240  62.259  1.00  0.00     0.032 A 
BRANCH  15  18
HETATM   18  N   UNL     1       6.902  34.174  65.647  1.00  0.00    -0.328 N 
HETATM   19  C   UNL     1       5.924  34.241  66.625  1.00  0.00     0.218 C 
HETATM   20  C   UNL     1       6.368  35.023  67.837  1.00  0.00     0.117 C 
HETATM   21  O   UNL     1       4.816  33.722  66.597  1.00  0.00    -0.274 OA
HETATM   22  H   UNL     1       7.773  34.650  65.840  1.00  0.00     0.169 HD
ENDBRANCH  15  18
ENDBRANCH   9  12
ENDBRANCH   1   8
BRANCH   2  23
HETATM   23  C   UNL     1       4.721  32.859  58.205  1.00  0.00    -0.001 A 
HETATM   24  C   UNL     1       3.711  32.798  59.189  1.00  0.00     0.076 A 
HETATM   25  C   UNL     1       3.090  33.964  59.648  1.00  0.00     0.037 A 
HETATM   26  C   UNL     1       3.445  35.201  59.115  1.00  0.00     0.003 A 
HETATM   27  C   UNL     1       4.423  35.277  58.128  1.00  0.00     0.001 A 
HETATM   28  C   UNL     1       5.057  34.118  57.676  1.00  0.00     0.012 A 
BRANCH  24  29
HETATM   29  O   UNL     1       3.424  31.569  59.730  1.00  0.00    -0.355 OA
HETATM   30  C   UNL     1       2.997  31.621  61.091  1.00  0.00     0.210 C 
ENDBRANCH  24  29
ENDBRANCH   2  23
BRANCH   3  31
HETATM   31  C   UNL     1       4.241  31.747  55.539  1.00  0.00     0.038 A 
HETATM   32  C   UNL     1       4.530  32.610  54.479  1.00  0.00     0.032 A 
HETATM   33  C   UNL     1       3.495  33.173  53.722  1.00  0.00     0.039 A 
HETATM   34  C   UNL     1       2.159  32.896  54.019  1.00  0.00     0.068 A 
HETATM   35  C   UNL     1       1.865  32.063  55.095  1.00  0.00     0.039 A 
HETATM   36  C   UNL     1       2.900  31.506  55.854  1.00  0.00     0.032 A 
BRANCH  34  37
HETATM   37  O   UNL     1       1.249  33.500  53.196  1.00  0.00    -0.356 OA
HETATM   38  C   UNL     1       1.192  33.032  51.854  1.00  0.00     0.210 C 
ENDBRANCH  34  37
ENDBRANCH   3  31
TORSDOF 7
ENDMDL
MODEL 7
REMARK VINA RESULT:      -7.3      5.568      9.393
REMARK  7 active torsions:
REMARK  status: ('A' for Active; 'I' for Inactive)
REMARK       I    between atoms: C_2  and  N_3 
REMARK    1  A    between atoms: N_3  and  C_4 
REMARK    2  A    between atoms: C_7  and  N_8 
REMARK       I    between atoms: N_8  and  C_9 
REMARK    3  A    between atoms: C_9  and  C_10 
REMARK    4  A    between atoms: C_11  and  C_12 
REMARK    5  A    between atoms: C_13  and  O_14 
REMARK    6  A    between atoms: N_20  and  C_21 
REMARK    7  A    between atoms: C_24  and  O_25 
ROOT
HETATM    1  C   UNL     1       4.001  27.262  48.690  1.00  0.00     0.106 C 
HETATM    2  C   UNL     1       2.968  28.394  48.849  1.00  0.00     0.142 C 
HETATM    3  N   UNL     1       2.214  28.542  47.569  1.00  0.00    -0.308 N 
HETATM    4  C   UNL     1       1.624  27.397  47.011  1.00  0.00     0.225 C 
HETATM    5  O   UNL     1       0.662  27.402  46.238  1.00  0.00    -0.273 OA
HETATM    6  C   UNL     1       2.366  26.081  47.221  1.00  0.00     0.104 C 
HETATM    7  C   UNL     1       3.224  25.968  48.468  1.00  0.00     0.026 C 
ENDROOT
BRANCH   1   8
HETATM    8  C   UNL     1       5.010  27.070  49.817  1.00  0.00     0.228 C 
HETATM    9  N   UNL     1       4.915  25.895  50.536  1.00  0.00    -0.327 N 
HETATM   10  H   UNL     1       4.138  25.278  50.335  1.00  0.00     0.169 HD
HETATM   11  O   UNL     1       5.854  27.949  49.989  1.00  0.00    -0.273 OA
BRANCH   9  12
HETATM   12  C   UNL     1       5.649  25.568  51.700  1.00  0.00     0.034 A 
HETATM   13  C   UNL     1       7.016  25.295  51.712  1.00  0.00     0.032 A 
HETATM   14  C   UNL     1       7.692  25.045  52.916  1.00  0.00     0.032 A 
HETATM   15  C   UNL     1       7.011  25.066  54.130  1.00  0.00     0.034 A 
HETATM   16  C   UNL     1       5.632  25.306  54.118  1.00  0.00     0.032 A 
HETATM   17  C   UNL     1       4.957  25.550  52.914  1.00  0.00     0.032 A 
BRANCH  15  18
HETATM   18  N   UNL     1       7.628  24.874  55.384  1.00  0.00    -0.328 N 
HETATM   19  C   UNL     1       7.894  23.670  56.014  1.00  0.00     0.218 C 
HETATM   20  C   UNL     1       8.631  23.847  57.318  1.00  0.00     0.117 C 
HETATM   21  O   UNL     1       7.625  22.548  55.605  1.00  0.00    -0.274 OA
HETATM   22  H   UNL     1       7.936  25.713  55.856  1.00  0.00     0.169 HD
ENDBRANCH  15  18
ENDBRANCH   9  12
ENDBRANCH   1   8
BRANCH   2  23
HETATM   23  C   UNL     1       3.484  29.664  49.526  1.00  0.00    -0.001 A 
HETATM   24  C   UNL     1       3.197  29.905  50.887  1.00  0.00     0.076 A 
HETATM   25  C   UNL     1       3.707  31.036  51.534  1.00  0.00     0.037 A 
HETATM   26  C   UNL     1       4.483  31.954  50.831  1.00  0.00     0.003 A 
HETATM   27  C   UNL     1       4.757  31.742  49.483  1.00  0.00     0.001 A 
HETATM   28  C   UNL     1       4.264  30.609  48.835  1.00  0.00     0.012 A 
BRANCH  24  29
HETATM   29  O   UNL     1       2.474  28.953  51.562  1.00  0.00    -0.355 OA
HETATM   30  C   UNL     1       3.077  28.528  52.784  1.00  0.00     0.210 C 
ENDBRANCH  24  29
ENDBRANCH   2  23
BRANCH   3  31
HETATM   31  C   UNL     1       1.733  29.832  47.185  1.00  0.00     0.038 A 
HETATM   32  C   UNL     1       0.666  30.452  47.840  1.00  0.00     0.032 A 
HETATM   33  C   UNL     1       0.222  31.716  47.433  1.00  0.00     0.039 A 
HETATM   34  C   UNL     1       0.824  32.374  46.359  1.00  0.00     0.068 A 
HETATM   35  C   UNL     1       1.866  31.747  45.681  1.00  0.00     0.039 A 
HETATM   36  C   UNL     1       2.305  30.481  46.085  1.00  0.00     0.032 A 
BRANCH  34  37
HETATM   37  O   UNL     1       0.303  33.605  46.072  1.00  0.00    -0.356 OA
HETATM   38  C   UNL     1      -1.066  33.812  46.402  1.00  0.00     0.210 C 
ENDBRANCH  34  37
ENDBRANCH   3  31
TORSDOF 7
ENDMDL
MODEL 8
REMARK VINA RESULT:      -7.0      4.448     10.163
REMARK  7 active torsions:
REMARK  status: ('A' for Active; 'I' for Inactive)
REMARK       I    between atoms: C_2  and  N_3 
REMARK    1  A    between atoms: N_3  and  C_4 
REMARK    2  A    between atoms: C_7  and  N_8 
REMARK       I    between atoms: N_8  and  C_9 
REMARK    3  A    between atoms: C_9  and  C_10 
REMARK    4  A    between atoms: C_11  and  C_12 
REMARK    5  A    between atoms: C_13  and  O_14 
REMARK    6  A    between atoms: N_20  and  C_21 
REMARK    7  A    between atoms: C_24  and  O_25 
ROOT
HETATM    1  C   UNL     1       4.625  26.985  51.259  1.00  0.00     0.106 C 
HETATM    2  C   UNL     1       5.276  28.035  52.181  1.00  0.00     0.142 C 
HETATM    3  N   UNL     1       5.579  27.399  53.497  1.00  0.00    -0.308 N 
HETATM    4  C   UNL     1       6.310  26.200  53.502  1.00  0.00     0.225 C 
HETATM    5  O   UNL     1       6.982  25.786  54.451  1.00  0.00    -0.273 OA
HETATM    6  C   UNL     1       6.079  25.260  52.324  1.00  0.00     0.104 C 
HETATM    7  C   UNL     1       5.662  25.895  51.010  1.00  0.00     0.026 C 
ENDROOT
BRANCH   1   8
HETATM    8  C   UNL     1       4.060  27.474  49.929  1.00  0.00     0.228 C 
HETATM    9  N   UNL     1       2.732  27.856  49.928  1.00  0.00    -0.327 N 
HETATM   10  H   UNL     1       2.195  27.708  50.772  1.00  0.00     0.169 HD
HETATM   11  O   UNL     1       4.823  27.528  48.965  1.00  0.00    -0.273 OA
BRANCH   9  12
HETATM   12  C   UNL     1       1.968  28.208  48.790  1.00  0.00     0.034 A 
HETATM   13  C   UNL     1       1.724  29.521  48.388  1.00  0.00     0.032 A 
HETATM   14  C   UNL     1       1.014  29.793  47.209  1.00  0.00     0.032 A 
HETATM   15  C   UNL     1       0.537  28.758  46.411  1.00  0.00     0.034 A 
HETATM   16  C   UNL     1       0.751  27.439  46.830  1.00  0.00     0.032 A 
HETATM   17  C   UNL     1       1.456  27.168  48.011  1.00  0.00     0.032 A 
BRANCH  15  18
HETATM   18  N   UNL     1      -0.140  28.950  45.189  1.00  0.00    -0.328 N 
HETATM   19  C   UNL     1      -1.508  29.042  44.993  1.00  0.00     0.218 C 
HETATM   20  C   UNL     1      -1.871  29.321  43.555  1.00  0.00     0.117 C 
HETATM   21  O   UNL     1      -2.384  28.955  45.844  1.00  0.00    -0.274 OA
HETATM   22  H   UNL     1       0.446  29.064  44.373  1.00  0.00     0.169 HD
ENDBRANCH  15  18
ENDBRANCH   9  12
ENDBRANCH   1   8
BRANCH   2  23
HETATM   23  C   UNL     1       4.607  29.409  52.187  1.00  0.00    -0.001 A 
HETATM   24  C   UNL     1       5.117  30.447  51.378  1.00  0.00     0.076 A 
HETATM   25  C   UNL     1       4.484  31.694  51.333  1.00  0.00     0.037 A 
HETATM   26  C   UNL     1       3.355  31.933  52.112  1.00  0.00     0.003 A 
HETATM   27  C   UNL     1       2.852  30.928  52.933  1.00  0.00     0.001 A 
HETATM   28  C   UNL     1       3.470  29.677  52.972  1.00  0.00     0.012 A 
BRANCH  24  29
HETATM   29  O   UNL     1       6.199  30.159  50.584  1.00  0.00    -0.355 OA
HETATM   30  C   UNL     1       6.212  30.868  49.344  1.00  0.00     0.210 C 
ENDBRANCH  24  29
ENDBRANCH   2  23
BRANCH   3  31
HETATM   31  C   UNL     1       5.531  28.192  54.685  1.00  0.00     0.038 A 
HETATM   32  C   UNL     1       4.415  28.204  55.526  1.00  0.00     0.032 A 
HETATM   33  C   UNL     1       4.405  28.995  56.680  1.00  0.00     0.039 A 
HETATM   34  C   UNL     1       5.500  29.797  57.007  1.00  0.00     0.068 A 
HETATM   35  C   UNL     1       6.602  29.816  56.156  1.00  0.00     0.039 A 
HETATM   36  C   UNL     1       6.608  29.028  54.999  1.00  0.00     0.032 A 
BRANCH  34  37
HETATM   37  O   UNL     1       5.366  30.511  58.166  1.00  0.00    -0.356 OA
HETATM   38  C   UNL     1       4.125  31.178  58.365  1.00  0.00     0.210 C 
ENDBRANCH  34  37
ENDBRANCH   3  31
TORSDOF 7
ENDMDL
MODEL 9
REMARK VINA RESULT:      -6.9      2.415      2.882
REMARK  7 active torsions:
REMARK  status: ('A' for Active; 'I' for Inactive)
REMARK       I    between atoms: C_2  and  N_3 
REMARK    1  A    between atoms: N_3  and  C_4 
REMARK    2  A    between atoms: C_7  and  N_8 
REMARK       I    between atoms: N_8  and  C_9 
REMARK    3  A    between atoms: C_9  and  C_10 
REMARK    4  A    between atoms: C_11  and  C_12 
REMARK    5  A    between atoms: C_13  and  O_14 
REMARK    6  A    between atoms: N_20  and  C_21 
REMARK    7  A    between atoms: C_24  and  O_25 
ROOT
HETATM    1  C   UNL     1       4.370  29.357  54.437  1.00  0.00     0.106 C 
HETATM    2  C   UNL     1       5.660  28.619  54.032  1.00  0.00     0.142 C 
HETATM    3  N   UNL     1       5.300  27.472  53.147  1.00  0.00    -0.308 N 
HETATM    4  C   UNL     1       4.493  27.726  52.027  1.00  0.00     0.225 C 
HETATM    5  O   UNL     1       4.453  27.028  51.010  1.00  0.00    -0.273 OA
HETATM    6  C   UNL     1       3.448  28.827  52.180  1.00  0.00     0.104 C 
HETATM    7  C   UNL     1       3.762  29.939  53.164  1.00  0.00     0.026 C 
ENDROOT
BRANCH   1   8
HETATM    8  C   UNL     1       4.490  30.448  55.497  1.00  0.00     0.228 C 
HETATM    9  N   UNL     1       3.679  30.320  56.607  1.00  0.00    -0.327 N 
HETATM   10  H   UNL     1       3.000  29.570  56.614  1.00  0.00     0.169 HD
HETATM   11  O   UNL     1       5.315  31.342  55.311  1.00  0.00    -0.273 OA
BRANCH   9  12
HETATM   12  C   UNL     1       3.524  31.273  57.641  1.00  0.00     0.034 A 
HETATM   13  C   UNL     1       3.504  30.959  58.999  1.00  0.00     0.032 A 
HETATM   14  C   UNL     1       3.415  31.966  59.971  1.00  0.00     0.032 A 
HETATM   15  C   UNL     1       3.346  33.306  59.601  1.00  0.00     0.034 A 
HETATM   16  C   UNL     1       3.331  33.623  58.238  1.00  0.00     0.032 A 
HETATM   17  C   UNL     1       3.415  32.615  57.267  1.00  0.00     0.032 A 
BRANCH  15  18
HETATM   18  N   UNL     1       3.305  34.377  60.518  1.00  0.00    -0.328 N 
HETATM   19  C   UNL     1       3.703  35.686  60.299  1.00  0.00     0.218 C 
HETATM   20  C   UNL     1       3.448  36.577  61.490  1.00  0.00     0.117 C 
HETATM   21  O   UNL     1       4.182  36.150  59.273  1.00  0.00    -0.274 OA
HETATM   22  H   UNL     1       2.911  34.167  61.425  1.00  0.00     0.169 HD
ENDBRANCH  15  18
ENDBRANCH   9  12
ENDBRANCH   1   8
BRANCH   2  23
HETATM   23  C   UNL     1       6.654  28.363  55.165  1.00  0.00    -0.001 A 
HETATM   24  C   UNL     1       6.246  27.652  56.315  1.00  0.00     0.076 A 
HETATM   25  C   UNL     1       7.157  27.364  57.336  1.00  0.00     0.037 A 
HETATM   26  C   UNL     1       8.476  27.802  57.241  1.00  0.00     0.003 A 
HETATM   27  C   UNL     1       8.889  28.523  56.125  1.00  0.00     0.001 A 
HETATM   28  C   UNL     1       7.988  28.802  55.095  1.00  0.00     0.012 A 
BRANCH  24  29
HETATM   29  O   UNL     1       4.954  27.190  56.350  1.00  0.00    -0.355 OA
HETATM   30  C   UNL     1       4.791  25.983  57.096  1.00  0.00     0.210 C 
ENDBRANCH  24  29
ENDBRANCH   2  23
BRANCH   3  31
HETATM   31  C   UNL     1       6.101  26.287  53.175  1.00  0.00     0.038 A 
HETATM   32  C   UNL     1       5.694  25.133  53.849  1.00  0.00     0.032 A 
HETATM   33  C   UNL     1       6.506  23.993  53.855  1.00  0.00     0.039 A 
HETATM   34  C   UNL     1       7.741  23.991  53.204  1.00  0.00     0.068 A 
HETATM   35  C   UNL     1       8.167  25.149  52.559  1.00  0.00     0.039 A 
HETATM   36  C   UNL     1       7.356  26.289  52.558  1.00  0.00     0.032 A 
BRANCH  34  37
HETATM   37  O   UNL     1       8.430  22.811  53.277  1.00  0.00    -0.356 OA
HETATM   38  C   UNL     1       7.826  21.765  54.030  1.00  0.00     0.210 C 
ENDBRANCH  34  37
ENDBRANCH   3  31
TORSDOF 7
ENDMDL
MODEL 10
REMARK VINA RESULT:      -6.6      5.539      9.004
REMARK  7 active torsions:
REMARK  status: ('A' for Active; 'I' for Inactive)
REMARK       I    between atoms: C_2  and  N_3 
REMARK    1  A    between atoms: N_3  and  C_4 
REMARK    2  A    between atoms: C_7  and  N_8 
REMARK       I    between atoms: N_8  and  C_9 
REMARK    3  A    between atoms: C_9  and  C_10 
REMARK    4  A    between atoms: C_11  and  C_12 
REMARK    5  A    between atoms: C_13  and  O_14 
REMARK    6  A    between atoms: N_20  and  C_21 
REMARK    7  A    between atoms: C_24  and  O_25 
ROOT
HETATM    1  C   UNL     1       4.255  32.588  58.934  1.00  0.00     0.106 C 
HETATM    2  C   UNL     1       3.266  33.523  58.211  1.00  0.00     0.142 C 
HETATM    3  N   UNL     1       3.419  33.338  56.738  1.00  0.00    -0.308 N 
HETATM    4  C   UNL     1       3.348  32.035  56.221  1.00  0.00     0.225 C 
HETATM    5  O   UNL     1       3.040  31.750  55.061  1.00  0.00    -0.273 OA
HETATM    6  C   UNL     1       3.894  30.923  57.111  1.00  0.00     0.104 C 
HETATM    7  C   UNL     1       3.843  31.155  58.610  1.00  0.00     0.026 C 
ENDROOT
BRANCH   1   8
HETATM    8  C   UNL     1       4.401  32.754  60.443  1.00  0.00     0.228 C 
HETATM    9  N   UNL     1       5.547  33.386  60.885  1.00  0.00    -0.327 N 
HETATM   10  H   UNL     1       6.254  33.619  60.200  1.00  0.00     0.169 HD
HETATM   11  O   UNL     1       3.485  32.349  61.158  1.00  0.00    -0.273 OA
BRANCH   9  12
HETATM   12  C   UNL     1       5.955  33.526  62.232  1.00  0.00     0.034 A 
HETATM   13  C   UNL     1       6.863  32.679  62.866  1.00  0.00     0.032 A 
HETATM   14  C   UNL     1       7.274  32.920  64.186  1.00  0.00     0.032 A 
HETATM   15  C   UNL     1       6.783  34.013  64.894  1.00  0.00     0.034 A 
HETATM   16  C   UNL     1       5.846  34.846  64.272  1.00  0.00     0.032 A 
HETATM   17  C   UNL     1       5.432  34.601  62.955  1.00  0.00     0.032 A 
BRANCH  15  18
HETATM   18  N   UNL     1       7.185  34.351  66.204  1.00  0.00    -0.328 N 
HETATM   19  C   UNL     1       6.411  34.323  67.352  1.00  0.00     0.218 C 
HETATM   20  C   UNL     1       7.196  34.682  68.590  1.00  0.00     0.117 C 
HETATM   21  O   UNL     1       5.229  34.017  67.439  1.00  0.00    -0.274 OA
HETATM   22  H   UNL     1       8.155  34.611  66.314  1.00  0.00     0.169 HD
ENDBRANCH  15  18
ENDBRANCH   9  12
ENDBRANCH   1   8
BRANCH   2  23
HETATM   23  C   UNL     1       3.200  34.952  58.750  1.00  0.00    -0.001 A 
HETATM   24  C   UNL     1       2.063  35.384  59.467  1.00  0.00     0.076 A 
HETATM   25  C   UNL     1       2.010  36.671  60.012  1.00  0.00     0.037 A 
HETATM   26  C   UNL     1       3.072  37.553  59.828  1.00  0.00     0.003 A 
HETATM   27  C   UNL     1       4.191  37.151  59.104  1.00  0.00     0.001 A 
HETATM   28  C   UNL     1       4.257  35.863  58.570  1.00  0.00     0.012 A 
BRANCH  24  29
HETATM   29  O   UNL     1       1.059  34.472  59.674  1.00  0.00    -0.355 OA
HETATM   30  C   UNL     1       0.287  34.718  60.850  1.00  0.00     0.210 C 
ENDBRANCH  24  29
ENDBRANCH   2  23
BRANCH   3  31
HETATM   31  C   UNL     1       3.187  34.447  55.866  1.00  0.00     0.038 A 
HETATM   32  C   UNL     1       4.223  35.064  55.158  1.00  0.00     0.032 A 
HETATM   33  C   UNL     1       3.956  36.149  54.315  1.00  0.00     0.039 A 
HETATM   34  C   UNL     1       2.659  36.645  54.175  1.00  0.00     0.068 A 
HETATM   35  C   UNL     1       1.628  36.057  54.903  1.00  0.00     0.039 A 
HETATM   36  C   UNL     1       1.897  34.975  55.750  1.00  0.00     0.032 A 
BRANCH  34  37
HETATM   37  O   UNL     1       2.535  37.699  53.313  1.00  0.00    -0.356 OA
HETATM   38  C   UNL     1       3.370  38.825  53.555  1.00  0.00     0.210 C 
ENDBRANCH  34  37
ENDBRANCH   3  31
TORSDOF 7
ENDMDL
