MODEL 1
REMARK VINA RESULT:      -8.2      0.000      0.000
REMARK  7 active torsions:
REMARK  status: ('A' for Active; 'I' for Inactive)
REMARK    1  A    between atoms: C_2  and  N_3 
REMARK    2  A    between atoms: C_2  and  C_17 
REMARK       I    between atoms: N_3  and  C_4 
REMARK    3  A    between atoms: C_4  and  C_5 
REMARK    4  A    between atoms: C_6  and  N_7 
REMARK    5  A    between atoms: C_17  and  O_18 
REMARK    6  A    between atoms: C_17  and  C_19 
REMARK    7  A    between atoms: C_22  and  O_23 
ROOT
HETATM    1  N   UNL     1       6.694  25.500  53.510  1.00  0.00    -0.350 N 
HETATM    2  C   UNL     1       7.434  24.474  52.992  1.00  0.00     0.255 C 
HETATM    3  O   UNL     1       7.889  24.569  51.850  1.00  0.00    -0.268 OA
HETATM    4  H   UNL     1       6.360  25.444  54.470  1.00  0.00     0.163 HD
ENDROOT
BRANCH   1   5
HETATM    5  C   UNL     1       6.470  26.756  52.790  1.00  0.00     0.114 C 
HETATM    6  C   UNL     1       7.226  27.899  53.472  1.00  0.00     0.035 C 
BRANCH   5   7
HETATM    7  C   UNL     1       4.961  27.062  52.559  1.00  0.00     0.173 C 
BRANCH   7   8
HETATM    8  O   UNL     1       4.166  25.990  53.089  1.00  0.00    -0.389 OA
HETATM    9  H   UNL     1       3.688  26.366  53.849  1.00  0.00     0.210 HD
ENDBRANCH   7   8
BRANCH   7  10
HETATM   10  C   UNL     1       4.574  27.316  51.111  1.00  0.00    -0.028 A 
HETATM   11  C   UNL     1       3.908  28.496  50.757  1.00  0.00     0.012 A 
HETATM   12  C   UNL     1       3.551  28.738  49.427  1.00  0.00     0.037 A 
HETATM   13  C   UNL     1       3.847  27.810  48.427  1.00  0.00     0.068 A 
HETATM   14  C   UNL     1       4.517  26.636  48.766  1.00  0.00     0.037 A 
HETATM   15  C   UNL     1       4.879  26.394  50.096  1.00  0.00     0.012 A 
BRANCH  13  16
HETATM   16  O   UNL     1       3.437  28.166  47.171  1.00  0.00    -0.356 OA
HETATM   17  C   UNL     1       2.107  28.651  47.043  1.00  0.00     0.210 C 
ENDBRANCH  13  16
ENDBRANCH   7  10
ENDBRANCH   5   7
ENDBRANCH   1   5
BRANCH   2  18
HETATM   18  C   UNL     1       7.676  23.205  53.767  1.00  0.00     0.079 A 
HETATM   19  C   UNL     1       7.815  22.933  55.138  1.00  0.00     0.165 A 
HETATM   20  N   UNL     1       8.040  21.652  55.606  1.00  0.00    -0.241 NA
HETATM   21  C   UNL     1       8.141  20.628  54.741  1.00  0.00     0.119 A 
HETATM   22  C   UNL     1       8.025  20.791  53.385  1.00  0.00     0.020 A 
HETATM   23  C   UNL     1       7.791  22.077  52.910  1.00  0.00     0.022 A 
BRANCH  19  24
HETATM   24  N   UNL     1       7.764  23.897  56.203  1.00  0.00    -0.226 N 
HETATM   25  N   UNL     1       6.662  24.591  56.580  1.00  0.00    -0.179 NA
HETATM   26  C   UNL     1       7.060  25.365  57.592  1.00  0.00     0.141 A 
HETATM   27  C   UNL     1       8.410  25.191  57.904  1.00  0.00     0.040 A 
HETATM   28  C   UNL     1       8.842  24.247  57.007  1.00  0.00     0.122 A 
ENDBRANCH  19  24
ENDBRANCH   2  18
TORSDOF 7
ENDMDL
MODEL 2
REMARK VINA RESULT:      -8.1      4.153      7.203
REMARK  7 active torsions:
REMARK  status: ('A' for Active; 'I' for Inactive)
REMARK    1  A    between atoms: C_2  and  N_3 
REMARK    2  A    between atoms: C_2  and  C_17 
REMARK       I    between atoms: N_3  and  C_4 
REMARK    3  A    between atoms: C_4  and  C_5 
REMARK    4  A    between atoms: C_6  and  N_7 
REMARK    5  A    between atoms: C_17  and  O_18 
REMARK    6  A    between atoms: C_17  and  C_19 
REMARK    7  A    between atoms: C_22  and  O_23 
ROOT
HETATM    1  N   UNL     1       7.174  26.306  55.591  1.00  0.00    -0.350 N 
HETATM    2  C   UNL     1       7.803  25.166  56.005  1.00  0.00     0.255 C 
HETATM    3  O   UNL     1       8.177  25.068  57.176  1.00  0.00    -0.268 OA
HETATM    4  H   UNL     1       6.820  26.367  54.637  1.00  0.00     0.163 HD
ENDROOT
BRANCH   1   5
HETATM    5  C   UNL     1       6.854  27.409  56.500  1.00  0.00     0.114 C 
HETATM    6  C   UNL     1       5.386  27.336  56.925  1.00  0.00     0.035 C 
BRANCH   5   7
HETATM    7  C   UNL     1       7.268  28.800  55.936  1.00  0.00     0.173 C 
BRANCH   7   8
HETATM    8  O   UNL     1       8.011  28.624  54.720  1.00  0.00    -0.389 OA
HETATM    9  H   UNL     1       7.747  29.361  54.140  1.00  0.00     0.210 HD
ENDBRANCH   7   8
BRANCH   7  10
HETATM   10  C   UNL     1       8.063  29.669  56.897  1.00  0.00    -0.028 A 
HETATM   11  C   UNL     1       7.404  30.412  57.885  1.00  0.00     0.012 A 
HETATM   12  C   UNL     1       8.129  31.212  58.774  1.00  0.00     0.037 A 
HETATM   13  C   UNL     1       9.521  31.289  58.694  1.00  0.00     0.068 A 
HETATM   14  C   UNL     1      10.188  30.547  57.721  1.00  0.00     0.037 A 
HETATM   15  C   UNL     1       9.465  29.743  56.834  1.00  0.00     0.012 A 
BRANCH  13  16
HETATM   16  O   UNL     1      10.105  32.112  59.618  1.00  0.00    -0.356 OA
HETATM   17  C   UNL     1       9.583  32.066  60.940  1.00  0.00     0.210 C 
ENDBRANCH  13  16
ENDBRANCH   7  10
ENDBRANCH   5   7
ENDBRANCH   1   5
BRANCH   2  18
HETATM   18  C   UNL     1       8.091  24.033  55.055  1.00  0.00     0.079 A 
HETATM   19  C   UNL     1       7.643  23.734  53.758  1.00  0.00     0.165 A 
HETATM   20  N   UNL     1       8.063  22.603  53.084  1.00  0.00    -0.241 NA
HETATM   21  C   UNL     1       8.916  21.748  53.675  1.00  0.00     0.119 A 
HETATM   22  C   UNL     1       9.407  21.947  54.938  1.00  0.00     0.020 A 
HETATM   23  C   UNL     1       8.992  23.089  55.617  1.00  0.00     0.022 A 
BRANCH  19  24
HETATM   24  N   UNL     1       6.714  24.511  52.982  1.00  0.00    -0.226 N 
HETATM   25  N   UNL     1       5.402  24.687  53.275  1.00  0.00    -0.179 NA
HETATM   26  C   UNL     1       4.923  25.464  52.303  1.00  0.00     0.141 A 
HETATM   27  C   UNL     1       5.898  25.821  51.368  1.00  0.00     0.040 A 
HETATM   28  C   UNL     1       7.036  25.204  51.821  1.00  0.00     0.122 A 
ENDBRANCH  19  24
ENDBRANCH   2  18
TORSDOF 7
ENDMDL
MODEL 3
REMARK VINA RESULT:      -8.1      5.063      8.121
REMARK  7 active torsions:
REMARK  status: ('A' for Active; 'I' for Inactive)
REMARK    1  A    between atoms: C_2  and  N_3 
REMARK    2  A    between atoms: C_2  and  C_17 
REMARK       I    between atoms: N_3  and  C_4 
REMARK    3  A    between atoms: C_4  and  C_5 
REMARK    4  A    between atoms: C_6  and  N_7 
REMARK    5  A    between atoms: C_17  and  O_18 
REMARK    6  A    between atoms: C_17  and  C_19 
REMARK    7  A    between atoms: C_22  and  O_23 
ROOT
HETATM    1  N   UNL     1       7.128  27.630  57.508  1.00  0.00    -0.350 N 
HETATM    2  C   UNL     1       7.872  28.564  56.843  1.00  0.00     0.255 C 
HETATM    3  O   UNL     1       8.109  28.411  55.643  1.00  0.00    -0.268 OA
HETATM    4  H   UNL     1       6.890  27.780  58.487  1.00  0.00     0.163 HD
ENDROOT
BRANCH   1   5
HETATM    5  C   UNL     1       6.530  26.472  56.839  1.00  0.00     0.114 C 
HETATM    6  C   UNL     1       5.004  26.586  56.846  1.00  0.00     0.035 C 
BRANCH   5   7
HETATM    7  C   UNL     1       7.052  25.114  57.394  1.00  0.00     0.173 C 
BRANCH   7   8
HETATM    8  O   UNL     1       8.068  25.355  58.380  1.00  0.00    -0.389 OA
HETATM    9  H   UNL     1       8.582  24.530  58.437  1.00  0.00     0.210 HD
ENDBRANCH   7   8
BRANCH   7  10
HETATM   10  C   UNL     1       7.583  24.154  56.342  1.00  0.00    -0.028 A 
HETATM   11  C   UNL     1       7.419  24.440  54.980  1.00  0.00     0.012 A 
HETATM   12  C   UNL     1       7.906  23.563  54.006  1.00  0.00     0.037 A 
HETATM   13  C   UNL     1       8.562  22.385  54.369  1.00  0.00     0.068 A 
HETATM   14  C   UNL     1       8.739  22.094  55.720  1.00  0.00     0.037 A 
HETATM   15  C   UNL     1       8.256  22.973  56.696  1.00  0.00     0.012 A 
BRANCH  13  16
HETATM   16  O   UNL     1       8.983  21.614  53.320  1.00  0.00    -0.356 OA
HETATM   17  C   UNL     1       8.178  20.490  52.986  1.00  0.00     0.210 C 
ENDBRANCH  13  16
ENDBRANCH   7  10
ENDBRANCH   5   7
ENDBRANCH   1   5
BRANCH   2  18
HETATM   18  C   UNL     1       8.448  29.763  57.551  1.00  0.00     0.079 A 
HETATM   19  C   UNL     1       7.865  30.853  58.216  1.00  0.00     0.165 A 
HETATM   20  N   UNL     1       8.631  31.849  58.793  1.00  0.00    -0.241 NA
HETATM   21  C   UNL     1       9.973  31.794  58.716  1.00  0.00     0.119 A 
HETATM   22  C   UNL     1      10.636  30.775  58.085  1.00  0.00     0.020 A 
HETATM   23  C   UNL     1       9.869  29.767  57.509  1.00  0.00     0.022 A 
BRANCH  19  24
HETATM   24  N   UNL     1       6.457  31.095  58.375  1.00  0.00    -0.226 N 
HETATM   25  N   UNL     1       5.467  30.375  57.792  1.00  0.00    -0.179 NA
HETATM   26  C   UNL     1       4.330  30.938  58.204  1.00  0.00     0.141 A 
HETATM   27  C   UNL     1       4.543  32.017  59.064  1.00  0.00     0.040 A 
HETATM   28  C   UNL     1       5.909  32.101  59.163  1.00  0.00     0.122 A 
ENDBRANCH  19  24
ENDBRANCH   2  18
TORSDOF 7
ENDMDL
MODEL 4
REMARK VINA RESULT:      -7.8      3.691      7.390
REMARK  7 active torsions:
REMARK  status: ('A' for Active; 'I' for Inactive)
REMARK    1  A    between atoms: C_2  and  N_3 
REMARK    2  A    between atoms: C_2  and  C_17 
REMARK       I    between atoms: N_3  and  C_4 
REMARK    3  A    between atoms: C_4  and  C_5 
REMARK    4  A    between atoms: C_6  and  N_7 
REMARK    5  A    between atoms: C_17  and  O_18 
REMARK    6  A    between atoms: C_17  and  C_19 
REMARK    7  A    between atoms: C_22  and  O_23 
ROOT
HETATM    1  N   UNL     1       6.858  27.721  54.834  1.00  0.00    -0.350 N 
HETATM    2  C   UNL     1       7.956  28.522  54.975  1.00  0.00     0.255 C 
HETATM    3  O   UNL     1       8.780  28.593  54.061  1.00  0.00    -0.268 OA
HETATM    4  H   UNL     1       6.153  27.700  55.568  1.00  0.00     0.163 HD
ENDROOT
BRANCH   1   5
HETATM    5  C   UNL     1       6.570  26.984  53.600  1.00  0.00     0.114 C 
HETATM    6  C   UNL     1       5.895  27.903  52.580  1.00  0.00     0.035 C 
BRANCH   5   7
HETATM    7  C   UNL     1       5.791  25.660  53.853  1.00  0.00     0.173 C 
BRANCH   7   8
HETATM    8  O   UNL     1       4.890  25.834  54.957  1.00  0.00    -0.389 OA
HETATM    9  H   UNL     1       4.345  26.609  54.735  1.00  0.00     0.210 HD
ENDBRANCH   7   8
BRANCH   7  10
HETATM   10  C   UNL     1       6.664  24.440  54.096  1.00  0.00    -0.028 A 
HETATM   11  C   UNL     1       7.199  23.730  53.014  1.00  0.00     0.012 A 
HETATM   12  C   UNL     1       8.006  22.608  53.230  1.00  0.00     0.037 A 
HETATM   13  C   UNL     1       8.291  22.171  54.524  1.00  0.00     0.068 A 
HETATM   14  C   UNL     1       7.772  22.875  55.609  1.00  0.00     0.037 A 
HETATM   15  C   UNL     1       6.968  24.000  55.395  1.00  0.00     0.012 A 
BRANCH  13  16
HETATM   16  O   UNL     1       9.085  21.059  54.595  1.00  0.00    -0.356 OA
HETATM   17  C   UNL     1       9.137  20.385  55.846  1.00  0.00     0.210 C 
ENDBRANCH  13  16
ENDBRANCH   7  10
ENDBRANCH   5   7
ENDBRANCH   1   5
BRANCH   2  18
HETATM   18  C   UNL     1       8.212  29.294  56.244  1.00  0.00     0.079 A 
HETATM   19  C   UNL     1       7.374  30.014  57.111  1.00  0.00     0.165 A 
HETATM   20  N   UNL     1       7.865  30.653  58.234  1.00  0.00    -0.241 NA
HETATM   21  C   UNL     1       9.179  30.601  58.516  1.00  0.00     0.119 A 
HETATM   22  C   UNL     1      10.078  29.929  57.731  1.00  0.00     0.020 A 
HETATM   23  C   UNL     1       9.586  29.279  56.603  1.00  0.00     0.022 A 
BRANCH  19  24
HETATM   24  N   UNL     1       5.957  30.201  56.959  1.00  0.00    -0.226 N 
HETATM   25  N   UNL     1       5.034  29.208  56.923  1.00  0.00    -0.179 NA
HETATM   26  C   UNL     1       3.859  29.822  56.769  1.00  0.00     0.141 A 
HETATM   27  C   UNL     1       3.981  31.212  56.712  1.00  0.00     0.040 A 
HETATM   28  C   UNL     1       5.328  31.435  56.838  1.00  0.00     0.122 A 
ENDBRANCH  19  24
ENDBRANCH   2  18
TORSDOF 7
ENDMDL
MODEL 5
REMARK VINA RESULT:      -7.7      8.237     11.614
REMARK  7 active torsions:
REMARK  status: ('A' for Active; 'I' for Inactive)
REMARK    1  A    between atoms: C_2  and  N_3 
REMARK    2  A    between atoms: C_2  and  C_17 
REMARK       I    between atoms: N_3  and  C_4 
REMARK    3  A    between atoms: C_4  and  C_5 
REMARK    4  A    between atoms: C_6  and  N_7 
REMARK    5  A    between atoms: C_17  and  O_18 
REMARK    6  A    between atoms: C_17  and  C_19 
REMARK    7  A    between atoms: C_22  and  O_23 
ROOT
HETATM    1  N   UNL     1       7.332  31.232  59.659  1.00  0.00    -0.350 N 
HETATM    2  C   UNL     1       6.424  31.759  58.784  1.00  0.00     0.255 C 
HETATM    3  O   UNL     1       6.302  32.983  58.698  1.00  0.00    -0.268 OA
HETATM    4  H   UNL     1       7.468  30.223  59.694  1.00  0.00     0.163 HD
ENDROOT
BRANCH   1   5
HETATM    5  C   UNL     1       8.232  32.062  60.462  1.00  0.00     0.114 C 
HETATM    6  C   UNL     1       9.658  31.982  59.912  1.00  0.00     0.035 C 
BRANCH   5   7
HETATM    7  C   UNL     1       8.137  31.761  61.986  1.00  0.00     0.173 C 
BRANCH   7   8
HETATM    8  O   UNL     1       7.506  30.487  62.187  1.00  0.00    -0.389 OA
HETATM    9  H   UNL     1       7.813  29.921  61.457  1.00  0.00     0.210 HD
ENDBRANCH   7   8
BRANCH   7  10
HETATM   10  C   UNL     1       7.418  32.820  62.805  1.00  0.00    -0.028 A 
HETATM   11  C   UNL     1       6.476  33.661  62.198  1.00  0.00     0.012 A 
HETATM   12  C   UNL     1       5.809  34.636  62.945  1.00  0.00     0.037 A 
HETATM   13  C   UNL     1       6.068  34.795  64.307  1.00  0.00     0.068 A 
HETATM   14  C   UNL     1       6.996  33.958  64.924  1.00  0.00     0.037 A 
HETATM   15  C   UNL     1       7.662  32.979  64.179  1.00  0.00     0.012 A 
BRANCH  13  16
HETATM   16  O   UNL     1       5.352  35.789  64.918  1.00  0.00    -0.356 OA
HETATM   17  C   UNL     1       3.935  35.689  64.857  1.00  0.00     0.210 C 
ENDBRANCH  13  16
ENDBRANCH   7  10
ENDBRANCH   5   7
ENDBRANCH   1   5
BRANCH   2  18
HETATM   18  C   UNL     1       5.532  30.880  57.946  1.00  0.00     0.079 A 
HETATM   19  C   UNL     1       5.743  29.664  57.276  1.00  0.00     0.165 A 
HETATM   20  N   UNL     1       4.739  29.046  56.554  1.00  0.00    -0.241 NA
HETATM   21  C   UNL     1       3.523  29.615  56.473  1.00  0.00     0.119 A 
HETATM   22  C   UNL     1       3.219  30.801  57.087  1.00  0.00     0.020 A 
HETATM   23  C   UNL     1       4.225  31.423  57.820  1.00  0.00     0.022 A 
BRANCH  19  24
HETATM   24  N   UNL     1       6.976  28.926  57.227  1.00  0.00    -0.226 N 
HETATM   25  N   UNL     1       8.210  29.469  57.085  1.00  0.00    -0.179 NA
HETATM   26  C   UNL     1       9.054  28.436  57.088  1.00  0.00     0.141 A 
HETATM   27  C   UNL     1       8.405  27.210  57.241  1.00  0.00     0.040 A 
HETATM   28  C   UNL     1       7.077  27.543  57.331  1.00  0.00     0.122 A 
ENDBRANCH  19  24
ENDBRANCH   2  18
TORSDOF 7
ENDMDL
MODEL 6
REMARK VINA RESULT:      -7.7      5.029      8.264
REMARK  7 active torsions:
REMARK  status: ('A' for Active; 'I' for Inactive)
REMARK    1  A    between atoms: C_2  and  N_3 
REMARK    2  A    between atoms: C_2  and  C_17 
REMARK       I    between atoms: N_3  and  C_4 
REMARK    3  A    between atoms: C_4  and  C_5 
REMARK    4  A    between atoms: C_6  and  N_7 
REMARK    5  A    between atoms: C_17  and  O_18 
REMARK    6  A    between atoms: C_17  and  C_19 
REMARK    7  A    between atoms: C_22  and  O_23 
ROOT
HETATM    1  N   UNL     1       6.235  27.476  57.448  1.00  0.00    -0.350 N 
HETATM    2  C   UNL     1       5.668  28.532  56.791  1.00  0.00     0.255 C 
HETATM    3  O   UNL     1       5.220  28.371  55.654  1.00  0.00    -0.268 OA
HETATM    4  H   UNL     1       6.560  27.596  58.406  1.00  0.00     0.163 HD
ENDROOT
BRANCH   1   5
HETATM    5  C   UNL     1       6.274  26.123  56.887  1.00  0.00     0.114 C 
HETATM    6  C   UNL     1       4.971  25.384  57.199  1.00  0.00     0.035 C 
BRANCH   5   7
HETATM    7  C   UNL     1       7.549  25.332  57.300  1.00  0.00     0.173 C 
BRANCH   7   8
HETATM    8  O   UNL     1       8.670  26.227  57.371  1.00  0.00    -0.389 OA
HETATM    9  H   UNL     1       9.148  26.119  56.529  1.00  0.00     0.210 HD
ENDBRANCH   7   8
BRANCH   7  10
HETATM   10  C   UNL     1       7.893  24.156  56.401  1.00  0.00    -0.028 A 
HETATM   11  C   UNL     1       8.356  22.956  56.955  1.00  0.00     0.012 A 
HETATM   12  C   UNL     1       8.671  21.869  56.134  1.00  0.00     0.037 A 
HETATM   13  C   UNL     1       8.535  21.958  54.747  1.00  0.00     0.068 A 
HETATM   14  C   UNL     1       8.066  23.143  54.185  1.00  0.00     0.037 A 
HETATM   15  C   UNL     1       7.747  24.231  55.005  1.00  0.00     0.012 A 
BRANCH  13  16
HETATM   16  O   UNL     1       8.883  20.826  54.061  1.00  0.00    -0.356 OA
HETATM   17  C   UNL     1       8.169  20.558  52.861  1.00  0.00     0.210 C 
ENDBRANCH  13  16
ENDBRANCH   7  10
ENDBRANCH   5   7
ENDBRANCH   1   5
BRANCH   2  18
HETATM   18  C   UNL     1       5.614  29.907  57.404  1.00  0.00     0.079 A 
HETATM   19  C   UNL     1       6.604  30.787  57.869  1.00  0.00     0.165 A 
HETATM   20  N   UNL     1       6.287  32.021  58.406  1.00  0.00    -0.241 NA
HETATM   21  C   UNL     1       5.001  32.401  58.503  1.00  0.00     0.119 A 
HETATM   22  C   UNL     1       3.963  31.613  58.083  1.00  0.00     0.020 A 
HETATM   23  C   UNL     1       4.278  30.373  57.536  1.00  0.00     0.022 A 
BRANCH  19  24
HETATM   24  N   UNL     1       8.021  30.545  57.871  1.00  0.00    -0.226 N 
HETATM   25  N   UNL     1       8.654  29.590  57.147  1.00  0.00    -0.179 NA
HETATM   26  C   UNL     1       9.947  29.715  57.450  1.00  0.00     0.141 A 
HETATM   27  C   UNL     1      10.191  30.746  58.359  1.00  0.00     0.040 A 
HETATM   28  C   UNL     1       8.948  31.266  58.615  1.00  0.00     0.122 A 
ENDBRANCH  19  24
ENDBRANCH   2  18
TORSDOF 7
ENDMDL
MODEL 7
REMARK VINA RESULT:      -7.7      5.143      8.265
REMARK  7 active torsions:
REMARK  status: ('A' for Active; 'I' for Inactive)
REMARK    1  A    between atoms: C_2  and  N_3 
REMARK    2  A    between atoms: C_2  and  C_17 
REMARK       I    between atoms: N_3  and  C_4 
REMARK    3  A    between atoms: C_4  and  C_5 
REMARK    4  A    between atoms: C_6  and  N_7 
REMARK    5  A    between atoms: C_17  and  O_18 
REMARK    6  A    between atoms: C_17  and  C_19 
REMARK    7  A    between atoms: C_22  and  O_23 
ROOT
HETATM    1  N   UNL     1       6.249  28.840  56.227  1.00  0.00    -0.350 N 
HETATM    2  C   UNL     1       6.648  29.408  57.403  1.00  0.00     0.255 C 
HETATM    3  O   UNL     1       7.571  28.898  58.043  1.00  0.00    -0.268 OA
HETATM    4  H   UNL     1       5.521  29.288  55.673  1.00  0.00     0.163 HD
ENDROOT
BRANCH   1   5
HETATM    5  C   UNL     1       6.919  27.676  55.642  1.00  0.00     0.114 C 
HETATM    6  C   UNL     1       7.917  28.122  54.570  1.00  0.00     0.035 C 
BRANCH   5   7
HETATM    7  C   UNL     1       5.923  26.587  55.146  1.00  0.00     0.173 C 
BRANCH   7   8
HETATM    8  O   UNL     1       4.788  26.537  56.024  1.00  0.00    -0.389 OA
HETATM    9  H   UNL     1       4.778  25.636  56.393  1.00  0.00     0.210 HD
ENDBRANCH   7   8
BRANCH   7  10
HETATM   10  C   UNL     1       6.515  25.195  55.000  1.00  0.00    -0.028 A 
HETATM   11  C   UNL     1       6.613  24.600  53.735  1.00  0.00     0.012 A 
HETATM   12  C   UNL     1       7.159  23.321  53.593  1.00  0.00     0.037 A 
HETATM   13  C   UNL     1       7.615  22.610  54.704  1.00  0.00     0.068 A 
HETATM   14  C   UNL     1       7.532  23.196  55.966  1.00  0.00     0.037 A 
HETATM   15  C   UNL     1       6.989  24.477  56.110  1.00  0.00     0.012 A 
BRANCH  13  16
HETATM   16  O   UNL     1       8.120  21.369  54.427  1.00  0.00    -0.356 OA
HETATM   17  C   UNL     1       8.023  20.923  53.080  1.00  0.00     0.210 C 
ENDBRANCH  13  16
ENDBRANCH   7  10
ENDBRANCH   5   7
ENDBRANCH   1   5
BRANCH   2  18
HETATM   18  C   UNL     1       5.961  30.625  57.966  1.00  0.00     0.079 A 
HETATM   19  C   UNL     1       6.365  31.619  58.872  1.00  0.00     0.165 A 
HETATM   20  N   UNL     1       5.525  32.654  59.239  1.00  0.00    -0.241 NA
HETATM   21  C   UNL     1       4.282  32.722  58.732  1.00  0.00     0.119 A 
HETATM   22  C   UNL     1       3.792  31.800  57.845  1.00  0.00     0.020 A 
HETATM   23  C   UNL     1       4.636  30.760  57.468  1.00  0.00     0.022 A 
BRANCH  19  24
HETATM   24  N   UNL     1       7.639  31.696  59.533  1.00  0.00    -0.226 N 
HETATM   25  N   UNL     1       8.795  32.114  58.962  1.00  0.00    -0.179 NA
HETATM   26  C   UNL     1       9.717  32.025  59.921  1.00  0.00     0.141 A 
HETATM   27  C   UNL     1       9.193  31.562  61.131  1.00  0.00     0.040 A 
HETATM   28  C   UNL     1       7.863  31.360  60.863  1.00  0.00     0.122 A 
ENDBRANCH  19  24
ENDBRANCH   2  18
TORSDOF 7
ENDMDL
MODEL 8
REMARK VINA RESULT:      -7.7      2.723      7.997
REMARK  7 active torsions:
REMARK  status: ('A' for Active; 'I' for Inactive)
REMARK    1  A    between atoms: C_2  and  N_3 
REMARK    2  A    between atoms: C_2  and  C_17 
REMARK       I    between atoms: N_3  and  C_4 
REMARK    3  A    between atoms: C_4  and  C_5 
REMARK    4  A    between atoms: C_6  and  N_7 
REMARK    5  A    between atoms: C_17  and  O_18 
REMARK    6  A    between atoms: C_17  and  C_19 
REMARK    7  A    between atoms: C_22  and  O_23 
ROOT
HETATM    1  N   UNL     1       5.905  26.684  51.665  1.00  0.00    -0.350 N 
HETATM    2  C   UNL     1       4.971  25.985  50.954  1.00  0.00     0.255 C 
HETATM    3  O   UNL     1       4.611  24.874  51.350  1.00  0.00    -0.268 OA
HETATM    4  H   UNL     1       6.166  27.622  51.366  1.00  0.00     0.163 HD
ENDROOT
BRANCH   1   5
HETATM    5  C   UNL     1       6.457  26.203  52.934  1.00  0.00     0.114 C 
HETATM    6  C   UNL     1       6.545  27.352  53.942  1.00  0.00     0.035 C 
BRANCH   5   7
HETATM    7  C   UNL     1       7.796  25.429  52.758  1.00  0.00     0.173 C 
BRANCH   7   8
HETATM    8  O   UNL     1       8.051  25.219  51.361  1.00  0.00    -0.389 OA
HETATM    9  H   UNL     1       7.250  24.795  51.006  1.00  0.00     0.210 HD
ENDBRANCH   7   8
BRANCH   7  10
HETATM   10  C   UNL     1       7.869  24.101  53.495  1.00  0.00    -0.028 A 
HETATM   11  C   UNL     1       8.069  24.074  54.881  1.00  0.00     0.012 A 
HETATM   12  C   UNL     1       8.134  22.857  55.565  1.00  0.00     0.037 A 
HETATM   13  C   UNL     1       8.006  21.645  54.884  1.00  0.00     0.068 A 
HETATM   14  C   UNL     1       7.797  21.660  53.506  1.00  0.00     0.037 A 
HETATM   15  C   UNL     1       7.728  22.877  52.820  1.00  0.00     0.012 A 
BRANCH  13  16
HETATM   16  O   UNL     1       8.095  20.529  55.670  1.00  0.00    -0.356 OA
HETATM   17  C   UNL     1       8.393  20.736  57.045  1.00  0.00     0.210 C 
ENDBRANCH  13  16
ENDBRANCH   7  10
ENDBRANCH   5   7
ENDBRANCH   1   5
BRANCH   2  18
HETATM   18  C   UNL     1       4.396  26.518  49.667  1.00  0.00     0.079 A 
HETATM   19  C   UNL     1       4.265  27.814  49.142  1.00  0.00     0.165 A 
HETATM   20  N   UNL     1       3.683  28.045  47.910  1.00  0.00    -0.241 NA
HETATM   21  C   UNL     1       3.215  27.014  47.185  1.00  0.00     0.119 A 
HETATM   22  C   UNL     1       3.291  25.714  47.611  1.00  0.00     0.020 A 
HETATM   23  C   UNL     1       3.883  25.477  48.848  1.00  0.00     0.022 A 
BRANCH  19  24
HETATM   24  N   UNL     1       4.680  29.033  49.781  1.00  0.00    -0.226 N 
HETATM   25  N   UNL     1       4.350  29.409  51.041  1.00  0.00    -0.179 NA
HETATM   26  C   UNL     1       4.938  30.593  51.223  1.00  0.00     0.141 A 
HETATM   27  C   UNL     1       5.666  31.010  50.107  1.00  0.00     0.040 A 
HETATM   28  C   UNL     1       5.491  29.999  49.197  1.00  0.00     0.122 A 
ENDBRANCH  19  24
ENDBRANCH   2  18
TORSDOF 7
ENDMDL
MODEL 9
REMARK VINA RESULT:      -7.6      4.351      7.479
REMARK  7 active torsions:
REMARK  status: ('A' for Active; 'I' for Inactive)
REMARK    1  A    between atoms: C_2  and  N_3 
REMARK    2  A    between atoms: C_2  and  C_17 
REMARK       I    between atoms: N_3  and  C_4 
REMARK    3  A    between atoms: C_4  and  C_5 
REMARK    4  A    between atoms: C_6  and  N_7 
REMARK    5  A    between atoms: C_17  and  O_18 
REMARK    6  A    between atoms: C_17  and  C_19 
REMARK    7  A    between atoms: C_22  and  O_23 
ROOT
HETATM    1  N   UNL     1       6.958  27.384  56.591  1.00  0.00    -0.350 N 
HETATM    2  C   UNL     1       7.164  28.711  56.340  1.00  0.00     0.255 C 
HETATM    3  O   UNL     1       6.390  29.316  55.596  1.00  0.00    -0.268 OA
HETATM    4  H   UNL     1       7.568  26.895  57.245  1.00  0.00     0.163 HD
ENDROOT
BRANCH   1   5
HETATM    5  C   UNL     1       5.805  26.648  56.067  1.00  0.00     0.114 C 
HETATM    6  C   UNL     1       5.424  25.512  57.019  1.00  0.00     0.035 C 
BRANCH   5   7
HETATM    7  C   UNL     1       6.000  26.183  54.594  1.00  0.00     0.173 C 
BRANCH   7   8
HETATM    8  O   UNL     1       4.719  25.975  53.980  1.00  0.00    -0.389 OA
HETATM    9  H   UNL     1       4.069  26.382  54.580  1.00  0.00     0.210 HD
ENDBRANCH   7   8
BRANCH   7  10
HETATM   10  C   UNL     1       6.854  24.937  54.424  1.00  0.00    -0.028 A 
HETATM   11  C   UNL     1       6.651  24.088  53.329  1.00  0.00     0.012 A 
HETATM   12  C   UNL     1       7.434  22.941  53.165  1.00  0.00     0.037 A 
HETATM   13  C   UNL     1       8.431  22.617  54.088  1.00  0.00     0.068 A 
HETATM   14  C   UNL     1       8.648  23.460  55.176  1.00  0.00     0.037 A 
HETATM   15  C   UNL     1       7.868  24.610  55.340  1.00  0.00     0.012 A 
BRANCH  13  16
HETATM   16  O   UNL     1       9.119  21.467  53.813  1.00  0.00    -0.356 OA
HETATM   17  C   UNL     1       8.464  20.508  52.991  1.00  0.00     0.210 C 
ENDBRANCH  13  16
ENDBRANCH   7  10
ENDBRANCH   5   7
ENDBRANCH   1   5
BRANCH   2  18
HETATM   18  C   UNL     1       8.342  29.451  56.919  1.00  0.00     0.079 A 
HETATM   19  C   UNL     1       8.451  30.505  57.841  1.00  0.00     0.165 A 
HETATM   20  N   UNL     1       9.678  31.021  58.214  1.00  0.00    -0.241 NA
HETATM   21  C   UNL     1      10.807  30.520  57.684  1.00  0.00     0.119 A 
HETATM   22  C   UNL     1      10.806  29.495  56.774  1.00  0.00     0.020 A 
HETATM   23  C   UNL     1       9.574  28.968  56.401  1.00  0.00     0.022 A 
BRANCH  19  24
HETATM   24  N   UNL     1       7.360  31.182  58.487  1.00  0.00    -0.226 N 
HETATM   25  N   UNL     1       6.196  31.539  57.892  1.00  0.00    -0.179 NA
HETATM   26  C   UNL     1       5.479  32.137  58.846  1.00  0.00     0.141 A 
HETATM   27  C   UNL     1       6.143  32.176  60.074  1.00  0.00     0.040 A 
HETATM   28  C   UNL     1       7.342  31.559  59.825  1.00  0.00     0.122 A 
ENDBRANCH  19  24
ENDBRANCH   2  18
TORSDOF 7
ENDMDL
MODEL 10
REMARK VINA RESULT:      -7.5      7.311     10.785
REMARK  7 active torsions:
REMARK  status: ('A' for Active; 'I' for Inactive)
REMARK    1  A    between atoms: C_2  and  N_3 
REMARK    2  A    between atoms: C_2  and  C_17 
REMARK       I    between atoms: N_3  and  C_4 
REMARK    3  A    between atoms: C_4  and  C_5 
REMARK    4  A    between atoms: C_6  and  N_7 
REMARK    5  A    between atoms: C_17  and  O_18 
REMARK    6  A    between atoms: C_17  and  C_19 
REMARK    7  A    between atoms: C_22  and  O_23 
ROOT
HETATM    1  N   UNL     1       8.053  30.045  59.167  1.00  0.00    -0.350 N 
HETATM    2  C   UNL     1       7.196  30.062  58.103  1.00  0.00     0.255 C 
HETATM    3  O   UNL     1       6.860  31.140  57.609  1.00  0.00    -0.268 OA
HETATM    4  H   UNL     1       8.370  29.153  59.543  1.00  0.00     0.163 HD
ENDROOT
BRANCH   1   5
HETATM    5  C   UNL     1       8.658  31.261  59.716  1.00  0.00     0.114 C 
HETATM    6  C   UNL     1       9.921  31.625  58.933  1.00  0.00     0.035 C 
BRANCH   5   7
HETATM    7  C   UNL     1       8.883  31.185  61.255  1.00  0.00     0.173 C 
BRANCH   7   8
HETATM    8  O   UNL     1       8.763  29.823  61.693  1.00  0.00    -0.389 OA
HETATM    9  H   UNL     1       8.039  29.817  62.344  1.00  0.00     0.210 HD
ENDBRANCH   7   8
BRANCH   7  10
HETATM   10  C   UNL     1       7.962  32.069  62.081  1.00  0.00    -0.028 A 
HETATM   11  C   UNL     1       6.778  32.568  61.523  1.00  0.00     0.012 A 
HETATM   12  C   UNL     1       5.925  33.379  62.277  1.00  0.00     0.037 A 
HETATM   13  C   UNL     1       6.235  33.710  63.598  1.00  0.00     0.068 A 
HETATM   14  C   UNL     1       7.405  33.211  64.166  1.00  0.00     0.037 A 
HETATM   15  C   UNL     1       8.258  32.396  63.414  1.00  0.00     0.012 A 
BRANCH  13  16
HETATM   16  O   UNL     1       5.319  34.515  64.220  1.00  0.00    -0.356 OA
HETATM   17  C   UNL     1       4.459  33.894  65.168  1.00  0.00     0.210 C 
ENDBRANCH  13  16
ENDBRANCH   7  10
ENDBRANCH   5   7
ENDBRANCH   1   5
BRANCH   2  18
HETATM   18  C   UNL     1       6.614  28.792  57.538  1.00  0.00     0.079 A 
HETATM   19  C   UNL     1       5.455  28.520  56.793  1.00  0.00     0.165 A 
HETATM   20  N   UNL     1       5.134  27.237  56.389  1.00  0.00    -0.241 NA
HETATM   21  C   UNL     1       5.937  26.209  56.716  1.00  0.00     0.119 A 
HETATM   22  C   UNL     1       7.087  26.371  57.442  1.00  0.00     0.020 A 
HETATM   23  C   UNL     1       7.417  27.661  57.846  1.00  0.00     0.022 A 
BRANCH  19  24
HETATM   24  N   UNL     1       4.470  29.480  56.377  1.00  0.00    -0.226 N 
HETATM   25  N   UNL     1       3.624  30.144  57.202  1.00  0.00    -0.179 NA
HETATM   26  C   UNL     1       2.889  30.922  56.405  1.00  0.00     0.141 A 
HETATM   27  C   UNL     1       3.239  30.797  55.059  1.00  0.00     0.040 A 
HETATM   28  C   UNL     1       4.252  29.873  55.061  1.00  0.00     0.122 A 
ENDBRANCH  19  24
ENDBRANCH   2  18
TORSDOF 7
ENDMDL
