MODEL 1
REMARK VINA RESULT:      -8.9      0.000      0.000
REMARK  6 active torsions:
REMARK  status: ('A' for Active; 'I' for Inactive)
REMARK    1  A    between atoms: C_2  and  N_3 
REMARK    2  A    between atoms: C_2  and  C_11 
REMARK       I    between atoms: N_3  and  C_4 
REMARK    3  A    between atoms: C_4  and  C_5 
REMARK    4  A    between atoms: C_14  and  O_15 
REMARK    5  A    between atoms: O_15  and  C_16 
REMARK    6  A    between atoms: C_16  and  C_17 
ROOT
HETATM    1  C   UNL     1       8.488  28.469  56.463  1.00  0.00    -0.036 A 
HETATM    2  C   UNL     1       7.851  28.472  55.212  1.00  0.00     0.012 A 
HETATM    3  C   UNL     1       7.194  27.332  54.733  1.00  0.00     0.037 A 
HETATM    4  C   UNL     1       7.164  26.169  55.499  1.00  0.00     0.069 A 
HETATM    5  C   UNL     1       7.754  26.170  56.763  1.00  0.00     0.037 A 
HETATM    6  C   UNL     1       8.407  27.307  57.245  1.00  0.00     0.012 A 
ENDROOT
BRANCH   1   7
HETATM    7  C   UNL     1       9.208  29.716  56.951  1.00  0.00     0.113 C 
HETATM    8  C   UNL     1      10.669  29.760  56.486  1.00  0.00     0.037 C 
BRANCH   7   9
HETATM    9  N   UNL     1       9.095  29.804  58.398  1.00  0.00    -0.352 N 
HETATM   10  C   UNL     1       9.384  30.961  59.081  1.00  0.00     0.225 C 
HETATM   11  O   UNL     1       9.779  31.988  58.547  1.00  0.00    -0.273 OA
HETATM   12  H   UNL     1       8.761  28.990  58.894  1.00  0.00     0.163 HD
BRANCH  10  13
HETATM   13  C   UNL     1       9.226  30.862  60.550  1.00  0.00     0.119 A 
HETATM   14  C   UNL     1       8.207  31.674  61.305  1.00  0.00     0.126 A 
HETATM   15 CL   UNL     1       7.155  32.829  60.511  1.00  0.00    -0.101 Cl
HETATM   16 CL   UNL     1       7.439  30.904  62.700  1.00  0.00    -0.101 Cl
HETATM   17  C   UNL     1       9.667  32.009  61.429  1.00  0.00     0.060 A 
ENDBRANCH  10  13
ENDBRANCH   7   9
ENDBRANCH   1   7
BRANCH   4  18
HETATM   18  O   UNL     1       6.589  24.983  55.140  1.00  0.00    -0.347 OA
BRANCH  18  19
HETATM   19  C   UNL     1       6.959  24.444  53.871  1.00  0.00     0.215 C 
BRANCH  19  20
HETATM   20  C   UNL     1       7.417  23.025  54.069  1.00  0.00    -0.017 A 
HETATM   21  C   UNL     1       7.445  22.444  55.333  1.00  0.00     0.125 A 
HETATM   22  N   UNL     1       7.810  21.163  55.572  1.00  0.00    -0.272 NA
HETATM   23  C   UNL     1       8.169  20.425  54.501  1.00  0.00     0.116 A 
HETATM   24  C   UNL     1       8.175  20.902  53.202  1.00  0.00     0.020 A 
HETATM   25  C   UNL     1       7.789  22.222  52.987  1.00  0.00     0.012 A 
ENDBRANCH  19  20
ENDBRANCH  18  19
ENDBRANCH   4  18
TORSDOF 6
ENDMDL
MODEL 2
REMARK VINA RESULT:      -8.7      6.494     10.623
REMARK  6 active torsions:
REMARK  status: ('A' for Active; 'I' for Inactive)
REMARK    1  A    between atoms: C_2  and  N_3 
REMARK    2  A    between atoms: C_2  and  C_11 
REMARK       I    between atoms: N_3  and  C_4 
REMARK    3  A    between atoms: C_4  and  C_5 
REMARK    4  A    between atoms: C_14  and  O_15 
REMARK    5  A    between atoms: O_15  and  C_16 
REMARK    6  A    between atoms: C_16  and  C_17 
ROOT
HETATM    1  C   UNL     1       5.633  33.917  65.036  1.00  0.00    -0.036 A 
HETATM    2  C   UNL     1       6.976  33.542  65.203  1.00  0.00     0.012 A 
HETATM    3  C   UNL     1       7.761  33.165  64.106  1.00  0.00     0.037 A 
HETATM    4  C   UNL     1       7.216  33.158  62.825  1.00  0.00     0.069 A 
HETATM    5  C   UNL     1       5.896  33.574  62.644  1.00  0.00     0.037 A 
HETATM    6  C   UNL     1       5.111  33.953  63.734  1.00  0.00     0.012 A 
ENDROOT
BRANCH   1   7
HETATM    7  C   UNL     1       4.798  34.306  66.246  1.00  0.00     0.113 C 
HETATM    8  C   UNL     1       3.729  35.351  65.900  1.00  0.00     0.037 C 
BRANCH   7   9
HETATM    9  N   UNL     1       5.675  34.757  67.314  1.00  0.00    -0.352 N 
HETATM   10  C   UNL     1       5.568  34.275  68.596  1.00  0.00     0.225 C 
HETATM   11  O   UNL     1       4.727  33.461  68.951  1.00  0.00    -0.273 OA
HETATM   12  H   UNL     1       6.399  35.421  67.079  1.00  0.00     0.163 HD
BRANCH  10  13
HETATM   13  C   UNL     1       6.535  34.858  69.554  1.00  0.00     0.119 A 
HETATM   14  C   UNL     1       7.213  34.031  70.614  1.00  0.00     0.126 A 
HETATM   15 CL   UNL     1       6.882  32.323  70.825  1.00  0.00    -0.101 Cl
HETATM   16 CL   UNL     1       8.883  34.454  71.017  1.00  0.00    -0.101 Cl
HETATM   17  C   UNL     1       6.147  35.016  71.006  1.00  0.00     0.060 A 
ENDBRANCH  10  13
ENDBRANCH   7   9
ENDBRANCH   1   7
BRANCH   4  18
HETATM   18  O   UNL     1       7.858  32.784  61.679  1.00  0.00    -0.347 OA
BRANCH  18  19
HETATM   19  C   UNL     1       7.807  31.400  61.332  1.00  0.00     0.215 C 
BRANCH  19  20
HETATM   20  C   UNL     1       8.575  31.198  60.055  1.00  0.00    -0.017 A 
HETATM   21  C   UNL     1       9.538  32.111  59.638  1.00  0.00     0.125 A 
HETATM   22  N   UNL     1      10.288  31.968  58.521  1.00  0.00    -0.272 NA
HETATM   23  C   UNL     1      10.066  30.862  57.780  1.00  0.00     0.116 A 
HETATM   24  C   UNL     1       9.136  29.891  58.103  1.00  0.00     0.020 A 
HETATM   25  C   UNL     1       8.383  30.063  59.261  1.00  0.00     0.012 A 
ENDBRANCH  19  20
ENDBRANCH  18  19
ENDBRANCH   4  18
TORSDOF 6
ENDMDL
MODEL 3
REMARK VINA RESULT:      -8.6      3.761      9.188
REMARK  6 active torsions:
REMARK  status: ('A' for Active; 'I' for Inactive)
REMARK    1  A    between atoms: C_2  and  N_3 
REMARK    2  A    between atoms: C_2  and  C_11 
REMARK       I    between atoms: N_3  and  C_4 
REMARK    3  A    between atoms: C_4  and  C_5 
REMARK    4  A    between atoms: C_14  and  O_15 
REMARK    5  A    between atoms: O_15  and  C_16 
REMARK    6  A    between atoms: C_16  and  C_17 
ROOT
HETATM    1  C   UNL     1       7.104  26.921  55.220  1.00  0.00    -0.036 A 
HETATM    2  C   UNL     1       7.565  28.242  55.101  1.00  0.00     0.012 A 
HETATM    3  C   UNL     1       7.966  28.970  56.227  1.00  0.00     0.037 A 
HETATM    4  C   UNL     1       7.912  28.388  57.492  1.00  0.00     0.069 A 
HETATM    5  C   UNL     1       7.500  27.061  57.614  1.00  0.00     0.037 A 
HETATM    6  C   UNL     1       7.102  26.331  56.493  1.00  0.00     0.012 A 
ENDROOT
BRANCH   1   7
HETATM    7  C   UNL     1       6.658  26.158  53.982  1.00  0.00     0.113 C 
HETATM    8  C   UNL     1       5.206  26.473  53.599  1.00  0.00     0.037 C 
BRANCH   7   9
HETATM    9  N   UNL     1       6.869  24.734  54.188  1.00  0.00    -0.352 N 
HETATM   10  C   UNL     1       7.541  23.959  53.275  1.00  0.00     0.225 C 
HETATM   11  O   UNL     1       7.989  24.382  52.218  1.00  0.00    -0.273 OA
HETATM   12  H   UNL     1       6.533  24.330  55.050  1.00  0.00     0.163 HD
BRANCH  10  13
HETATM   13  C   UNL     1       7.649  22.529  53.646  1.00  0.00     0.119 A 
HETATM   14  C   UNL     1       8.272  22.079  54.941  1.00  0.00     0.126 A 
HETATM   15 CL   UNL     1       8.955  23.209  56.093  1.00  0.00    -0.101 Cl
HETATM   16 CL   UNL     1       7.567  20.656  55.720  1.00  0.00    -0.101 Cl
HETATM   17  C   UNL     1       9.002  21.855  53.646  1.00  0.00     0.060 A 
ENDBRANCH  10  13
ENDBRANCH   7   9
ENDBRANCH   1   7
BRANCH   4  18
HETATM   18  O   UNL     1       8.242  28.994  58.671  1.00  0.00    -0.347 OA
BRANCH  18  19
HETATM   19  C   UNL     1       8.905  30.255  58.586  1.00  0.00     0.215 C 
BRANCH  19  20
HETATM   20  C   UNL     1       8.495  31.092  59.766  1.00  0.00    -0.017 A 
HETATM   21  C   UNL     1       7.336  31.862  59.739  1.00  0.00     0.125 A 
HETATM   22  N   UNL     1       6.894  32.605  60.780  1.00  0.00    -0.272 NA
HETATM   23  C   UNL     1       7.644  32.585  61.902  1.00  0.00     0.116 A 
HETATM   24  C   UNL     1       8.810  31.854  62.037  1.00  0.00     0.020 A 
HETATM   25  C   UNL     1       9.237  31.094  60.951  1.00  0.00     0.012 A 
ENDBRANCH  19  20
ENDBRANCH  18  19
ENDBRANCH   4  18
TORSDOF 6
ENDMDL
MODEL 4
REMARK VINA RESULT:      -8.4      1.265      1.690
REMARK  6 active torsions:
REMARK  status: ('A' for Active; 'I' for Inactive)
REMARK    1  A    between atoms: C_2  and  N_3 
REMARK    2  A    between atoms: C_2  and  C_11 
REMARK       I    between atoms: N_3  and  C_4 
REMARK    3  A    between atoms: C_4  and  C_5 
REMARK    4  A    between atoms: C_14  and  O_15 
REMARK    5  A    between atoms: O_15  and  C_16 
REMARK    6  A    between atoms: C_16  and  C_17 
ROOT
HETATM    1  C   UNL     1       8.388  29.176  57.113  1.00  0.00    -0.036 A 
HETATM    2  C   UNL     1       7.798  28.111  57.813  1.00  0.00     0.012 A 
HETATM    3  C   UNL     1       7.191  27.048  57.133  1.00  0.00     0.037 A 
HETATM    4  C   UNL     1       7.164  27.034  55.740  1.00  0.00     0.069 A 
HETATM    5  C   UNL     1       7.789  28.064  55.036  1.00  0.00     0.037 A 
HETATM    6  C   UNL     1       8.397  29.123  55.712  1.00  0.00     0.012 A 
ENDROOT
BRANCH   1   7
HETATM    7  C   UNL     1       9.025  30.326  57.878  1.00  0.00     0.113 C 
HETATM    8  C   UNL     1      10.557  30.281  57.819  1.00  0.00     0.037 C 
BRANCH   7   9
HETATM    9  N   UNL     1       8.533  30.329  59.246  1.00  0.00    -0.352 N 
HETATM   10  C   UNL     1       8.441  31.484  59.983  1.00  0.00     0.225 C 
HETATM   11  O   UNL     1       8.782  32.585  59.573  1.00  0.00    -0.273 OA
HETATM   12  H   UNL     1       8.223  29.450  59.635  1.00  0.00     0.163 HD
BRANCH  10  13
HETATM   13  C   UNL     1       7.931  31.295  61.361  1.00  0.00     0.119 A 
HETATM   14  C   UNL     1       6.816  32.133  61.927  1.00  0.00     0.126 A 
HETATM   15 CL   UNL     1       6.061  33.426  61.016  1.00  0.00    -0.101 Cl
HETATM   16 CL   UNL     1       5.689  31.333  63.031  1.00  0.00    -0.101 Cl
HETATM   17  C   UNL     1       8.222  32.336  62.417  1.00  0.00     0.060 A 
ENDBRANCH  10  13
ENDBRANCH   7   9
ENDBRANCH   1   7
BRANCH   4  18
HETATM   18  O   UNL     1       6.581  26.079  54.956  1.00  0.00    -0.347 OA
BRANCH  18  19
HETATM   19  C   UNL     1       6.374  24.797  55.547  1.00  0.00     0.215 C 
BRANCH  19  20
HETATM   20  C   UNL     1       7.315  23.816  54.903  1.00  0.00    -0.017 A 
HETATM   21  C   UNL     1       8.393  23.282  55.602  1.00  0.00     0.125 A 
HETATM   22  N   UNL     1       9.252  22.369  55.092  1.00  0.00    -0.272 NA
HETATM   23  C   UNL     1       9.030  21.970  53.822  1.00  0.00     0.116 A 
HETATM   24  C   UNL     1       7.988  22.435  53.039  1.00  0.00     0.020 A 
HETATM   25  C   UNL     1       7.118  23.369  53.593  1.00  0.00     0.012 A 
ENDBRANCH  19  20
ENDBRANCH  18  19
ENDBRANCH   4  18
TORSDOF 6
ENDMDL
MODEL 5
REMARK VINA RESULT:      -8.2      2.999      4.114
REMARK  6 active torsions:
REMARK  status: ('A' for Active; 'I' for Inactive)
REMARK    1  A    between atoms: C_2  and  N_3 
REMARK    2  A    between atoms: C_2  and  C_11 
REMARK       I    between atoms: N_3  and  C_4 
REMARK    3  A    between atoms: C_4  and  C_5 
REMARK    4  A    between atoms: C_14  and  O_15 
REMARK    5  A    between atoms: O_15  and  C_16 
REMARK    6  A    between atoms: C_16  and  C_17 
ROOT
HETATM    1  C   UNL     1       6.052  26.864  53.728  1.00  0.00    -0.036 A 
HETATM    2  C   UNL     1       7.373  26.648  53.305  1.00  0.00     0.012 A 
HETATM    3  C   UNL     1       7.815  25.370  52.940  1.00  0.00     0.037 A 
HETATM    4  C   UNL     1       6.941  24.287  52.993  1.00  0.00     0.069 A 
HETATM    5  C   UNL     1       5.613  24.500  53.367  1.00  0.00     0.037 A 
HETATM    6  C   UNL     1       5.170  25.774  53.728  1.00  0.00     0.012 A 
ENDROOT
BRANCH   1   7
HETATM    7  C   UNL     1       5.604  28.259  54.134  1.00  0.00     0.113 C 
HETATM    8  C   UNL     1       5.254  29.131  52.922  1.00  0.00     0.037 C 
BRANCH   7   9
HETATM    9  N   UNL     1       6.625  28.872  54.968  1.00  0.00    -0.352 N 
HETATM   10  C   UNL     1       6.351  29.334  56.232  1.00  0.00     0.225 C 
HETATM   11  O   UNL     1       5.243  29.297  56.748  1.00  0.00    -0.273 OA
HETATM   12  H   UNL     1       7.565  28.919  54.601  1.00  0.00     0.163 HD
BRANCH  10  13
HETATM   13  C   UNL     1       7.510  29.940  56.929  1.00  0.00     0.119 A 
HETATM   14  C   UNL     1       8.686  29.121  57.392  1.00  0.00     0.126 A 
HETATM   15 CL   UNL     1       8.758  27.383  57.182  1.00  0.00    -0.101 Cl
HETATM   16 CL   UNL     1      10.280  29.883  57.306  1.00  0.00    -0.101 Cl
HETATM   17  C   UNL     1       7.720  29.676  58.402  1.00  0.00     0.060 A 
ENDBRANCH  10  13
ENDBRANCH   7   9
ENDBRANCH   1   7
BRANCH   4  18
HETATM   18  O   UNL     1       7.248  22.990  52.696  1.00  0.00    -0.347 OA
BRANCH  18  19
HETATM   19  C   UNL     1       8.530  22.519  53.113  1.00  0.00     0.215 C 
BRANCH  19  20
HETATM   20  C   UNL     1       8.420  22.021  54.527  1.00  0.00    -0.017 A 
HETATM   21  C   UNL     1       8.685  22.853  55.610  1.00  0.00     0.125 A 
HETATM   22  N   UNL     1       8.569  22.476  56.904  1.00  0.00    -0.272 NA
HETATM   23  C   UNL     1       8.172  21.207  57.134  1.00  0.00     0.116 A 
HETATM   24  C   UNL     1       7.880  20.298  56.133  1.00  0.00     0.020 A 
HETATM   25  C   UNL     1       8.004  20.716  54.810  1.00  0.00     0.012 A 
ENDBRANCH  19  20
ENDBRANCH  18  19
ENDBRANCH   4  18
TORSDOF 6
ENDMDL
MODEL 6
REMARK VINA RESULT:      -8.1      6.946      9.316
REMARK  6 active torsions:
REMARK  status: ('A' for Active; 'I' for Inactive)
REMARK    1  A    between atoms: C_2  and  N_3 
REMARK    2  A    between atoms: C_2  and  C_11 
REMARK       I    between atoms: N_3  and  C_4 
REMARK    3  A    between atoms: C_4  and  C_5 
REMARK    4  A    between atoms: C_14  and  O_15 
REMARK    5  A    between atoms: O_15  and  C_16 
REMARK    6  A    between atoms: C_16  and  C_17 
ROOT
HETATM    1  C   UNL     1       5.404  26.919  51.248  1.00  0.00    -0.036 A 
HETATM    2  C   UNL     1       5.981  27.511  52.384  1.00  0.00     0.012 A 
HETATM    3  C   UNL     1       6.200  26.769  53.552  1.00  0.00     0.037 A 
HETATM    4  C   UNL     1       5.845  25.423  53.602  1.00  0.00     0.069 A 
HETATM    5  C   UNL     1       5.314  24.815  52.463  1.00  0.00     0.037 A 
HETATM    6  C   UNL     1       5.098  25.551  51.297  1.00  0.00     0.012 A 
ENDROOT
BRANCH   1   7
HETATM    7  C   UNL     1       5.162  27.752  49.999  1.00  0.00     0.113 C 
HETATM    8  C   UNL     1       5.362  29.252  50.256  1.00  0.00     0.037 C 
BRANCH   7   9
HETATM    9  N   UNL     1       3.838  27.462  49.473  1.00  0.00    -0.352 N 
HETATM   10  C   UNL     1       3.643  27.069  48.172  1.00  0.00     0.225 C 
HETATM   11  O   UNL     1       4.542  26.956  47.350  1.00  0.00    -0.273 OA
HETATM   12  H   UNL     1       3.056  27.526  50.109  1.00  0.00     0.163 HD
BRANCH  10  13
HETATM   13  C   UNL     1       2.226  26.831  47.809  1.00  0.00     0.119 A 
HETATM   14  C   UNL     1       1.401  27.857  47.079  1.00  0.00     0.126 A 
HETATM   15 CL   UNL     1       2.036  29.429  46.637  1.00  0.00    -0.101 Cl
HETATM   16 CL   UNL     1       0.214  27.252  45.915  1.00  0.00    -0.101 Cl
HETATM   17  C   UNL     1       1.132  27.580  48.532  1.00  0.00     0.060 A 
ENDBRANCH  10  13
ENDBRANCH   7   9
ENDBRANCH   1   7
BRANCH   4  18
HETATM   18  O   UNL     1       5.974  24.596  54.681  1.00  0.00    -0.347 OA
BRANCH  18  19
HETATM   19  C   UNL     1       7.301  24.320  55.128  1.00  0.00     0.215 C 
BRANCH  19  20
HETATM   20  C   UNL     1       7.631  22.892  54.792  1.00  0.00    -0.017 A 
HETATM   21  C   UNL     1       8.050  22.526  53.517  1.00  0.00     0.125 A 
HETATM   22  N   UNL     1       8.397  21.268  53.163  1.00  0.00    -0.272 NA
HETATM   23  C   UNL     1       8.320  20.323  54.124  1.00  0.00     0.116 A 
HETATM   24  C   UNL     1       7.918  20.577  55.423  1.00  0.00     0.020 A 
HETATM   25  C   UNL     1       7.572  21.884  55.759  1.00  0.00     0.012 A 
ENDBRANCH  19  20
ENDBRANCH  18  19
ENDBRANCH   4  18
TORSDOF 6
ENDMDL
MODEL 7
REMARK VINA RESULT:      -8.1      6.558      8.662
REMARK  6 active torsions:
REMARK  status: ('A' for Active; 'I' for Inactive)
REMARK    1  A    between atoms: C_2  and  N_3 
REMARK    2  A    between atoms: C_2  and  C_11 
REMARK       I    between atoms: N_3  and  C_4 
REMARK    3  A    between atoms: C_4  and  C_5 
REMARK    4  A    between atoms: C_14  and  O_15 
REMARK    5  A    between atoms: O_15  and  C_16 
REMARK    6  A    between atoms: C_16  and  C_17 
ROOT
HETATM    1  C   UNL     1       5.503  27.174  52.261  1.00  0.00    -0.036 A 
HETATM    2  C   UNL     1       6.147  27.245  53.506  1.00  0.00     0.012 A 
HETATM    3  C   UNL     1       7.115  26.301  53.873  1.00  0.00     0.037 A 
HETATM    4  C   UNL     1       7.453  25.271  52.999  1.00  0.00     0.069 A 
HETATM    5  C   UNL     1       6.852  25.219  51.741  1.00  0.00     0.037 A 
HETATM    6  C   UNL     1       5.889  26.160  51.371  1.00  0.00     0.012 A 
ENDROOT
BRANCH   1   7
HETATM    7  C   UNL     1       4.444  28.202  51.894  1.00  0.00     0.113 C 
HETATM    8  C   UNL     1       3.477  28.475  53.054  1.00  0.00     0.037 C 
BRANCH   7   9
HETATM    9  N   UNL     1       3.745  27.771  50.694  1.00  0.00    -0.352 N 
HETATM   10  C   UNL     1       3.360  28.657  49.719  1.00  0.00     0.225 C 
HETATM   11  O   UNL     1       3.542  29.865  49.783  1.00  0.00    -0.273 OA
HETATM   12  H   UNL     1       3.578  26.781  50.578  1.00  0.00     0.163 HD
BRANCH  10  13
HETATM   13  C   UNL     1       2.649  28.041  48.575  1.00  0.00     0.119 A 
HETATM   14  C   UNL     1       3.369  27.259  47.509  1.00  0.00     0.126 A 
HETATM   15 CL   UNL     1       5.108  27.049  47.514  1.00  0.00    -0.101 Cl
HETATM   16 CL   UNL     1       2.519  25.868  46.821  1.00  0.00    -0.101 Cl
HETATM   17  C   UNL     1       2.817  28.620  47.189  1.00  0.00     0.060 A 
ENDBRANCH  10  13
ENDBRANCH   7   9
ENDBRANCH   1   7
BRANCH   4  18
HETATM   18  O   UNL     1       8.352  24.272  53.243  1.00  0.00    -0.347 OA
BRANCH  18  19
HETATM   19  C   UNL     1       7.883  22.931  53.095  1.00  0.00     0.215 C 
BRANCH  19  20
HETATM   20  C   UNL     1       8.109  22.200  54.390  1.00  0.00    -0.017 A 
HETATM   21  C   UNL     1       8.221  22.883  55.597  1.00  0.00     0.125 A 
HETATM   22  N   UNL     1       8.387  22.282  56.797  1.00  0.00    -0.272 NA
HETATM   23  C   UNL     1       8.448  20.934  56.798  1.00  0.00     0.116 A 
HETATM   24  C   UNL     1       8.347  20.157  55.657  1.00  0.00     0.020 A 
HETATM   25  C   UNL     1       8.171  20.804  54.437  1.00  0.00     0.012 A 
ENDBRANCH  19  20
ENDBRANCH  18  19
ENDBRANCH   4  18
TORSDOF 6
ENDMDL
MODEL 8
REMARK VINA RESULT:      -8.0      4.222     10.353
REMARK  6 active torsions:
REMARK  status: ('A' for Active; 'I' for Inactive)
REMARK    1  A    between atoms: C_2  and  N_3 
REMARK    2  A    between atoms: C_2  and  C_11 
REMARK       I    between atoms: N_3  and  C_4 
REMARK    3  A    between atoms: C_4  and  C_5 
REMARK    4  A    between atoms: C_14  and  O_15 
REMARK    5  A    between atoms: O_15  and  C_16 
REMARK    6  A    between atoms: C_16  and  C_17 
ROOT
HETATM    1  C   UNL     1       8.778  30.751  59.258  1.00  0.00    -0.036 A 
HETATM    2  C   UNL     1       9.432  30.716  60.500  1.00  0.00     0.012 A 
HETATM    3  C   UNL     1       8.975  31.485  61.578  1.00  0.00     0.037 A 
HETATM    4  C   UNL     1       7.856  32.300  61.431  1.00  0.00     0.069 A 
HETATM    5  C   UNL     1       7.171  32.305  60.215  1.00  0.00     0.037 A 
HETATM    6  C   UNL     1       7.623  31.538  59.139  1.00  0.00     0.012 A 
ENDROOT
BRANCH   1   7
HETATM    7  C   UNL     1       9.305  29.920  58.099  1.00  0.00     0.113 C 
HETATM    8  C   UNL     1      10.601  30.498  57.515  1.00  0.00     0.037 C 
BRANCH   7   9
HETATM    9  N   UNL     1       8.267  29.782  57.090  1.00  0.00    -0.352 N 
HETATM   10  C   UNL     1       7.927  28.563  56.558  1.00  0.00     0.225 C 
HETATM   11  O   UNL     1       8.473  27.510  56.859  1.00  0.00    -0.273 OA
HETATM   12  H   UNL     1       7.771  30.617  56.811  1.00  0.00     0.163 HD
BRANCH  10  13
HETATM   13  C   UNL     1       6.859  28.616  55.534  1.00  0.00     0.119 A 
HETATM   14  C   UNL     1       5.614  27.774  55.627  1.00  0.00     0.126 A 
HETATM   15 CL   UNL     1       5.350  26.634  56.931  1.00  0.00    -0.101 Cl
HETATM   16 CL   UNL     1       4.109  28.496  55.040  1.00  0.00    -0.101 Cl
HETATM   17  C   UNL     1       6.660  27.447  54.597  1.00  0.00     0.060 A 
ENDBRANCH  10  13
ENDBRANCH   7   9
ENDBRANCH   1   7
BRANCH   4  18
HETATM   18  O   UNL     1       7.326  33.120  62.386  1.00  0.00    -0.347 OA
BRANCH  18  19
HETATM   19  C   UNL     1       7.804  32.950  63.721  1.00  0.00     0.215 C 
BRANCH  19  20
HETATM   20  C   UNL     1       6.707  33.335  64.675  1.00  0.00    -0.017 A 
HETATM   21  C   UNL     1       5.371  33.090  64.378  1.00  0.00     0.125 A 
HETATM   22  N   UNL     1       4.343  33.379  65.209  1.00  0.00    -0.272 NA
HETATM   23  C   UNL     1       4.660  33.943  66.393  1.00  0.00     0.116 A 
HETATM   24  C   UNL     1       5.954  34.227  66.790  1.00  0.00     0.020 A 
HETATM   25  C   UNL     1       6.992  33.914  65.916  1.00  0.00     0.012 A 
ENDBRANCH  19  20
ENDBRANCH  18  19
ENDBRANCH   4  18
TORSDOF 6
ENDMDL
MODEL 9
REMARK VINA RESULT:      -8.0      2.050      2.834
REMARK  6 active torsions:
REMARK  status: ('A' for Active; 'I' for Inactive)
REMARK    1  A    between atoms: C_2  and  N_3 
REMARK    2  A    between atoms: C_2  and  C_11 
REMARK       I    between atoms: N_3  and  C_4 
REMARK    3  A    between atoms: C_4  and  C_5 
REMARK    4  A    between atoms: C_14  and  O_15 
REMARK    5  A    between atoms: O_15  and  C_16 
REMARK    6  A    between atoms: C_16  and  C_17 
ROOT
HETATM    1  C   UNL     1       5.316  27.469  56.075  1.00  0.00    -0.036 A 
HETATM    2  C   UNL     1       5.210  27.541  54.676  1.00  0.00     0.012 A 
HETATM    3  C   UNL     1       5.473  26.424  53.874  1.00  0.00     0.037 A 
HETATM    4  C   UNL     1       5.847  25.216  54.458  1.00  0.00     0.069 A 
HETATM    5  C   UNL     1       5.909  25.122  55.849  1.00  0.00     0.037 A 
HETATM    6  C   UNL     1       5.644  26.233  56.651  1.00  0.00     0.012 A 
ENDROOT
BRANCH   1   7
HETATM    7  C   UNL     1       5.040  28.702  56.921  1.00  0.00     0.113 C 
HETATM    8  C   UNL     1       4.709  29.930  56.064  1.00  0.00     0.037 C 
BRANCH   7   9
HETATM    9  N   UNL     1       6.169  28.944  57.805  1.00  0.00    -0.352 N 
HETATM   10  C   UNL     1       7.385  29.372  57.331  1.00  0.00     0.225 C 
HETATM   11  O   UNL     1       7.629  29.559  56.147  1.00  0.00    -0.273 OA
HETATM   12  H   UNL     1       6.024  28.819  58.797  1.00  0.00     0.163 HD
BRANCH  10  13
HETATM   13  C   UNL     1       8.421  29.553  58.374  1.00  0.00     0.119 A 
HETATM   14  C   UNL     1       8.402  30.714  59.332  1.00  0.00     0.126 A 
HETATM   15 CL   UNL     1       7.177  31.965  59.264  1.00  0.00    -0.101 Cl
HETATM   16 CL   UNL     1       8.967  30.405  60.980  1.00  0.00    -0.101 Cl
HETATM   17  C   UNL     1       9.433  30.667  58.239  1.00  0.00     0.060 A 
ENDBRANCH  10  13
ENDBRANCH   7   9
ENDBRANCH   1   7
BRANCH   4  18
HETATM   18  O   UNL     1       6.161  24.064  53.794  1.00  0.00    -0.347 OA
BRANCH  18  19
HETATM   19  C   UNL     1       7.537  23.856  53.479  1.00  0.00     0.215 C 
BRANCH  19  20
HETATM   20  C   UNL     1       7.944  22.499  53.984  1.00  0.00    -0.017 A 
HETATM   21  C   UNL     1       8.040  21.407  53.128  1.00  0.00     0.125 A 
HETATM   22  N   UNL     1       8.436  20.172  53.513  1.00  0.00    -0.272 NA
HETATM   23  C   UNL     1       8.748  20.014  54.817  1.00  0.00     0.116 A 
HETATM   24  C   UNL     1       8.689  21.031  55.752  1.00  0.00     0.020 A 
HETATM   25  C   UNL     1       8.284  22.293  55.325  1.00  0.00     0.012 A 
ENDBRANCH  19  20
ENDBRANCH  18  19
ENDBRANCH   4  18
TORSDOF 6
ENDMDL
MODEL 10
REMARK VINA RESULT:      -7.9      2.326      2.803
REMARK  6 active torsions:
REMARK  status: ('A' for Active; 'I' for Inactive)
REMARK    1  A    between atoms: C_2  and  N_3 
REMARK    2  A    between atoms: C_2  and  C_11 
REMARK       I    between atoms: N_3  and  C_4 
REMARK    3  A    between atoms: C_4  and  C_5 
REMARK    4  A    between atoms: C_14  and  O_15 
REMARK    5  A    between atoms: O_15  and  C_16 
REMARK    6  A    between atoms: C_16  and  C_17 
ROOT
HETATM    1  C   UNL     1       7.656  28.834  57.634  1.00  0.00    -0.036 A 
HETATM    2  C   UNL     1       8.467  27.714  57.391  1.00  0.00     0.012 A 
HETATM    3  C   UNL     1       7.911  26.494  56.988  1.00  0.00     0.037 A 
HETATM    4  C   UNL     1       6.533  26.374  56.823  1.00  0.00     0.069 A 
HETATM    5  C   UNL     1       5.724  27.494  57.018  1.00  0.00     0.037 A 
HETATM    6  C   UNL     1       6.276  28.713  57.416  1.00  0.00     0.012 A 
ENDROOT
BRANCH   1   7
HETATM    7  C   UNL     1       8.285  30.143  58.087  1.00  0.00     0.113 C 
HETATM    8  C   UNL     1       9.817  30.103  58.015  1.00  0.00     0.037 C 
BRANCH   7   9
HETATM    9  N   UNL     1       7.811  30.471  59.421  1.00  0.00    -0.352 N 
HETATM   10  C   UNL     1       8.033  31.702  59.989  1.00  0.00     0.225 C 
HETATM   11  O   UNL     1       8.657  32.603  59.446  1.00  0.00    -0.273 OA
HETATM   12  H   UNL     1       7.277  29.771  59.915  1.00  0.00     0.163 HD
BRANCH  10  13
HETATM   13  C   UNL     1       7.490  31.853  61.359  1.00  0.00     0.119 A 
HETATM   14  C   UNL     1       6.072  32.289  61.617  1.00  0.00     0.126 A 
HETATM   15 CL   UNL     1       4.965  32.692  60.320  1.00  0.00    -0.101 Cl
HETATM   16 CL   UNL     1       5.253  31.574  63.012  1.00  0.00    -0.101 Cl
HETATM   17  C   UNL     1       7.206  33.234  61.904  1.00  0.00     0.060 A 
ENDBRANCH  10  13
ENDBRANCH   7   9
ENDBRANCH   1   7
BRANCH   4  18
HETATM   18  O   UNL     1       5.860  25.240  56.467  1.00  0.00    -0.347 OA
BRANCH  18  19
HETATM   19  C   UNL     1       6.593  24.258  55.734  1.00  0.00     0.215 C 
BRANCH  19  20
HETATM   20  C   UNL     1       6.560  24.626  54.277  1.00  0.00    -0.017 A 
HETATM   21  C   UNL     1       5.369  24.964  53.642  1.00  0.00     0.125 A 
HETATM   22  N   UNL     1       5.279  25.340  52.346  1.00  0.00    -0.272 NA
HETATM   23  C   UNL     1       6.431  25.377  51.643  1.00  0.00     0.116 A 
HETATM   24  C   UNL     1       7.669  25.063  52.175  1.00  0.00     0.020 A 
HETATM   25  C   UNL     1       7.731  24.685  53.514  1.00  0.00     0.012 A 
ENDBRANCH  19  20
ENDBRANCH  18  19
ENDBRANCH   4  18
TORSDOF 6
ENDMDL
