MODEL 1
REMARK VINA RESULT:      -9.6      0.000      0.000
REMARK  4 active torsions:
REMARK  status: ('A' for Active; 'I' for Inactive)
REMARK    1  A    between atoms: C_7  and  C_8 
REMARK    2  A    between atoms: C_8  and  N_9 
REMARK    3  A    between atoms: C_13  and  C_14 
REMARK    4  A    between atoms: C_16  and  C_17 
ROOT
HETATM    1  N   UNL     1       7.606  25.307  57.530  1.00  0.00    -0.067 N 
HETATM    2  H   UNL     1       7.465  25.318  58.547  1.00  0.00     0.280 HD
HETATM    3  C   UNL     1       7.838  26.737  57.091  1.00  0.00     0.236 C 
HETATM    4  C   UNL     1       6.577  27.576  57.265  1.00  0.00     0.040 C 
HETATM    5  C   UNL     1       5.356  26.971  56.566  1.00  0.00     0.058 C 
HETATM    6  C   UNL     1       5.155  25.534  57.053  1.00  0.00     0.040 C 
HETATM    7  C   UNL     1       6.397  24.667  56.886  1.00  0.00     0.236 C 
ENDROOT
BRANCH   1   8
HETATM    8  C   UNL     1       8.828  24.436  57.272  1.00  0.00     0.276 C 
BRANCH   8   9
HETATM    9  C   UNL     1       8.514  23.093  56.733  1.00  0.00     0.003 A 
HETATM   10  C   UNL     1       8.306  22.742  55.359  1.00  0.00     0.007 A 
HETATM   11  C   UNL     1       8.310  23.430  54.129  1.00  0.00     0.015 A 
HETATM   12  C   UNL     1       8.062  21.374  55.347  1.00  0.00     0.085 A 
HETATM   13  C   UNL     1       8.075  22.706  52.952  1.00  0.00     0.001 A 
HETATM   14  C   UNL     1       7.837  21.331  52.986  1.00  0.00     0.003 A 
HETATM   15  C   UNL     1       7.825  20.629  54.196  1.00  0.00     0.038 A 
HETATM   16  O   UNL     1       8.094  20.881  56.614  1.00  0.00    -0.321 OA
HETATM   17  C   UNL     1       8.350  21.921  57.446  1.00  0.00     0.152 A 
ENDBRANCH   8   9
ENDBRANCH   1   8
BRANCH   5  18
HETATM   18  C   UNL     1       5.514  27.027  55.076  1.00  0.00     0.108 A 
HETATM   19  N   UNL     1       5.363  26.009  54.254  1.00  0.00    -0.229 NA
HETATM   20  C   UNL     1       5.635  26.486  52.976  1.00  0.00     0.157 A 
HETATM   21  C   UNL     1       5.946  27.831  53.060  1.00  0.00     0.126 A 
HETATM   22  N   UNL     1       5.862  28.161  54.387  1.00  0.00    -0.352 N 
HETATM   23  H   UNL     1       6.040  29.077  54.782  1.00  0.00     0.166 HD
BRANCH  20  24
HETATM   24  C   UNL     1       5.586  25.605  51.756  1.00  0.00     0.436 C 
HETATM   25  F   UNL     1       4.895  24.455  51.989  1.00  0.00    -0.165 F 
HETATM   26  F   UNL     1       4.986  26.222  50.709  1.00  0.00    -0.165 F 
HETATM   27  F   UNL     1       6.829  25.239  51.350  1.00  0.00    -0.165 F 
ENDBRANCH  20  24
ENDBRANCH   5  18
TORSDOF 4
ENDMDL
MODEL 2
REMARK VINA RESULT:      -9.1      2.609      3.721
REMARK  4 active torsions:
REMARK  status: ('A' for Active; 'I' for Inactive)
REMARK    1  A    between atoms: C_7  and  C_8 
REMARK    2  A    between atoms: C_8  and  N_9 
REMARK    3  A    between atoms: C_13  and  C_14 
REMARK    4  A    between atoms: C_16  and  C_17 
ROOT
HETATM    1  N   UNL     1       7.053  24.752  53.164  1.00  0.00    -0.067 N 
HETATM    2  H   UNL     1       7.064  24.580  54.176  1.00  0.00     0.280 HD
HETATM    3  C   UNL     1       7.559  26.161  52.940  1.00  0.00     0.236 C 
HETATM    4  C   UNL     1       6.576  27.190  53.487  1.00  0.00     0.040 C 
HETATM    5  C   UNL     1       5.159  27.015  52.934  1.00  0.00     0.058 C 
HETATM    6  C   UNL     1       4.687  25.582  53.197  1.00  0.00     0.040 C 
HETATM    7  C   UNL     1       5.647  24.529  52.657  1.00  0.00     0.236 C 
ENDROOT
BRANCH   1   8
HETATM    8  C   UNL     1       7.978  23.718  52.538  1.00  0.00     0.276 C 
BRANCH   8   9
HETATM    9  C   UNL     1       8.014  22.422  53.253  1.00  0.00     0.003 A 
HETATM   10  C   UNL     1       8.154  22.220  54.664  1.00  0.00     0.007 A 
HETATM   11  C   UNL     1       8.298  23.050  55.794  1.00  0.00     0.015 A 
HETATM   12  C   UNL     1       8.113  20.844  54.859  1.00  0.00     0.085 A 
HETATM   13  C   UNL     1       8.387  22.454  57.060  1.00  0.00     0.001 A 
HETATM   14  C   UNL     1       8.338  21.067  57.210  1.00  0.00     0.003 A 
HETATM   15  C   UNL     1       8.200  20.224  56.102  1.00  0.00     0.038 A 
HETATM   16  O   UNL     1       7.974  20.206  53.667  1.00  0.00    -0.321 OA
HETATM   17  C   UNL     1       7.931  21.158  52.702  1.00  0.00     0.152 A 
ENDBRANCH   8   9
ENDBRANCH   1   8
BRANCH   5  18
HETATM   18  C   UNL     1       5.112  27.346  51.473  1.00  0.00     0.108 A 
HETATM   19  N   UNL     1       4.686  26.543  50.521  1.00  0.00    -0.229 NA
HETATM   20  C   UNL     1       4.849  27.226  49.321  1.00  0.00     0.157 A 
HETATM   21  C   UNL     1       5.380  28.475  49.588  1.00  0.00     0.126 A 
HETATM   22  N   UNL     1       5.537  28.541  50.947  1.00  0.00    -0.352 N 
HETATM   23  H   UNL     1       5.913  29.328  51.463  1.00  0.00     0.166 HD
BRANCH  20  24
HETATM   24  C   UNL     1       4.489  26.621  47.990  1.00  0.00     0.436 C 
HETATM   25  F   UNL     1       3.783  25.465  48.133  1.00  0.00    -0.165 F 
HETATM   26  F   UNL     1       3.729  27.458  47.242  1.00  0.00    -0.165 F 
HETATM   27  F   UNL     1       5.593  26.318  47.260  1.00  0.00    -0.165 F 
ENDBRANCH  20  24
ENDBRANCH   5  18
TORSDOF 4
ENDMDL
MODEL 3
REMARK VINA RESULT:      -9.0      3.903      6.827
REMARK  4 active torsions:
REMARK  status: ('A' for Active; 'I' for Inactive)
REMARK    1  A    between atoms: C_7  and  C_8 
REMARK    2  A    between atoms: C_8  and  N_9 
REMARK    3  A    between atoms: C_13  and  C_14 
REMARK    4  A    between atoms: C_16  and  C_17 
ROOT
HETATM    1  N   UNL     1       7.444  27.859  56.704  1.00  0.00    -0.067 N 
HETATM    2  H   UNL     1       7.164  28.335  57.569  1.00  0.00     0.280 HD
HETATM    3  C   UNL     1       6.180  27.523  55.943  1.00  0.00     0.236 C 
HETATM    4  C   UNL     1       5.361  26.469  56.679  1.00  0.00     0.040 C 
HETATM    5  C   UNL     1       6.165  25.207  57.004  1.00  0.00     0.058 C 
HETATM    6  C   UNL     1       7.423  25.597  57.784  1.00  0.00     0.040 C 
HETATM    7  C   UNL     1       8.267  26.646  57.071  1.00  0.00     0.236 C 
ENDROOT
BRANCH   1   8
HETATM    8  C   UNL     1       8.319  28.839  55.933  1.00  0.00     0.276 C 
BRANCH   8   9
HETATM    9  C   UNL     1       9.163  29.704  56.789  1.00  0.00     0.003 A 
HETATM   10  C   UNL     1       8.733  30.503  57.898  1.00  0.00     0.007 A 
HETATM   11  C   UNL     1       7.505  30.764  58.538  1.00  0.00     0.015 A 
HETATM   12  C   UNL     1       9.878  31.115  58.394  1.00  0.00     0.085 A 
HETATM   13  C   UNL     1       7.494  31.621  59.648  1.00  0.00     0.001 A 
HETATM   14  C   UNL     1       8.669  32.212  60.116  1.00  0.00     0.003 A 
HETATM   15  C   UNL     1       9.898  31.970  59.492  1.00  0.00     0.038 A 
HETATM   16  O   UNL     1      10.960  30.752  57.656  1.00  0.00    -0.321 OA
HETATM   17  C   UNL     1      10.524  29.916  56.682  1.00  0.00     0.152 A 
ENDBRANCH   8   9
ENDBRANCH   1   8
BRANCH   5  18
HETATM   18  C   UNL     1       6.508  24.457  55.752  1.00  0.00     0.108 A 
HETATM   19  N   UNL     1       7.265  23.381  55.690  1.00  0.00    -0.229 NA
HETATM   20  C   UNL     1       7.355  23.035  54.346  1.00  0.00     0.157 A 
HETATM   21  C   UNL     1       6.615  23.938  53.603  1.00  0.00     0.126 A 
HETATM   22  N   UNL     1       6.084  24.826  54.500  1.00  0.00    -0.352 N 
HETATM   23  H   UNL     1       5.494  25.618  54.272  1.00  0.00     0.166 HD
BRANCH  20  24
HETATM   24  C   UNL     1       8.160  21.857  53.866  1.00  0.00     0.436 C 
HETATM   25  F   UNL     1       8.004  21.647  52.530  1.00  0.00    -0.165 F 
HETATM   26  F   UNL     1       9.487  22.027  54.087  1.00  0.00    -0.165 F 
HETATM   27  F   UNL     1       7.791  20.708  54.489  1.00  0.00    -0.165 F 
ENDBRANCH  20  24
ENDBRANCH   5  18
TORSDOF 4
ENDMDL
MODEL 4
REMARK VINA RESULT:      -8.9      5.309      6.494
REMARK  4 active torsions:
REMARK  status: ('A' for Active; 'I' for Inactive)
REMARK    1  A    between atoms: C_7  and  C_8 
REMARK    2  A    between atoms: C_8  and  N_9 
REMARK    3  A    between atoms: C_13  and  C_14 
REMARK    4  A    between atoms: C_16  and  C_17 
ROOT
HETATM    1  N   UNL     1       7.375  27.490  56.880  1.00  0.00    -0.067 N 
HETATM    2  H   UNL     1       7.368  27.311  55.870  1.00  0.00     0.280 HD
HETATM    3  C   UNL     1       6.221  28.423  57.182  1.00  0.00     0.236 C 
HETATM    4  C   UNL     1       6.459  29.801  56.575  1.00  0.00     0.040 C 
HETATM    5  C   UNL     1       7.796  30.417  56.995  1.00  0.00     0.058 C 
HETATM    6  C   UNL     1       8.929  29.445  56.657  1.00  0.00     0.040 C 
HETATM    7  C   UNL     1       8.724  28.058  57.256  1.00  0.00     0.236 C 
ENDROOT
BRANCH   1   8
HETATM    8  C   UNL     1       7.196  26.140  57.562  1.00  0.00     0.276 C 
BRANCH   8   9
HETATM    9  C   UNL     1       7.810  25.006  56.834  1.00  0.00     0.003 A 
HETATM   10  C   UNL     1       7.490  24.556  55.512  1.00  0.00     0.007 A 
HETATM   11  C   UNL     1       6.588  24.947  54.502  1.00  0.00     0.015 A 
HETATM   12  C   UNL     1       8.338  23.484  55.258  1.00  0.00     0.085 A 
HETATM   13  C   UNL     1       6.589  24.244  53.289  1.00  0.00     0.001 A 
HETATM   14  C   UNL     1       7.460  23.174  53.076  1.00  0.00     0.003 A 
HETATM   15  C   UNL     1       8.360  22.766  54.066  1.00  0.00     0.038 A 
HETATM   16  O   UNL     1       9.131  23.248  56.337  1.00  0.00    -0.321 OA
HETATM   17  C   UNL     1       8.799  24.155  57.288  1.00  0.00     0.152 A 
ENDBRANCH   8   9
ENDBRANCH   1   8
BRANCH   5  18
HETATM   18  C   UNL     1       7.788  30.763  58.454  1.00  0.00     0.108 A 
HETATM   19  N   UNL     1       8.826  30.690  59.261  1.00  0.00    -0.229 NA
HETATM   20  C   UNL     1       8.375  31.060  60.524  1.00  0.00     0.157 A 
HETATM   21  C   UNL     1       7.029  31.368  60.443  1.00  0.00     0.126 A 
HETATM   22  N   UNL     1       6.672  31.181  59.134  1.00  0.00    -0.352 N 
HETATM   23  H   UNL     1       5.745  31.316  58.747  1.00  0.00     0.166 HD
BRANCH  20  24
HETATM   24  C   UNL     1       9.276  31.082  61.730  1.00  0.00     0.436 C 
HETATM   25  F   UNL     1       8.595  31.405  62.865  1.00  0.00    -0.165 F 
HETATM   26  F   UNL     1       9.859  29.878  61.949  1.00  0.00    -0.165 F 
HETATM   27  F   UNL     1      10.272  31.995  61.598  1.00  0.00    -0.165 F 
ENDBRANCH  20  24
ENDBRANCH   5  18
TORSDOF 4
ENDMDL
MODEL 5
REMARK VINA RESULT:      -8.8      2.447      3.545
REMARK  4 active torsions:
REMARK  status: ('A' for Active; 'I' for Inactive)
REMARK    1  A    between atoms: C_7  and  C_8 
REMARK    2  A    between atoms: C_8  and  N_9 
REMARK    3  A    between atoms: C_13  and  C_14 
REMARK    4  A    between atoms: C_16  and  C_17 
ROOT
HETATM    1  N   UNL     1       6.670  26.221  53.700  1.00  0.00    -0.067 N 
HETATM    2  H   UNL     1       6.460  26.116  54.698  1.00  0.00     0.280 HD
HETATM    3  C   UNL     1       7.133  27.646  53.482  1.00  0.00     0.236 C 
HETATM    4  C   UNL     1       5.995  28.633  53.711  1.00  0.00     0.040 C 
HETATM    5  C   UNL     1       4.753  28.319  52.872  1.00  0.00     0.058 C 
HETATM    6  C   UNL     1       4.316  26.876  53.137  1.00  0.00     0.040 C 
HETATM    7  C   UNL     1       5.432  25.863  52.910  1.00  0.00     0.236 C 
ENDROOT
BRANCH   1   8
HETATM    8  C   UNL     1       7.771  25.219  53.381  1.00  0.00     0.276 C 
BRANCH   8   9
HETATM    9  C   UNL     1       7.968  24.181  54.418  1.00  0.00     0.003 A 
HETATM   10  C   UNL     1       8.103  22.770  54.210  1.00  0.00     0.007 A 
HETATM   11  C   UNL     1       8.100  21.908  53.095  1.00  0.00     0.015 A 
HETATM   12  C   UNL     1       8.287  22.214  55.471  1.00  0.00     0.085 A 
HETATM   13  C   UNL     1       8.290  20.535  53.305  1.00  0.00     0.001 A 
HETATM   14  C   UNL     1       8.474  20.020  54.590  1.00  0.00     0.003 A 
HETATM   15  C   UNL     1       8.476  20.857  55.711  1.00  0.00     0.038 A 
HETATM   16  O   UNL     1       8.258  23.187  56.421  1.00  0.00    -0.321 OA
HETATM   17  C   UNL     1       8.050  24.366  55.784  1.00  0.00     0.152 A 
ENDBRANCH   8   9
ENDBRANCH   1   8
BRANCH   5  18
HETATM   18  C   UNL     1       5.022  28.550  51.415  1.00  0.00     0.108 A 
HETATM   19  N   UNL     1       4.687  27.734  50.438  1.00  0.00    -0.229 NA
HETATM   20  C   UNL     1       5.154  28.309  49.261  1.00  0.00     0.157 A 
HETATM   21  C   UNL     1       5.776  29.506  49.567  1.00  0.00     0.126 A 
HETATM   22  N   UNL     1       5.683  29.649  50.925  1.00  0.00    -0.352 N 
HETATM   23  H   UNL     1       6.049  30.423  51.467  1.00  0.00     0.166 HD
BRANCH  20  24
HETATM   24  C   UNL     1       4.978  27.656  47.916  1.00  0.00     0.436 C 
HETATM   25  F   UNL     1       4.915  26.299  48.015  1.00  0.00    -0.165 F 
HETATM   26  F   UNL     1       3.839  28.061  47.302  1.00  0.00    -0.165 F 
HETATM   27  F   UNL     1       6.010  27.939  47.080  1.00  0.00    -0.165 F 
ENDBRANCH  20  24
ENDBRANCH   5  18
TORSDOF 4
ENDMDL
MODEL 6
REMARK VINA RESULT:      -8.7      4.347      5.420
REMARK  4 active torsions:
REMARK  status: ('A' for Active; 'I' for Inactive)
REMARK    1  A    between atoms: C_7  and  C_8 
REMARK    2  A    between atoms: C_8  and  N_9 
REMARK    3  A    between atoms: C_13  and  C_14 
REMARK    4  A    between atoms: C_16  and  C_17 
ROOT
HETATM    1  N   UNL     1       6.225  26.089  55.646  1.00  0.00    -0.067 N 
HETATM    2  H   UNL     1       5.492  25.851  54.968  1.00  0.00     0.280 HD
HETATM    3  C   UNL     1       5.568  26.865  56.768  1.00  0.00     0.236 C 
HETATM    4  C   UNL     1       5.079  28.224  56.282  1.00  0.00     0.040 C 
HETATM    5  C   UNL     1       6.179  29.048  55.607  1.00  0.00     0.058 C 
HETATM    6  C   UNL     1       6.801  28.229  54.473  1.00  0.00     0.040 C 
HETATM    7  C   UNL     1       7.306  26.865  54.929  1.00  0.00     0.236 C 
ENDROOT
BRANCH   1   8
HETATM    8  C   UNL     1       6.804  24.770  56.140  1.00  0.00     0.276 C 
BRANCH   8   9
HETATM    9  C   UNL     1       7.100  23.796  55.065  1.00  0.00     0.003 A 
HETATM   10  C   UNL     1       7.726  22.515  55.212  1.00  0.00     0.007 A 
HETATM   11  C   UNL     1       8.248  21.762  56.282  1.00  0.00     0.015 A 
HETATM   12  C   UNL     1       7.769  21.964  53.936  1.00  0.00     0.085 A 
HETATM   13  C   UNL     1       8.779  20.492  56.017  1.00  0.00     0.001 A 
HETATM   14  C   UNL     1       8.800  19.975  54.720  1.00  0.00     0.003 A 
HETATM   15  C   UNL     1       8.291  20.707  53.642  1.00  0.00     0.038 A 
HETATM   16  O   UNL     1       7.229  22.825  53.034  1.00  0.00    -0.321 OA
HETATM   17  C   UNL     1       6.842  23.933  53.715  1.00  0.00     0.152 A 
ENDBRANCH   8   9
ENDBRANCH   1   8
BRANCH   5  18
HETATM   18  C   UNL     1       7.213  29.474  56.605  1.00  0.00     0.108 A 
HETATM   19  N   UNL     1       6.964  30.014  57.779  1.00  0.00    -0.229 NA
HETATM   20  C   UNL     1       8.197  30.289  58.361  1.00  0.00     0.157 A 
HETATM   21  C   UNL     1       9.197  29.885  57.495  1.00  0.00     0.126 A 
HETATM   22  N   UNL     1       8.565  29.370  56.395  1.00  0.00    -0.352 N 
HETATM   23  H   UNL     1       9.021  28.993  55.572  1.00  0.00     0.166 HD
BRANCH  20  24
HETATM   24  C   UNL     1       8.328  30.936  59.715  1.00  0.00     0.436 C 
HETATM   25  F   UNL     1       7.117  31.299  60.222  1.00  0.00    -0.165 F 
HETATM   26  F   UNL     1       8.902  30.105  60.619  1.00  0.00    -0.165 F 
HETATM   27  F   UNL     1       9.085  32.062  59.664  1.00  0.00    -0.165 F 
ENDBRANCH  20  24
ENDBRANCH   5  18
TORSDOF 4
ENDMDL
MODEL 7
REMARK VINA RESULT:      -8.7      4.311      7.226
REMARK  4 active torsions:
REMARK  status: ('A' for Active; 'I' for Inactive)
REMARK    1  A    between atoms: C_7  and  C_8 
REMARK    2  A    between atoms: C_8  and  N_9 
REMARK    3  A    between atoms: C_13  and  C_14 
REMARK    4  A    between atoms: C_16  and  C_17 
ROOT
HETATM    1  N   UNL     1       5.834  26.065  52.713  1.00  0.00    -0.067 N 
HETATM    2  H   UNL     1       5.408  26.992  52.815  1.00  0.00     0.280 HD
HETATM    3  C   UNL     1       5.150  25.141  53.698  1.00  0.00     0.236 C 
HETATM    4  C   UNL     1       5.483  25.529  55.134  1.00  0.00     0.040 C 
HETATM    5  C   UNL     1       6.989  25.605  55.399  1.00  0.00     0.058 C 
HETATM    6  C   UNL     1       7.632  26.559  54.389  1.00  0.00     0.040 C 
HETATM    7  C   UNL     1       7.323  26.195  52.942  1.00  0.00     0.236 C 
ENDROOT
BRANCH   1   8
HETATM    8  C   UNL     1       5.589  25.631  51.274  1.00  0.00     0.276 C 
BRANCH   8   9
HETATM    9  C   UNL     1       5.027  26.691  50.406  1.00  0.00     0.003 A 
HETATM   10  C   UNL     1       4.190  26.511  49.258  1.00  0.00     0.007 A 
HETATM   11  C   UNL     1       3.636  25.410  48.573  1.00  0.00     0.015 A 
HETATM   12  C   UNL     1       3.903  27.789  48.790  1.00  0.00     0.085 A 
HETATM   13  C   UNL     1       2.819  25.651  47.460  1.00  0.00     0.001 A 
HETATM   14  C   UNL     1       2.555  26.952  47.026  1.00  0.00     0.003 A 
HETATM   15  C   UNL     1       3.097  28.059  47.688  1.00  0.00     0.038 A 
HETATM   16  O   UNL     1       4.519  28.720  49.565  1.00  0.00    -0.321 OA
HETATM   17  C   UNL     1       5.207  28.055  50.526  1.00  0.00     0.152 A 
ENDBRANCH   8   9
ENDBRANCH   1   8
BRANCH   5  18
HETATM   18  C   UNL     1       7.610  24.242  55.336  1.00  0.00     0.108 A 
HETATM   19  N   UNL     1       7.487  23.304  56.251  1.00  0.00    -0.229 NA
HETATM   20  C   UNL     1       8.248  22.223  55.818  1.00  0.00     0.157 A 
HETATM   21  C   UNL     1       8.826  22.544  54.603  1.00  0.00     0.126 A 
HETATM   22  N   UNL     1       8.414  23.816  54.308  1.00  0.00    -0.352 N 
HETATM   23  H   UNL     1       8.671  24.346  53.484  1.00  0.00     0.166 HD
BRANCH  20  24
HETATM   24  C   UNL     1       8.374  20.952  56.615  1.00  0.00     0.436 C 
HETATM   25  F   UNL     1       8.275  21.181  57.954  1.00  0.00    -0.165 F 
HETATM   26  F   UNL     1       7.409  20.055  56.295  1.00  0.00    -0.165 F 
HETATM   27  F   UNL     1       9.572  20.346  56.409  1.00  0.00    -0.165 F 
ENDBRANCH  20  24
ENDBRANCH   5  18
TORSDOF 4
ENDMDL
MODEL 8
REMARK VINA RESULT:      -8.4      3.316      4.286
REMARK  4 active torsions:
REMARK  status: ('A' for Active; 'I' for Inactive)
REMARK    1  A    between atoms: C_7  and  C_8 
REMARK    2  A    between atoms: C_8  and  N_9 
REMARK    3  A    between atoms: C_13  and  C_14 
REMARK    4  A    between atoms: C_16  and  C_17 
ROOT
HETATM    1  N   UNL     1       7.235  26.134  55.679  1.00  0.00    -0.067 N 
HETATM    2  H   UNL     1       8.202  25.793  55.654  1.00  0.00     0.280 HD
HETATM    3  C   UNL     1       7.140  27.296  54.713  1.00  0.00     0.236 C 
HETATM    4  C   UNL     1       7.950  28.488  55.209  1.00  0.00     0.040 C 
HETATM    5  C   UNL     1       7.576  28.915  56.631  1.00  0.00     0.058 C 
HETATM    6  C   UNL     1       7.701  27.713  57.570  1.00  0.00     0.040 C 
HETATM    7  C   UNL     1       6.897  26.506  57.105  1.00  0.00     0.236 C 
ENDROOT
BRANCH   1   8
HETATM    8  C   UNL     1       6.353  24.971  55.245  1.00  0.00     0.276 C 
BRANCH   8   9
HETATM    9  C   UNL     1       7.005  24.032  54.303  1.00  0.00     0.003 A 
HETATM   10  C   UNL     1       7.482  22.713  54.594  1.00  0.00     0.007 A 
HETATM   11  C   UNL     1       7.528  21.882  55.731  1.00  0.00     0.015 A 
HETATM   12  C   UNL     1       7.991  22.220  53.398  1.00  0.00     0.085 A 
HETATM   13  C   UNL     1       8.076  20.598  55.606  1.00  0.00     0.001 A 
HETATM   14  C   UNL     1       8.574  20.142  54.384  1.00  0.00     0.003 A 
HETATM   15  C   UNL     1       8.542  20.951  53.243  1.00  0.00     0.038 A 
HETATM   16  O   UNL     1       7.867  23.152  52.416  1.00  0.00    -0.321 OA
HETATM   17  C   UNL     1       7.288  24.246  52.969  1.00  0.00     0.152 A 
ENDBRANCH   8   9
ENDBRANCH   1   8
BRANCH   5  18
HETATM   18  C   UNL     1       6.193  29.495  56.666  1.00  0.00     0.108 A 
HETATM   19  N   UNL     1       5.557  30.016  55.638  1.00  0.00    -0.229 NA
HETATM   20  C   UNL     1       4.330  30.465  56.114  1.00  0.00     0.157 A 
HETATM   21  C   UNL     1       4.249  30.186  57.467  1.00  0.00     0.126 A 
HETATM   22  N   UNL     1       5.426  29.572  57.802  1.00  0.00    -0.352 N 
HETATM   23  H   UNL     1       5.683  29.246  58.726  1.00  0.00     0.166 HD
BRANCH  20  24
HETATM   24  C   UNL     1       3.319  31.146  55.231  1.00  0.00     0.436 C 
HETATM   25  F   UNL     1       3.009  30.392  54.140  1.00  0.00    -0.165 F 
HETATM   26  F   UNL     1       2.157  31.390  55.886  1.00  0.00    -0.165 F 
HETATM   27  F   UNL     1       3.777  32.337  54.767  1.00  0.00    -0.165 F 
ENDBRANCH  20  24
ENDBRANCH   5  18
TORSDOF 4
ENDMDL
MODEL 9
REMARK VINA RESULT:      -8.3      3.384      6.274
REMARK  4 active torsions:
REMARK  status: ('A' for Active; 'I' for Inactive)
REMARK    1  A    between atoms: C_7  and  C_8 
REMARK    2  A    between atoms: C_8  and  N_9 
REMARK    3  A    between atoms: C_13  and  C_14 
REMARK    4  A    between atoms: C_16  and  C_17 
ROOT
HETATM    1  N   UNL     1       6.131  26.812  52.795  1.00  0.00    -0.067 N 
HETATM    2  H   UNL     1       5.930  27.033  51.813  1.00  0.00     0.280 HD
HETATM    3  C   UNL     1       7.589  26.412  52.879  1.00  0.00     0.236 C 
HETATM    4  C   UNL     1       7.837  25.092  52.159  1.00  0.00     0.040 C 
HETATM    5  C   UNL     1       6.923  23.964  52.647  1.00  0.00     0.058 C 
HETATM    6  C   UNL     1       5.464  24.410  52.529  1.00  0.00     0.040 C 
HETATM    7  C   UNL     1       5.181  25.725  53.244  1.00  0.00     0.236 C 
ENDROOT
BRANCH   1   8
HETATM    8  C   UNL     1       5.850  28.079  53.592  1.00  0.00     0.276 C 
BRANCH   8   9
HETATM    9  C   UNL     1       6.177  27.977  55.032  1.00  0.00     0.003 A 
HETATM   10  C   UNL     1       7.365  28.445  55.682  1.00  0.00     0.007 A 
HETATM   11  C   UNL     1       8.546  29.099  55.278  1.00  0.00     0.015 A 
HETATM   12  C   UNL     1       7.206  28.144  57.030  1.00  0.00     0.085 A 
HETATM   13  C   UNL     1       9.503  29.422  56.251  1.00  0.00     0.001 A 
HETATM   14  C   UNL     1       9.302  29.103  57.595  1.00  0.00     0.003 A 
HETATM   15  C   UNL     1       8.139  28.450  58.017  1.00  0.00     0.038 A 
HETATM   16  O   UNL     1       6.018  27.516  57.233  1.00  0.00    -0.321 OA
HETATM   17  C   UNL     1       5.409  27.403  56.027  1.00  0.00     0.152 A 
ENDBRANCH   8   9
ENDBRANCH   1   8
BRANCH   5  18
HETATM   18  C   UNL     1       7.264  23.573  54.053  1.00  0.00     0.108 A 
HETATM   19  N   UNL     1       7.630  22.370  54.444  1.00  0.00    -0.229 NA
HETATM   20  C   UNL     1       7.811  22.436  55.821  1.00  0.00     0.157 A 
HETATM   21  C   UNL     1       7.549  23.728  56.243  1.00  0.00     0.126 A 
HETATM   22  N   UNL     1       7.209  24.435  55.120  1.00  0.00    -0.352 N 
HETATM   23  H   UNL     1       6.953  25.415  55.091  1.00  0.00     0.166 HD
BRANCH  20  24
HETATM   24  C   UNL     1       8.216  21.242  56.643  1.00  0.00     0.436 C 
HETATM   25  F   UNL     1       9.445  20.776  56.288  1.00  0.00    -0.165 F 
HETATM   26  F   UNL     1       8.271  21.532  57.966  1.00  0.00    -0.165 F 
HETATM   27  F   UNL     1       7.347  20.209  56.492  1.00  0.00    -0.165 F 
ENDBRANCH  20  24
ENDBRANCH   5  18
TORSDOF 4
ENDMDL
MODEL 10
REMARK VINA RESULT:      -8.2      2.902      4.486
REMARK  4 active torsions:
REMARK  status: ('A' for Active; 'I' for Inactive)
REMARK    1  A    between atoms: C_7  and  C_8 
REMARK    2  A    between atoms: C_8  and  N_9 
REMARK    3  A    between atoms: C_13  and  C_14 
REMARK    4  A    between atoms: C_16  and  C_17 
ROOT
HETATM    1  N   UNL     1       6.520  25.843  52.025  1.00  0.00    -0.067 N 
HETATM    2  H   UNL     1       6.204  25.926  51.052  1.00  0.00     0.280 HD
HETATM    3  C   UNL     1       5.325  25.424  52.854  1.00  0.00     0.236 C 
HETATM    4  C   UNL     1       4.283  26.535  52.913  1.00  0.00     0.040 C 
HETATM    5  C   UNL     1       4.857  27.868  53.401  1.00  0.00     0.058 C 
HETATM    6  C   UNL     1       6.051  28.254  52.525  1.00  0.00     0.040 C 
HETATM    7  C   UNL     1       7.115  27.166  52.450  1.00  0.00     0.236 C 
ENDROOT
BRANCH   1   8
HETATM    8  C   UNL     1       7.611  24.780  52.037  1.00  0.00     0.276 C 
BRANCH   8   9
HETATM    9  C   UNL     1       7.826  24.144  53.357  1.00  0.00     0.003 A 
HETATM   10  C   UNL     1       7.956  22.743  53.627  1.00  0.00     0.007 A 
HETATM   11  C   UNL     1       7.934  21.560  52.862  1.00  0.00     0.015 A 
HETATM   12  C   UNL     1       8.163  22.637  54.998  1.00  0.00     0.085 A 
HETATM   13  C   UNL     1       8.127  20.333  53.512  1.00  0.00     0.001 A 
HETATM   14  C   UNL     1       8.334  20.273  54.892  1.00  0.00     0.003 A 
HETATM   15  C   UNL     1       8.356  21.434  55.671  1.00  0.00     0.038 A 
HETATM   16  O   UNL     1       8.151  23.869  55.571  1.00  0.00    -0.321 OA
HETATM   17  C   UNL     1       7.931  24.772  54.582  1.00  0.00     0.152 A 
ENDBRANCH   8   9
ENDBRANCH   1   8
BRANCH   5  18
HETATM   18  C   UNL     1       5.244  27.784  54.847  1.00  0.00     0.108 A 
HETATM   19  N   UNL     1       6.471  27.880  55.316  1.00  0.00    -0.229 NA
HETATM   20  C   UNL     1       6.386  27.710  56.693  1.00  0.00     0.157 A 
HETATM   21  C   UNL     1       5.059  27.517  57.036  1.00  0.00     0.126 A 
HETATM   22  N   UNL     1       4.350  27.569  55.866  1.00  0.00    -0.352 N 
HETATM   23  H   UNL     1       3.347  27.457  55.775  1.00  0.00     0.166 HD
BRANCH  20  24
HETATM   24  C   UNL     1       7.596  27.734  57.589  1.00  0.00     0.436 C 
HETATM   25  F   UNL     1       8.753  27.814  56.875  1.00  0.00    -0.165 F 
HETATM   26  F   UNL     1       7.579  28.795  58.434  1.00  0.00    -0.165 F 
HETATM   27  F   UNL     1       7.682  26.613  58.350  1.00  0.00    -0.165 F 
ENDBRANCH  20  24
ENDBRANCH   5  18
TORSDOF 4
ENDMDL
