MODEL 1
REMARK VINA RESULT:      -8.9      0.000      0.000
REMARK  3 active torsions:
REMARK  status: ('A' for Active; 'I' for Inactive)
REMARK    1  A    between atoms: C_6  and  N_7 
REMARK       I    between atoms: N_7  and  C_8 
REMARK    2  A    between atoms: C_8  and  C_9 
REMARK    3  A    between atoms: C_9  and  C_10 
ROOT
HETATM    1  C   UNL     1       7.647  25.716  56.645  1.00  0.00     0.286 C 
HETATM    2  N   UNL     1       6.443  25.282  55.815  1.00  0.00    -0.056 N 
HETATM    3  H   UNL     1       5.744  24.941  56.510  1.00  0.00     0.278 HD
HETATM    4  H   UNL     1       6.005  26.082  55.346  1.00  0.00     0.278 HD
HETATM    5  C   UNL     1       6.711  24.161  54.850  1.00  0.00     0.209 C 
HETATM    6  C   UNL     1       7.371  22.976  55.600  1.00  0.00     0.115 C 
HETATM    7  N   UNL     1       8.488  23.386  56.450  1.00  0.00    -0.353 N 
HETATM    8  C   UNL     1       8.463  24.534  57.205  1.00  0.00     0.249 C 
HETATM    9  O   UNL     1       9.153  24.621  58.215  1.00  0.00    -0.271 OA
HETATM   10  C   UNL     1       7.539  24.674  53.670  1.00  0.00     0.035 C 
HETATM   11  C   UNL     1       7.907  23.537  52.723  1.00  0.00     0.002 C 
HETATM   12  C   UNL     1       8.633  22.415  53.459  1.00  0.00     0.002 C 
HETATM   13  C   UNL     1       7.802  21.876  54.623  1.00  0.00     0.027 C 
HETATM   14  H   UNL     1       9.025  22.648  56.904  1.00  0.00     0.163 HD
ENDROOT
BRANCH   1  15
HETATM   15  C   UNL     1       7.245  26.700  57.754  1.00  0.00     0.146 C 
BRANCH  15  16
HETATM   16  C   UNL     1       6.453  27.859  57.210  1.00  0.00     0.224 C 
HETATM   17  N   UNL     1       6.978  29.100  57.047  1.00  0.00    -0.327 N 
HETATM   18  H   UNL     1       6.282  29.747  56.684  1.00  0.00     0.169 HD
HETATM   19  O   UNL     1       5.293  27.650  56.823  1.00  0.00    -0.273 OA
BRANCH  17  20
HETATM   20  C   UNL     1       8.251  29.669  57.259  1.00  0.00     0.037 A 
HETATM   21  C   UNL     1       8.591  30.566  58.270  1.00  0.00     0.071 A 
HETATM   22  C   UNL     1       9.897  31.052  58.365  1.00  0.00     0.118 A 
HETATM   23  C   UNL     1      10.887  30.658  57.478  1.00  0.00     0.042 A 
HETATM   24  F   UNL     1      10.195  31.918  59.343  1.00  0.00    -0.206 F 
HETATM   25  C   UNL     1      10.567  29.756  56.472  1.00  0.00     0.005 A 
HETATM   26  C   UNL     1       9.260  29.268  56.366  1.00  0.00     0.029 A 
ENDBRANCH  17  20
ENDBRANCH  15  16
ENDBRANCH   1  15
TORSDOF 3
ENDMDL
MODEL 2
REMARK VINA RESULT:      -8.8      1.513      1.977
REMARK  3 active torsions:
REMARK  status: ('A' for Active; 'I' for Inactive)
REMARK    1  A    between atoms: C_6  and  N_7 
REMARK       I    between atoms: N_7  and  C_8 
REMARK    2  A    between atoms: C_8  and  C_9 
REMARK    3  A    between atoms: C_9  and  C_10 
ROOT
HETATM    1  C   UNL     1       7.964  24.877  55.558  1.00  0.00     0.286 C 
HETATM    2  N   UNL     1       6.820  24.208  54.803  1.00  0.00    -0.056 N 
HETATM    3  H   UNL     1       6.012  24.229  55.463  1.00  0.00     0.278 HD
HETATM    4  H   UNL     1       6.532  24.764  53.991  1.00  0.00     0.278 HD
HETATM    5  C   UNL     1       7.062  22.773  54.428  1.00  0.00     0.209 C 
HETATM    6  C   UNL     1       7.492  21.972  55.684  1.00  0.00     0.115 C 
HETATM    7  N   UNL     1       8.546  22.633  56.452  1.00  0.00    -0.353 N 
HETATM    8  C   UNL     1       8.569  23.991  56.665  1.00  0.00     0.249 C 
HETATM    9  O   UNL     1       9.146  24.450  57.645  1.00  0.00    -0.271 OA
HETATM   10  C   UNL     1       8.072  22.697  53.281  1.00  0.00     0.035 C 
HETATM   11  C   UNL     1       8.411  21.249  52.943  1.00  0.00     0.002 C 
HETATM   12  C   UNL     1       8.914  20.496  54.170  1.00  0.00     0.002 C 
HETATM   13  C   UNL     1       7.900  20.542  55.314  1.00  0.00     0.027 C 
HETATM   14  H   UNL     1       8.939  22.122  57.242  1.00  0.00     0.163 HD
ENDROOT
BRANCH   1  15
HETATM   15  C   UNL     1       7.556  26.256  56.099  1.00  0.00     0.146 C 
BRANCH  15  16
HETATM   16  C   UNL     1       7.521  27.294  55.009  1.00  0.00     0.224 C 
HETATM   17  N   UNL     1       8.042  28.538  55.157  1.00  0.00    -0.327 N 
HETATM   18  H   UNL     1       7.905  29.095  54.317  1.00  0.00     0.169 HD
HETATM   19  O   UNL     1       7.063  26.970  53.902  1.00  0.00    -0.273 OA
BRANCH  17  20
HETATM   20  C   UNL     1       8.724  29.206  56.196  1.00  0.00     0.037 A 
HETATM   21  C   UNL     1      10.098  29.422  56.270  1.00  0.00     0.071 A 
HETATM   22  C   UNL     1      10.642  30.104  57.362  1.00  0.00     0.118 A 
HETATM   23  C   UNL     1       9.845  30.590  58.386  1.00  0.00     0.042 A 
HETATM   24  F   UNL     1      11.967  30.293  57.410  1.00  0.00    -0.206 F 
HETATM   25  C   UNL     1       8.472  30.394  58.322  1.00  0.00     0.005 A 
HETATM   26  C   UNL     1       7.919  29.707  57.235  1.00  0.00     0.029 A 
ENDBRANCH  17  20
ENDBRANCH  15  16
ENDBRANCH   1  15
TORSDOF 3
ENDMDL
MODEL 3
REMARK VINA RESULT:      -8.5      4.291      6.807
REMARK  3 active torsions:
REMARK  status: ('A' for Active; 'I' for Inactive)
REMARK    1  A    between atoms: C_6  and  N_7 
REMARK       I    between atoms: N_7  and  C_8 
REMARK    2  A    between atoms: C_8  and  C_9 
REMARK    3  A    between atoms: C_9  and  C_10 
ROOT
HETATM    1  C   UNL     1       5.906  25.485  55.197  1.00  0.00     0.286 C 
HETATM    2  N   UNL     1       6.956  25.459  54.091  1.00  0.00    -0.056 N 
HETATM    3  H   UNL     1       7.813  25.870  54.523  1.00  0.00     0.278 HD
HETATM    4  H   UNL     1       7.205  24.498  53.835  1.00  0.00     0.278 HD
HETATM    5  C   UNL     1       6.619  26.281  52.879  1.00  0.00     0.209 C 
HETATM    6  C   UNL     1       6.253  27.723  53.313  1.00  0.00     0.115 C 
HETATM    7  N   UNL     1       5.293  27.763  54.415  1.00  0.00    -0.353 N 
HETATM    8  C   UNL     1       5.349  26.895  55.480  1.00  0.00     0.249 C 
HETATM    9  O   UNL     1       4.872  27.217  56.562  1.00  0.00    -0.271 OA
HETATM   10  C   UNL     1       5.521  25.589  52.069  1.00  0.00     0.035 C 
HETATM   11  C   UNL     1       5.091  26.447  50.883  1.00  0.00     0.002 C 
HETATM   12  C   UNL     1       4.650  27.836  51.335  1.00  0.00     0.002 C 
HETATM   13  C   UNL     1       5.751  28.547  52.122  1.00  0.00     0.027 C 
HETATM   14  H   UNL     1       4.939  28.677  54.694  1.00  0.00     0.163 HD
ENDROOT
BRANCH   1  15
HETATM   15  C   UNL     1       6.418  24.813  56.481  1.00  0.00     0.146 C 
BRANCH  15  16
HETATM   16  C   UNL     1       7.908  24.972  56.635  1.00  0.00     0.224 C 
HETATM   17  N   UNL     1       8.792  23.996  56.306  1.00  0.00    -0.327 N 
HETATM   18  H   UNL     1       9.747  24.287  56.499  1.00  0.00     0.169 HD
HETATM   19  O   UNL     1       8.348  26.069  57.009  1.00  0.00    -0.273 OA
BRANCH  17  20
HETATM   20  C   UNL     1       8.675  22.701  55.759  1.00  0.00     0.037 A 
HETATM   21  C   UNL     1       8.828  22.359  54.418  1.00  0.00     0.071 A 
HETATM   22  C   UNL     1       8.686  21.029  54.013  1.00  0.00     0.118 A 
HETATM   23  C   UNL     1       8.402  20.020  54.918  1.00  0.00     0.042 A 
HETATM   24  F   UNL     1       8.834  20.730  52.715  1.00  0.00    -0.206 F 
HETATM   25  C   UNL     1       8.258  20.341  56.261  1.00  0.00     0.005 A 
HETATM   26  C   UNL     1       8.393  21.671  56.675  1.00  0.00     0.029 A 
ENDBRANCH  17  20
ENDBRANCH  15  16
ENDBRANCH   1  15
TORSDOF 3
ENDMDL
MODEL 4
REMARK VINA RESULT:      -8.4      4.843      7.583
REMARK  3 active torsions:
REMARK  status: ('A' for Active; 'I' for Inactive)
REMARK    1  A    between atoms: C_6  and  N_7 
REMARK       I    between atoms: N_7  and  C_8 
REMARK    2  A    between atoms: C_8  and  C_9 
REMARK    3  A    between atoms: C_9  and  C_10 
ROOT
HETATM    1  C   UNL     1       4.898  26.017  52.617  1.00  0.00     0.286 C 
HETATM    2  N   UNL     1       5.824  25.971  51.406  1.00  0.00    -0.056 N 
HETATM    3  H   UNL     1       6.684  26.482  51.703  1.00  0.00     0.278 HD
HETATM    4  H   UNL     1       6.125  25.012  51.202  1.00  0.00     0.278 HD
HETATM    5  C   UNL     1       5.292  26.653  50.176  1.00  0.00     0.209 C 
HETATM    6  C   UNL     1       4.852  28.096  50.531  1.00  0.00     0.115 C 
HETATM    7  N   UNL     1       4.015  28.163  51.727  1.00  0.00    -0.353 N 
HETATM    8  C   UNL     1       4.257  27.400  52.846  1.00  0.00     0.249 C 
HETATM    9  O   UNL     1       3.871  27.782  53.945  1.00  0.00    -0.271 OA
HETATM   10  C   UNL     1       4.177  25.810  49.554  1.00  0.00     0.035 C 
HETATM   11  C   UNL     1       3.553  26.523  48.359  1.00  0.00     0.002 C 
HETATM   12  C   UNL     1       3.046  27.910  48.743  1.00  0.00     0.002 C 
HETATM   13  C   UNL     1       4.160  28.770  49.341  1.00  0.00     0.027 C 
HETATM   14  H   UNL     1       3.616  29.069  51.969  1.00  0.00     0.163 HD
ENDROOT
BRANCH   1  15
HETATM   15  C   UNL     1       5.598  25.504  53.885  1.00  0.00     0.146 C 
BRANCH  15  16
HETATM   16  C   UNL     1       7.078  25.778  53.853  1.00  0.00     0.224 C 
HETATM   17  N   UNL     1       8.012  24.802  53.984  1.00  0.00    -0.327 N 
HETATM   18  H   UNL     1       8.953  25.189  53.953  1.00  0.00     0.169 HD
HETATM   19  O   UNL     1       7.458  26.935  53.620  1.00  0.00    -0.273 OA
BRANCH  17  20
HETATM   20  C   UNL     1       7.962  23.401  54.143  1.00  0.00     0.037 A 
HETATM   21  C   UNL     1       7.846  22.715  55.349  1.00  0.00     0.071 A 
HETATM   22  C   UNL     1       7.806  21.318  55.360  1.00  0.00     0.118 A 
HETATM   23  C   UNL     1       7.868  20.580  54.189  1.00  0.00     0.042 A 
HETATM   24  F   UNL     1       7.701  20.684  56.536  1.00  0.00    -0.206 F 
HETATM   25  C   UNL     1       7.971  21.248  52.977  1.00  0.00     0.005 A 
HETATM   26  C   UNL     1       8.018  22.647  52.957  1.00  0.00     0.029 A 
ENDBRANCH  17  20
ENDBRANCH  15  16
ENDBRANCH   1  15
TORSDOF 3
ENDMDL
MODEL 5
REMARK VINA RESULT:      -8.4      3.018      7.103
REMARK  3 active torsions:
REMARK  status: ('A' for Active; 'I' for Inactive)
REMARK    1  A    between atoms: C_6  and  N_7 
REMARK       I    between atoms: N_7  and  C_8 
REMARK    2  A    between atoms: C_8  and  C_9 
REMARK    3  A    between atoms: C_9  and  C_10 
ROOT
HETATM    1  C   UNL     1       6.752  26.562  55.991  1.00  0.00     0.286 C 
HETATM    2  N   UNL     1       6.749  27.924  55.303  1.00  0.00    -0.056 N 
HETATM    3  H   UNL     1       7.415  27.825  54.506  1.00  0.00     0.278 HD
HETATM    4  H   UNL     1       5.836  28.128  54.882  1.00  0.00     0.278 HD
HETATM    5  C   UNL     1       7.227  29.065  56.156  1.00  0.00     0.209 C 
HETATM    6  C   UNL     1       8.607  28.714  56.769  1.00  0.00     0.115 C 
HETATM    7  N   UNL     1       8.643  27.385  57.377  1.00  0.00    -0.353 N 
HETATM    8  C   UNL     1       8.029  26.293  56.811  1.00  0.00     0.249 C 
HETATM    9  O   UNL     1       8.439  25.163  57.053  1.00  0.00    -0.271 OA
HETATM   10  C   UNL     1       6.166  29.415  57.202  1.00  0.00     0.035 C 
HETATM   11  C   UNL     1       6.663  30.507  58.144  1.00  0.00     0.002 C 
HETATM   12  C   UNL     1       7.979  30.110  58.806  1.00  0.00     0.002 C 
HETATM   13  C   UNL     1       9.055  29.785  57.769  1.00  0.00     0.027 C 
HETATM   14  H   UNL     1       9.492  27.123  57.877  1.00  0.00     0.163 HD
ENDROOT
BRANCH   1  15
HETATM   15  C   UNL     1       6.469  25.425  54.997  1.00  0.00     0.146 C 
BRANCH  15  16
HETATM   16  C   UNL     1       7.436  25.443  53.842  1.00  0.00     0.224 C 
HETATM   17  N   UNL     1       8.155  24.355  53.465  1.00  0.00    -0.327 N 
HETATM   18  H   UNL     1       8.762  24.573  52.678  1.00  0.00     0.169 HD
HETATM   19  O   UNL     1       7.520  26.475  53.160  1.00  0.00    -0.273 OA
BRANCH  17  20
HETATM   20  C   UNL     1       8.234  23.020  53.913  1.00  0.00     0.037 A 
HETATM   21  C   UNL     1       8.644  22.601  55.176  1.00  0.00     0.071 A 
HETATM   22  C   UNL     1       8.674  21.239  55.487  1.00  0.00     0.118 A 
HETATM   23  C   UNL     1       8.293  20.274  54.568  1.00  0.00     0.042 A 
HETATM   24  F   UNL     1       9.078  20.864  56.709  1.00  0.00    -0.206 F 
HETATM   25  C   UNL     1       7.870  20.676  53.308  1.00  0.00     0.005 A 
HETATM   26  C   UNL     1       7.843  22.037  52.985  1.00  0.00     0.029 A 
ENDBRANCH  17  20
ENDBRANCH  15  16
ENDBRANCH   1  15
TORSDOF 3
ENDMDL
MODEL 6
REMARK VINA RESULT:      -8.3      2.836      6.867
REMARK  3 active torsions:
REMARK  status: ('A' for Active; 'I' for Inactive)
REMARK    1  A    between atoms: C_6  and  N_7 
REMARK       I    between atoms: N_7  and  C_8 
REMARK    2  A    between atoms: C_8  and  C_9 
REMARK    3  A    between atoms: C_9  and  C_10 
ROOT
HETATM    1  C   UNL     1       7.200  28.557  55.589  1.00  0.00     0.286 C 
HETATM    2  N   UNL     1       8.111  27.758  56.515  1.00  0.00    -0.056 N 
HETATM    3  H   UNL     1       7.465  27.225  57.136  1.00  0.00     0.278 HD
HETATM    4  H   UNL     1       8.646  27.053  55.996  1.00  0.00     0.278 HD
HETATM    5  C   UNL     1       9.005  28.588  57.393  1.00  0.00     0.209 C 
HETATM    6  C   UNL     1       8.156  29.636  58.157  1.00  0.00     0.115 C 
HETATM    7  N   UNL     1       7.231  30.367  57.291  1.00  0.00    -0.353 N 
HETATM    8  C   UNL     1       6.526  29.759  56.279  1.00  0.00     0.249 C 
HETATM    9  O   UNL     1       5.466  30.239  55.895  1.00  0.00    -0.271 OA
HETATM   10  C   UNL     1      10.130  29.205  56.559  1.00  0.00     0.035 C 
HETATM   11  C   UNL     1      10.997  30.130  57.406  1.00  0.00     0.002 C 
HETATM   12  C   UNL     1      10.159  31.209  58.083  1.00  0.00     0.002 C 
HETATM   13  C   UNL     1       9.048  30.604  58.942  1.00  0.00     0.027 C 
HETATM   14  H   UNL     1       6.705  31.132  57.710  1.00  0.00     0.163 HD
ENDROOT
BRANCH   1  15
HETATM   15  C   UNL     1       6.167  27.654  54.894  1.00  0.00     0.146 C 
BRANCH  15  16
HETATM   16  C   UNL     1       5.565  26.660  55.851  1.00  0.00     0.224 C 
HETATM   17  N   UNL     1       5.851  25.334  55.815  1.00  0.00    -0.327 N 
HETATM   18  H   UNL     1       5.333  24.828  56.528  1.00  0.00     0.169 HD
HETATM   19  O   UNL     1       4.834  27.084  56.758  1.00  0.00    -0.273 OA
BRANCH  17  20
HETATM   20  C   UNL     1       6.698  24.528  55.026  1.00  0.00     0.037 A 
HETATM   21  C   UNL     1       7.843  23.866  55.463  1.00  0.00     0.071 A 
HETATM   22  C   UNL     1       8.592  23.095  54.570  1.00  0.00     0.118 A 
HETATM   23  C   UNL     1       8.222  22.956  53.242  1.00  0.00     0.042 A 
HETATM   24  F   UNL     1       9.692  22.474  55.017  1.00  0.00    -0.206 F 
HETATM   25  C   UNL     1       7.077  23.600  52.792  1.00  0.00     0.005 A 
HETATM   26  C   UNL     1       6.324  24.378  53.678  1.00  0.00     0.029 A 
ENDBRANCH  17  20
ENDBRANCH  15  16
ENDBRANCH   1  15
TORSDOF 3
ENDMDL
MODEL 7
REMARK VINA RESULT:      -8.3      4.779      7.474
REMARK  3 active torsions:
REMARK  status: ('A' for Active; 'I' for Inactive)
REMARK    1  A    between atoms: C_6  and  N_7 
REMARK       I    between atoms: N_7  and  C_8 
REMARK    2  A    between atoms: C_8  and  C_9 
REMARK    3  A    between atoms: C_9  and  C_10 
ROOT
HETATM    1  C   UNL     1       5.985  25.998  53.254  1.00  0.00     0.286 C 
HETATM    2  N   UNL     1       4.560  26.528  53.134  1.00  0.00    -0.056 N 
HETATM    3  H   UNL     1       3.973  25.685  52.951  1.00  0.00     0.278 HD
HETATM    4  H   UNL     1       4.228  26.913  54.025  1.00  0.00     0.278 HD
HETATM    5  C   UNL     1       4.337  27.492  52.002  1.00  0.00     0.209 C 
HETATM    6  C   UNL     1       4.851  26.869  50.679  1.00  0.00     0.115 C 
HETATM    7  N   UNL     1       6.193  26.300  50.797  1.00  0.00    -0.353 N 
HETATM    8  C   UNL     1       6.605  25.594  51.902  1.00  0.00     0.249 C 
HETATM    9  O   UNL     1       7.503  24.764  51.802  1.00  0.00    -0.271 OA
HETATM   10  C   UNL     1       4.980  28.841  52.332  1.00  0.00     0.035 C 
HETATM   11  C   UNL     1       4.852  29.810  51.161  1.00  0.00     0.002 C 
HETATM   12  C   UNL     1       5.441  29.217  49.885  1.00  0.00     0.002 C 
HETATM   13  C   UNL     1       4.787  27.882  49.531  1.00  0.00     0.027 C 
HETATM   14  H   UNL     1       6.630  25.953  49.944  1.00  0.00     0.163 HD
ENDROOT
BRANCH   1  15
HETATM   15  C   UNL     1       6.080  24.858  54.281  1.00  0.00     0.146 C 
BRANCH  15  16
HETATM   16  C   UNL     1       7.220  25.068  55.242  1.00  0.00     0.224 C 
HETATM   17  N   UNL     1       8.078  24.078  55.596  1.00  0.00    -0.327 N 
HETATM   18  H   UNL     1       8.767  24.413  56.266  1.00  0.00     0.169 HD
HETATM   19  O   UNL     1       7.428  26.214  55.668  1.00  0.00    -0.273 OA
BRANCH  17  20
HETATM   20  C   UNL     1       8.223  22.721  55.239  1.00  0.00     0.037 A 
HETATM   21  C   UNL     1       8.336  22.221  53.944  1.00  0.00     0.071 A 
HETATM   22  C   UNL     1       8.476  20.847  53.733  1.00  0.00     0.118 A 
HETATM   23  C   UNL     1       8.518  19.950  54.788  1.00  0.00     0.042 A 
HETATM   24  F   UNL     1       8.577  20.393  52.476  1.00  0.00    -0.206 F 
HETATM   25  C   UNL     1       8.418  20.433  56.086  1.00  0.00     0.005 A 
HETATM   26  C   UNL     1       8.272  21.807  56.307  1.00  0.00     0.029 A 
ENDBRANCH  17  20
ENDBRANCH  15  16
ENDBRANCH   1  15
TORSDOF 3
ENDMDL
MODEL 8
REMARK VINA RESULT:      -8.1      5.072      6.830
REMARK  3 active torsions:
REMARK  status: ('A' for Active; 'I' for Inactive)
REMARK    1  A    between atoms: C_6  and  N_7 
REMARK       I    between atoms: N_7  and  C_8 
REMARK    2  A    between atoms: C_8  and  C_9 
REMARK    3  A    between atoms: C_9  and  C_10 
ROOT
HETATM    1  C   UNL     1       6.706  26.827  53.071  1.00  0.00     0.286 C 
HETATM    2  N   UNL     1       5.877  25.586  52.759  1.00  0.00    -0.056 N 
HETATM    3  H   UNL     1       4.942  25.771  53.184  1.00  0.00     0.278 HD
HETATM    4  H   UNL     1       5.713  25.490  51.751  1.00  0.00     0.278 HD
HETATM    5  C   UNL     1       6.401  24.309  53.353  1.00  0.00     0.209 C 
HETATM    6  C   UNL     1       6.633  24.499  54.874  1.00  0.00     0.115 C 
HETATM    7  N   UNL     1       7.373  25.719  55.193  1.00  0.00    -0.353 N 
HETATM    8  C   UNL     1       7.153  26.911  54.544  1.00  0.00     0.249 C 
HETATM    9  O   UNL     1       7.413  27.972  55.102  1.00  0.00    -0.271 OA
HETATM   10  C   UNL     1       7.653  23.856  52.597  1.00  0.00     0.035 C 
HETATM   11  C   UNL     1       8.262  22.614  53.239  1.00  0.00     0.002 C 
HETATM   12  C   UNL     1       8.565  22.845  54.716  1.00  0.00     0.002 C 
HETATM   13  C   UNL     1       7.315  23.271  55.487  1.00  0.00     0.027 C 
HETATM   14  H   UNL     1       7.638  25.864  56.167  1.00  0.00     0.163 HD
ENDROOT
BRANCH   1  15
HETATM   15  C   UNL     1       5.991  28.113  52.625  1.00  0.00     0.146 C 
BRANCH  15  16
HETATM   16  C   UNL     1       4.501  27.917  52.534  1.00  0.00     0.224 C 
HETATM   17  N   UNL     1       3.834  27.862  51.354  1.00  0.00    -0.327 N 
HETATM   18  H   UNL     1       2.835  27.743  51.503  1.00  0.00     0.169 HD
HETATM   19  O   UNL     1       3.868  27.723  53.583  1.00  0.00    -0.273 OA
BRANCH  17  20
HETATM   20  C   UNL     1       4.219  27.924  49.998  1.00  0.00     0.037 A 
HETATM   21  C   UNL     1       4.425  29.084  49.255  1.00  0.00     0.071 A 
HETATM   22  C   UNL     1       4.808  28.999  47.914  1.00  0.00     0.118 A 
HETATM   23  C   UNL     1       5.004  27.778  47.290  1.00  0.00     0.042 A 
HETATM   24  F   UNL     1       4.993  30.131  47.222  1.00  0.00    -0.206 F 
HETATM   25  C   UNL     1       4.815  26.611  48.019  1.00  0.00     0.005 A 
HETATM   26  C   UNL     1       4.426  26.687  49.361  1.00  0.00     0.029 A 
ENDBRANCH  17  20
ENDBRANCH  15  16
ENDBRANCH   1  15
TORSDOF 3
ENDMDL
MODEL 9
REMARK VINA RESULT:      -8.1      2.395      3.186
REMARK  3 active torsions:
REMARK  status: ('A' for Active; 'I' for Inactive)
REMARK    1  A    between atoms: C_6  and  N_7 
REMARK       I    between atoms: N_7  and  C_8 
REMARK    2  A    between atoms: C_8  and  C_9 
REMARK    3  A    between atoms: C_9  and  C_10 
ROOT
HETATM    1  C   UNL     1       7.927  27.355  56.471  1.00  0.00     0.286 C 
HETATM    2  N   UNL     1       6.836  27.617  55.438  1.00  0.00    -0.056 N 
HETATM    3  H   UNL     1       5.953  27.688  55.990  1.00  0.00     0.278 HD
HETATM    4  H   UNL     1       6.959  28.531  54.989  1.00  0.00     0.278 HD
HETATM    5  C   UNL     1       6.651  26.526  54.422  1.00  0.00     0.209 C 
HETATM    6  C   UNL     1       6.467  25.167  55.144  1.00  0.00     0.115 C 
HETATM    7  N   UNL     1       7.470  24.929  56.182  1.00  0.00    -0.353 N 
HETATM    8  C   UNL     1       7.908  25.918  57.031  1.00  0.00     0.249 C 
HETATM    9  O   UNL     1       8.357  25.627  58.134  1.00  0.00    -0.271 OA
HETATM   10  C   UNL     1       7.815  26.536  53.428  1.00  0.00     0.035 C 
HETATM   11  C   UNL     1       7.703  25.379  52.441  1.00  0.00     0.002 C 
HETATM   12  C   UNL     1       7.610  24.040  53.166  1.00  0.00     0.002 C 
HETATM   13  C   UNL     1       6.433  24.009  54.141  1.00  0.00     0.027 C 
HETATM   14  H   UNL     1       7.463  24.018  56.637  1.00  0.00     0.163 HD
ENDROOT
BRANCH   1  15
HETATM   15  C   UNL     1       7.902  28.399  57.599  1.00  0.00     0.146 C 
BRANCH  15  16
HETATM   16  C   UNL     1       9.114  29.293  57.556  1.00  0.00     0.224 C 
HETATM   17  N   UNL     1       9.303  30.321  58.421  1.00  0.00    -0.327 N 
HETATM   18  H   UNL     1      10.170  30.814  58.219  1.00  0.00     0.169 HD
HETATM   19  O   UNL     1      10.012  29.029  56.742  1.00  0.00    -0.273 OA
BRANCH  17  20
HETATM   20  C   UNL     1       8.580  30.835  59.518  1.00  0.00     0.037 A 
HETATM   21  C   UNL     1       8.893  30.655  60.864  1.00  0.00     0.071 A 
HETATM   22  C   UNL     1       8.086  31.225  61.852  1.00  0.00     0.118 A 
HETATM   23  C   UNL     1       6.972  31.985  61.533  1.00  0.00     0.042 A 
HETATM   24  F   UNL     1       8.407  31.032  63.139  1.00  0.00    -0.206 F 
HETATM   25  C   UNL     1       6.653  32.183  60.197  1.00  0.00     0.005 A 
HETATM   26  C   UNL     1       7.451  31.611  59.200  1.00  0.00     0.029 A 
ENDBRANCH  17  20
ENDBRANCH  15  16
ENDBRANCH   1  15
TORSDOF 3
ENDMDL
MODEL 10
REMARK VINA RESULT:      -8.1      6.019      8.120
REMARK  3 active torsions:
REMARK  status: ('A' for Active; 'I' for Inactive)
REMARK    1  A    between atoms: C_6  and  N_7 
REMARK       I    between atoms: N_7  and  C_8 
REMARK    2  A    between atoms: C_8  and  C_9 
REMARK    3  A    between atoms: C_9  and  C_10 
ROOT
HETATM    1  C   UNL     1       5.556  27.352  52.347  1.00  0.00     0.286 C 
HETATM    2  N   UNL     1       5.041  25.954  52.021  1.00  0.00    -0.056 N 
HETATM    3  H   UNL     1       4.057  25.941  52.368  1.00  0.00     0.278 HD
HETATM    4  H   UNL     1       4.982  25.804  51.008  1.00  0.00     0.278 HD
HETATM    5  C   UNL     1       5.777  24.834  52.700  1.00  0.00     0.209 C 
HETATM    6  C   UNL     1       5.840  25.101  54.225  1.00  0.00     0.115 C 
HETATM    7  N   UNL     1       6.272  26.459  54.552  1.00  0.00    -0.353 N 
HETATM    8  C   UNL     1       5.854  27.561  53.844  1.00  0.00     0.249 C 
HETATM    9  O   UNL     1       5.835  28.664  54.380  1.00  0.00    -0.271 OA
HETATM   10  C   UNL     1       7.153  24.648  52.056  1.00  0.00     0.035 C 
HETATM   11  C   UNL     1       7.962  23.581  52.787  1.00  0.00     0.002 C 
HETATM   12  C   UNL     1       8.088  23.903  54.273  1.00  0.00     0.002 C 
HETATM   13  C   UNL     1       6.718  24.063  54.933  1.00  0.00     0.027 C 
HETATM   14  H   UNL     1       6.421  26.678  55.536  1.00  0.00     0.163 HD
ENDROOT
BRANCH   1  15
HETATM   15  C   UNL     1       4.620  28.442  51.800  1.00  0.00     0.146 C 
BRANCH  15  16
HETATM   16  C   UNL     1       5.200  29.116  50.585  1.00  0.00     0.224 C 
HETATM   17  N   UNL     1       4.857  28.775  49.318  1.00  0.00    -0.327 N 
HETATM   18  H   UNL     1       5.369  29.331  48.637  1.00  0.00     0.169 HD
HETATM   19  O   UNL     1       5.968  30.075  50.754  1.00  0.00    -0.273 OA
BRANCH  17  20
HETATM   20  C   UNL     1       3.960  27.843  48.754  1.00  0.00     0.037 A 
HETATM   21  C   UNL     1       2.583  28.006  48.624  1.00  0.00     0.071 A 
HETATM   22  C   UNL     1       1.810  26.997  48.041  1.00  0.00     0.118 A 
HETATM   23  C   UNL     1       2.379  25.824  47.572  1.00  0.00     0.042 A 
HETATM   24  F   UNL     1       0.487  27.178  47.934  1.00  0.00    -0.206 F 
HETATM   25  C   UNL     1       3.753  25.651  47.683  1.00  0.00     0.005 A 
HETATM   26  C   UNL     1       4.533  26.653  48.270  1.00  0.00     0.029 A 
ENDBRANCH  17  20
ENDBRANCH  15  16
ENDBRANCH   1  15
TORSDOF 3
ENDMDL
