MODEL 1
REMARK VINA RESULT:     -11.0      0.000      0.000
REMARK  6 active torsions:
REMARK  status: ('A' for Active; 'I' for Inactive)
REMARK    1  A    between atoms: C_8  and  C_9 
REMARK    2  A    between atoms: N_10  and  N_11 
REMARK       I    between atoms: N_11  and  C_12 
REMARK    3  A    between atoms: C_12  and  C_13 
REMARK    4  A    between atoms: C_16  and  N_17 
REMARK    5  A    between atoms: N_17  and  C_18 
REMARK    6  A    between atoms: C_18  and  C_19 
ROOT
HETATM    1  C   UNL     1       8.854  29.976  57.491  1.00  0.00     0.033 A 
HETATM    2  C   UNL     1       9.962  30.775  57.786  1.00  0.00     0.019 A 
HETATM    3  C   UNL     1       9.928  31.654  58.878  1.00  0.00     0.030 A 
HETATM    4  C   UNL     1       8.784  31.785  59.674  1.00  0.00     0.028 A 
HETATM    5  C   UNL     1       7.681  30.977  59.362  1.00  0.00     0.030 A 
HETATM    6  C   UNL     1       7.704  30.095  58.276  1.00  0.00     0.019 A 
ENDROOT
BRANCH   1   7
HETATM    7  C   UNL     1       8.847  28.991  56.373  1.00  0.00     0.271 C 
HETATM    8  N   UNL     1       8.086  27.850  56.595  1.00  0.00    -0.243 N 
HETATM    9  H   UNL     1       7.650  27.704  57.498  1.00  0.00     0.192 HD
HETATM   10  O   UNL     1       9.474  29.256  55.352  1.00  0.00    -0.266 OA
BRANCH   8  11
HETATM   11  N   UNL     1       7.937  26.776  55.756  1.00  0.00    -0.183 NA
HETATM   12  C   UNL     1       7.747  25.597  56.256  1.00  0.00     0.152 C 
BRANCH  12  13
HETATM   13  C   UNL     1       7.572  24.473  55.353  1.00  0.00     0.011 A 
HETATM   14  C   UNL     1       7.874  23.098  55.615  1.00  0.00     0.004 A 
HETATM   15  C   UNL     1       8.393  22.397  56.725  1.00  0.00     0.014 A 
HETATM   16  C   UNL     1       7.562  22.373  54.463  1.00  0.00     0.043 A 
HETATM   17  C   UNL     1       8.582  21.012  56.643  1.00  0.00     0.001 A 
HETATM   18  C   UNL     1       8.262  20.322  55.477  1.00  0.00     0.002 A 
HETATM   19  C   UNL     1       7.744  20.989  54.364  1.00  0.00     0.030 A 
HETATM   20  N   UNL     1       7.080  23.270  53.538  1.00  0.00    -0.364 N 
HETATM   21  H   UNL     1       6.772  23.025  52.608  1.00  0.00     0.165 HD
HETATM   22  C   UNL     1       7.085  24.534  54.060  1.00  0.00     0.102 A 
ENDBRANCH  12  13
ENDBRANCH   8  11
ENDBRANCH   1   7
BRANCH   4  23
HETATM   23  N   UNL     1       8.730  32.554  60.835  1.00  0.00    -0.386 N 
HETATM   24  H   UNL     1       9.291  33.400  60.773  1.00  0.00     0.160 HD
BRANCH  23  25
HETATM   25  C   UNL     1       8.798  31.935  62.151  1.00  0.00     0.158 C 
BRANCH  25  26
HETATM   26  C   UNL     1       7.590  32.351  62.961  1.00  0.00    -0.038 A 
HETATM   27  C   UNL     1       7.744  33.036  64.178  1.00  0.00     0.048 A 
HETATM   28  C   UNL     1       6.607  33.369  64.883  1.00  0.00     0.105 A 
HETATM   29  C   UNL     1       5.348  33.053  64.427  1.00  0.00     0.105 A 
HETATM   30  O   UNL     1       6.577  34.023  66.075  1.00  0.00    -0.323 OA
HETATM   31  O   UNL     1       4.370  33.469  65.275  1.00  0.00    -0.323 OA
HETATM   32  C   UNL     1       5.153  32.387  63.239  1.00  0.00     0.040 A 
HETATM   33  C   UNL     1       5.155  34.076  66.321  1.00  0.00     0.352 A 
HETATM   34  C   UNL     1       6.288  32.033  62.501  1.00  0.00     0.012 A 
ENDBRANCH  25  26
ENDBRANCH  23  25
ENDBRANCH   4  23
TORSDOF 6
ENDMDL
MODEL 2
REMARK VINA RESULT:     -10.9      1.332      1.879
REMARK  6 active torsions:
REMARK  status: ('A' for Active; 'I' for Inactive)
REMARK    1  A    between atoms: C_8  and  C_9 
REMARK    2  A    between atoms: N_10  and  N_11 
REMARK       I    between atoms: N_11  and  C_12 
REMARK    3  A    between atoms: C_12  and  C_13 
REMARK    4  A    between atoms: C_16  and  N_17 
REMARK    5  A    between atoms: N_17  and  C_18 
REMARK    6  A    between atoms: C_18  and  C_19 
ROOT
HETATM    1  C   UNL     1       8.168  28.838  57.438  1.00  0.00     0.033 A 
HETATM    2  C   UNL     1       9.429  29.334  57.780  1.00  0.00     0.019 A 
HETATM    3  C   UNL     1       9.545  30.470  58.594  1.00  0.00     0.030 A 
HETATM    4  C   UNL     1       8.414  31.156  59.054  1.00  0.00     0.028 A 
HETATM    5  C   UNL     1       7.157  30.645  58.699  1.00  0.00     0.030 A 
HETATM    6  C   UNL     1       7.030  29.512  57.889  1.00  0.00     0.019 A 
ENDROOT
BRANCH   1   7
HETATM    7  C   UNL     1       7.983  27.609  56.615  1.00  0.00     0.271 C 
HETATM    8  N   UNL     1       7.871  26.427  57.336  1.00  0.00    -0.243 N 
HETATM    9  H   UNL     1       7.995  26.436  58.341  1.00  0.00     0.192 HD
HETATM   10  O   UNL     1       7.917  27.723  55.395  1.00  0.00    -0.266 OA
BRANCH   8  11
HETATM   11  N   UNL     1       7.734  25.159  56.832  1.00  0.00    -0.183 NA
HETATM   12  C   UNL     1       8.590  24.245  57.160  1.00  0.00     0.152 C 
BRANCH  12  13
HETATM   13  C   UNL     1       8.419  22.902  56.634  1.00  0.00     0.011 A 
HETATM   14  C   UNL     1       8.278  22.523  55.260  1.00  0.00     0.004 A 
HETATM   15  C   UNL     1       8.257  23.231  54.039  1.00  0.00     0.014 A 
HETATM   16  C   UNL     1       8.124  21.136  55.222  1.00  0.00     0.043 A 
HETATM   17  C   UNL     1       8.083  22.534  52.838  1.00  0.00     0.001 A 
HETATM   18  C   UNL     1       7.930  21.150  52.837  1.00  0.00     0.002 A 
HETATM   19  C   UNL     1       7.950  20.423  54.030  1.00  0.00     0.030 A 
HETATM   20  N   UNL     1       8.179  20.686  56.521  1.00  0.00    -0.364 N 
HETATM   21  H   UNL     1       8.099  19.717  56.797  1.00  0.00     0.165 HD
HETATM   22  C   UNL     1       8.353  21.739  57.378  1.00  0.00     0.102 A 
ENDBRANCH  12  13
ENDBRANCH   8  11
ENDBRANCH   1   7
BRANCH   4  23
HETATM   23  N   UNL     1       8.464  32.218  59.954  1.00  0.00    -0.386 N 
HETATM   24  H   UNL     1       8.836  33.069  59.540  1.00  0.00     0.160 HD
BRANCH  23  25
HETATM   25  C   UNL     1       8.915  32.021  61.324  1.00  0.00     0.158 C 
BRANCH  25  26
HETATM   26  C   UNL     1       7.777  32.328  62.273  1.00  0.00    -0.038 A 
HETATM   27  C   UNL     1       8.024  32.945  63.511  1.00  0.00     0.048 A 
HETATM   28  C   UNL     1       6.950  33.179  64.344  1.00  0.00     0.105 A 
HETATM   29  C   UNL     1       5.666  32.831  63.993  1.00  0.00     0.105 A 
HETATM   30  O   UNL     1       7.012  33.757  65.574  1.00  0.00    -0.323 OA
HETATM   31  O   UNL     1       4.761  33.147  64.957  1.00  0.00    -0.323 OA
HETATM   32  C   UNL     1       5.382  32.230  62.788  1.00  0.00     0.040 A 
HETATM   33  C   UNL     1       5.621  33.727  65.960  1.00  0.00     0.352 A 
HETATM   34  C   UNL     1       6.451  31.977  61.923  1.00  0.00     0.012 A 
ENDBRANCH  25  26
ENDBRANCH  23  25
ENDBRANCH   4  23
TORSDOF 6
ENDMDL
MODEL 3
REMARK VINA RESULT:     -10.2      2.589     11.974
REMARK  6 active torsions:
REMARK  status: ('A' for Active; 'I' for Inactive)
REMARK    1  A    between atoms: C_8  and  C_9 
REMARK    2  A    between atoms: N_10  and  N_11 
REMARK       I    between atoms: N_11  and  C_12 
REMARK    3  A    between atoms: C_12  and  C_13 
REMARK    4  A    between atoms: C_16  and  N_17 
REMARK    5  A    between atoms: N_17  and  C_18 
REMARK    6  A    between atoms: C_18  and  C_19 
ROOT
HETATM    1  C   UNL     1       8.255  30.246  58.345  1.00  0.00     0.033 A 
HETATM    2  C   UNL     1       9.332  29.794  57.577  1.00  0.00     0.019 A 
HETATM    3  C   UNL     1       9.121  28.879  56.537  1.00  0.00     0.030 A 
HETATM    4  C   UNL     1       7.847  28.367  56.261  1.00  0.00     0.028 A 
HETATM    5  C   UNL     1       6.779  28.831  57.043  1.00  0.00     0.030 A 
HETATM    6  C   UNL     1       6.978  29.745  58.083  1.00  0.00     0.019 A 
ENDROOT
BRANCH   1   7
HETATM    7  C   UNL     1       8.410  31.253  59.434  1.00  0.00     0.271 C 
HETATM    8  N   UNL     1       7.809  30.916  60.640  1.00  0.00    -0.243 N 
HETATM    9  H   UNL     1       7.249  30.074  60.706  1.00  0.00     0.192 HD
HETATM   10  O   UNL     1       9.059  32.269  59.206  1.00  0.00    -0.266 OA
BRANCH   8  11
HETATM   11  N   UNL     1       7.766  31.670  61.784  1.00  0.00    -0.183 NA
HETATM   12  C   UNL     1       6.626  32.103  62.220  1.00  0.00     0.152 C 
BRANCH  12  13
HETATM   13  C   UNL     1       6.595  32.885  63.444  1.00  0.00     0.011 A 
HETATM   14  C   UNL     1       5.475  33.588  63.993  1.00  0.00     0.004 A 
HETATM   15  C   UNL     1       4.131  33.762  63.598  1.00  0.00     0.014 A 
HETATM   16  C   UNL     1       5.904  34.210  65.166  1.00  0.00     0.043 A 
HETATM   17  C   UNL     1       3.275  34.546  64.381  1.00  0.00     0.001 A 
HETATM   18  C   UNL     1       3.738  35.154  65.545  1.00  0.00     0.002 A 
HETATM   19  C   UNL     1       5.063  34.996  65.962  1.00  0.00     0.030 A 
HETATM   20  N   UNL     1       7.232  33.890  65.331  1.00  0.00    -0.364 N 
HETATM   21  H   UNL     1       7.806  34.202  66.103  1.00  0.00     0.165 HD
HETATM   22  C   UNL     1       7.659  33.098  64.301  1.00  0.00     0.102 A 
ENDBRANCH  12  13
ENDBRANCH   8  11
ENDBRANCH   1   7
BRANCH   4  23
HETATM   23  N   UNL     1       7.560  27.546  55.172  1.00  0.00    -0.386 N 
HETATM   24  H   UNL     1       7.462  28.064  54.303  1.00  0.00     0.160 HD
BRANCH  23  25
HETATM   25  C   UNL     1       6.600  26.458  55.284  1.00  0.00     0.158 C 
BRANCH  25  26
HETATM   26  C   UNL     1       7.329  25.136  55.181  1.00  0.00    -0.038 A 
HETATM   27  C   UNL     1       7.225  24.348  54.023  1.00  0.00     0.048 A 
HETATM   28  C   UNL     1       7.893  23.142  53.996  1.00  0.00     0.105 A 
HETATM   29  C   UNL     1       8.648  22.704  55.060  1.00  0.00     0.105 A 
HETATM   30  O   UNL     1       7.894  22.259  52.962  1.00  0.00    -0.323 OA
HETATM   31  O   UNL     1       9.218  21.492  54.827  1.00  0.00    -0.323 OA
HETATM   32  C   UNL     1       8.779  23.448  56.211  1.00  0.00     0.040 A 
HETATM   33  C   UNL     1       8.730  21.212  53.499  1.00  0.00     0.352 A 
HETATM   34  C   UNL     1       8.111  24.675  56.269  1.00  0.00     0.012 A 
ENDBRANCH  25  26
ENDBRANCH  23  25
ENDBRANCH   4  23
TORSDOF 6
ENDMDL
MODEL 4
REMARK VINA RESULT:     -10.1      1.530      2.267
REMARK  6 active torsions:
REMARK  status: ('A' for Active; 'I' for Inactive)
REMARK    1  A    between atoms: C_8  and  C_9 
REMARK    2  A    between atoms: N_10  and  N_11 
REMARK       I    between atoms: N_11  and  C_12 
REMARK    3  A    between atoms: C_12  and  C_13 
REMARK    4  A    between atoms: C_16  and  N_17 
REMARK    5  A    between atoms: N_17  and  C_18 
REMARK    6  A    between atoms: C_18  and  C_19 
ROOT
HETATM    1  C   UNL     1       7.649  30.166  58.540  1.00  0.00     0.033 A 
HETATM    2  C   UNL     1       8.727  30.223  59.427  1.00  0.00     0.019 A 
HETATM    3  C   UNL     1       8.748  31.179  60.452  1.00  0.00     0.030 A 
HETATM    4  C   UNL     1       7.720  32.119  60.594  1.00  0.00     0.028 A 
HETATM    5  C   UNL     1       6.647  32.048  59.694  1.00  0.00     0.030 A 
HETATM    6  C   UNL     1       6.615  31.097  58.668  1.00  0.00     0.019 A 
ENDROOT
BRANCH   1   7
HETATM    7  C   UNL     1       7.548  29.143  57.461  1.00  0.00     0.271 C 
HETATM    8  N   UNL     1       8.169  27.932  57.734  1.00  0.00    -0.243 N 
HETATM    9  H   UNL     1       8.709  27.823  58.585  1.00  0.00     0.192 HD
HETATM   10  O   UNL     1       6.921  29.422  56.444  1.00  0.00    -0.266 OA
BRANCH   8  11
HETATM   11  N   UNL     1       8.262  26.841  56.908  1.00  0.00    -0.183 NA
HETATM   12  C   UNL     1       7.820  25.693  57.313  1.00  0.00     0.152 C 
BRANCH  12  13
HETATM   13  C   UNL     1       7.908  24.553  56.418  1.00  0.00     0.011 A 
HETATM   14  C   UNL     1       7.807  24.564  54.990  1.00  0.00     0.004 A 
HETATM   15  C   UNL     1       7.611  25.575  54.024  1.00  0.00     0.014 A 
HETATM   16  C   UNL     1       7.934  23.246  54.550  1.00  0.00     0.043 A 
HETATM   17  C   UNL     1       7.547  25.233  52.668  1.00  0.00     0.001 A 
HETATM   18  C   UNL     1       7.675  23.907  52.265  1.00  0.00     0.002 A 
HETATM   19  C   UNL     1       7.874  22.885  53.199  1.00  0.00     0.030 A 
HETATM   20  N   UNL     1       8.115  22.462  55.666  1.00  0.00    -0.364 N 
HETATM   21  H   UNL     1       8.239  21.459  55.649  1.00  0.00     0.165 HD
HETATM   22  C   UNL     1       8.097  23.236  56.794  1.00  0.00     0.102 A 
ENDBRANCH  12  13
ENDBRANCH   8  11
ENDBRANCH   1   7
BRANCH   4  23
HETATM   23  N   UNL     1       7.631  33.016  61.657  1.00  0.00    -0.386 N 
HETATM   24  H   UNL     1       7.961  33.948  61.416  1.00  0.00     0.160 HD
BRANCH  23  25
HETATM   25  C   UNL     1       8.009  32.622  63.007  1.00  0.00     0.158 C 
BRANCH  25  26
HETATM   26  C   UNL     1       6.939  33.072  63.977  1.00  0.00    -0.038 A 
HETATM   27  C   UNL     1       7.280  33.515  65.266  1.00  0.00     0.048 A 
HETATM   28  C   UNL     1       6.259  33.891  66.114  1.00  0.00     0.105 A 
HETATM   29  C   UNL     1       4.939  33.845  65.730  1.00  0.00     0.105 A 
HETATM   30  O   UNL     1       6.413  34.334  67.391  1.00  0.00    -0.323 OA
HETATM   31  O   UNL     1       4.098  34.254  66.716  1.00  0.00    -0.323 OA
HETATM   32  C   UNL     1       4.563  33.422  64.475  1.00  0.00     0.040 A 
HETATM   33  C   UNL     1       5.037  34.555  67.768  1.00  0.00     0.352 A 
HETATM   34  C   UNL     1       5.576  33.032  63.593  1.00  0.00     0.012 A 
ENDBRANCH  25  26
ENDBRANCH  23  25
ENDBRANCH   4  23
TORSDOF 6
ENDMDL
MODEL 5
REMARK VINA RESULT:     -10.1      2.870     11.588
REMARK  6 active torsions:
REMARK  status: ('A' for Active; 'I' for Inactive)
REMARK    1  A    between atoms: C_8  and  C_9 
REMARK    2  A    between atoms: N_10  and  N_11 
REMARK       I    between atoms: N_11  and  C_12 
REMARK    3  A    between atoms: C_12  and  C_13 
REMARK    4  A    between atoms: C_16  and  N_17 
REMARK    5  A    between atoms: N_17  and  C_18 
REMARK    6  A    between atoms: C_18  and  C_19 
ROOT
HETATM    1  C   UNL     1       7.457  29.336  56.950  1.00  0.00     0.033 A 
HETATM    2  C   UNL     1       8.364  29.255  55.890  1.00  0.00     0.019 A 
HETATM    3  C   UNL     1       8.165  28.325  54.861  1.00  0.00     0.030 A 
HETATM    4  C   UNL     1       7.084  27.434  54.880  1.00  0.00     0.028 A 
HETATM    5  C   UNL     1       6.185  27.530  55.952  1.00  0.00     0.030 A 
HETATM    6  C   UNL     1       6.374  28.455  56.985  1.00  0.00     0.019 A 
ENDROOT
BRANCH   1   7
HETATM    7  C   UNL     1       7.591  30.335  58.049  1.00  0.00     0.271 C 
HETATM    8  N   UNL     1       6.536  31.230  58.165  1.00  0.00    -0.243 N 
HETATM    9  H   UNL     1       5.789  31.220  57.481  1.00  0.00     0.192 HD
HETATM   10  O   UNL     1       8.582  30.284  58.771  1.00  0.00    -0.266 OA
BRANCH   8  11
HETATM   11  N   UNL     1       6.422  32.266  59.057  1.00  0.00    -0.183 NA
HETATM   12  C   UNL     1       5.697  32.117  60.119  1.00  0.00     0.152 C 
BRANCH  12  13
HETATM   13  C   UNL     1       5.602  33.216  61.063  1.00  0.00     0.011 A 
HETATM   14  C   UNL     1       6.256  33.327  62.332  1.00  0.00     0.004 A 
HETATM   15  C   UNL     1       7.143  32.503  63.058  1.00  0.00     0.014 A 
HETATM   16  C   UNL     1       5.865  34.539  62.901  1.00  0.00     0.043 A 
HETATM   17  C   UNL     1       7.599  32.916  64.315  1.00  0.00     0.001 A 
HETATM   18  C   UNL     1       7.187  34.131  64.854  1.00  0.00     0.002 A 
HETATM   19  C   UNL     1       6.312  34.969  64.157  1.00  0.00     0.030 A 
HETATM   20  N   UNL     1       5.013  35.149  62.010  1.00  0.00    -0.364 N 
HETATM   21  H   UNL     1       4.575  36.048  62.159  1.00  0.00     0.165 HD
HETATM   22  C   UNL     1       4.844  34.362  60.905  1.00  0.00     0.102 A 
ENDBRANCH  12  13
ENDBRANCH   8  11
ENDBRANCH   1   7
BRANCH   4  23
HETATM   23  N   UNL     1       6.772  26.570  53.833  1.00  0.00    -0.386 N 
HETATM   24  H   UNL     1       5.957  25.994  54.026  1.00  0.00     0.160 HD
BRANCH  23  25
HETATM   25  C   UNL     1       7.815  25.841  53.124  1.00  0.00     0.158 C 
BRANCH  25  26
HETATM   26  C   UNL     1       7.866  24.419  53.636  1.00  0.00    -0.038 A 
HETATM   27  C   UNL     1       8.025  24.155  55.007  1.00  0.00     0.048 A 
HETATM   28  C   UNL     1       8.088  22.838  55.410  1.00  0.00     0.105 A 
HETATM   29  C   UNL     1       7.998  21.797  54.516  1.00  0.00     0.105 A 
HETATM   30  O   UNL     1       8.245  22.409  56.691  1.00  0.00    -0.323 OA
HETATM   31  O   UNL     1       8.086  20.583  55.122  1.00  0.00    -0.323 OA
HETATM   32  C   UNL     1       7.838  22.012  53.166  1.00  0.00     0.040 A 
HETATM   33  C   UNL     1       8.250  20.978  56.500  1.00  0.00     0.352 A 
HETATM   34  C   UNL     1       7.773  23.338  52.725  1.00  0.00     0.012 A 
ENDBRANCH  25  26
ENDBRANCH  23  25
ENDBRANCH   4  23
TORSDOF 6
ENDMDL
MODEL 6
REMARK VINA RESULT:      -9.7      2.018      2.563
REMARK  6 active torsions:
REMARK  status: ('A' for Active; 'I' for Inactive)
REMARK    1  A    between atoms: C_8  and  C_9 
REMARK    2  A    between atoms: N_10  and  N_11 
REMARK       I    between atoms: N_11  and  C_12 
REMARK    3  A    between atoms: C_12  and  C_13 
REMARK    4  A    between atoms: C_16  and  N_17 
REMARK    5  A    between atoms: N_17  and  C_18 
REMARK    6  A    between atoms: C_18  and  C_19 
ROOT
HETATM    1  C   UNL     1       6.925  28.719  57.675  1.00  0.00     0.033 A 
HETATM    2  C   UNL     1       7.709  29.667  58.338  1.00  0.00     0.019 A 
HETATM    3  C   UNL     1       7.191  30.939  58.619  1.00  0.00     0.030 A 
HETATM    4  C   UNL     1       5.901  31.307  58.216  1.00  0.00     0.028 A 
HETATM    5  C   UNL     1       5.130  30.344  57.550  1.00  0.00     0.030 A 
HETATM    6  C   UNL     1       5.636  29.071  57.265  1.00  0.00     0.019 A 
ENDROOT
BRANCH   1   7
HETATM    7  C   UNL     1       7.404  27.336  57.390  1.00  0.00     0.271 C 
HETATM    8  N   UNL     1       7.405  26.976  56.049  1.00  0.00    -0.243 N 
HETATM    9  H   UNL     1       7.023  27.610  55.357  1.00  0.00     0.192 HD
HETATM   10  O   UNL     1       7.778  26.639  58.328  1.00  0.00    -0.266 OA
BRANCH   8  11
HETATM   11  N   UNL     1       7.757  25.762  55.517  1.00  0.00    -0.183 NA
HETATM   12  C   UNL     1       6.859  25.037  54.930  1.00  0.00     0.152 C 
BRANCH  12  13
HETATM   13  C   UNL     1       7.252  23.763  54.354  1.00  0.00     0.011 A 
HETATM   14  C   UNL     1       7.716  22.604  55.055  1.00  0.00     0.004 A 
HETATM   15  C   UNL     1       7.936  22.297  56.415  1.00  0.00     0.014 A 
HETATM   16  C   UNL     1       7.991  21.621  54.102  1.00  0.00     0.043 A 
HETATM   17  C   UNL     1       8.422  21.033  56.769  1.00  0.00     0.001 A 
HETATM   18  C   UNL     1       8.688  20.077  55.792  1.00  0.00     0.002 A 
HETATM   19  C   UNL     1       8.476  20.351  54.438  1.00  0.00     0.030 A 
HETATM   20  N   UNL     1       7.697  22.158  52.870  1.00  0.00    -0.364 N 
HETATM   21  H   UNL     1       7.799  21.667  51.992  1.00  0.00     0.165 HD
HETATM   22  C   UNL     1       7.256  23.445  53.009  1.00  0.00     0.102 A 
ENDBRANCH  12  13
ENDBRANCH   8  11
ENDBRANCH   1   7
BRANCH   4  23
HETATM   23  N   UNL     1       5.294  32.512  58.565  1.00  0.00    -0.386 N 
HETATM   24  H   UNL     1       5.946  33.292  58.580  1.00  0.00     0.160 HD
BRANCH  23  25
HETATM   25  C   UNL     1       4.320  32.578  59.644  1.00  0.00     0.158 C 
BRANCH  25  26
HETATM   26  C   UNL     1       4.972  33.178  60.870  1.00  0.00    -0.038 A 
HETATM   27  C   UNL     1       5.759  32.387  61.723  1.00  0.00     0.048 A 
HETATM   28  C   UNL     1       6.309  32.985  62.838  1.00  0.00     0.105 A 
HETATM   29  C   UNL     1       6.108  34.315  63.125  1.00  0.00     0.105 A 
HETATM   30  O   UNL     1       7.086  32.366  63.766  1.00  0.00    -0.323 OA
HETATM   31  O   UNL     1       6.735  34.699  64.268  1.00  0.00    -0.323 OA
HETATM   32  C   UNL     1       5.348  35.125  62.313  1.00  0.00     0.040 A 
HETATM   33  C   UNL     1       7.347  33.457  64.674  1.00  0.00     0.352 A 
HETATM   34  C   UNL     1       4.774  34.547  61.176  1.00  0.00     0.012 A 
ENDBRANCH  25  26
ENDBRANCH  23  25
ENDBRANCH   4  23
TORSDOF 6
ENDMDL
MODEL 7
REMARK VINA RESULT:      -9.6      3.541     11.489
REMARK  6 active torsions:
REMARK  status: ('A' for Active; 'I' for Inactive)
REMARK    1  A    between atoms: C_8  and  C_9 
REMARK    2  A    between atoms: N_10  and  N_11 
REMARK       I    between atoms: N_11  and  C_12 
REMARK    3  A    between atoms: C_12  and  C_13 
REMARK    4  A    between atoms: C_16  and  N_17 
REMARK    5  A    between atoms: N_17  and  C_18 
REMARK    6  A    between atoms: C_18  and  C_19 
ROOT
HETATM    1  C   UNL     1       5.862  28.227  55.219  1.00  0.00     0.033 A 
HETATM    2  C   UNL     1       5.142  27.346  54.407  1.00  0.00     0.019 A 
HETATM    3  C   UNL     1       5.817  26.455  53.560  1.00  0.00     0.030 A 
HETATM    4  C   UNL     1       7.215  26.446  53.476  1.00  0.00     0.028 A 
HETATM    5  C   UNL     1       7.920  27.338  54.297  1.00  0.00     0.030 A 
HETATM    6  C   UNL     1       7.257  28.230  55.146  1.00  0.00     0.019 A 
ENDROOT
BRANCH   1   7
HETATM    7  C   UNL     1       5.202  29.163  56.172  1.00  0.00     0.271 C 
HETATM    8  N   UNL     1       6.061  30.012  56.857  1.00  0.00    -0.243 N 
HETATM    9  H   UNL     1       7.063  29.912  56.746  1.00  0.00     0.192 HD
HETATM   10  O   UNL     1       3.978  29.140  56.267  1.00  0.00    -0.266 OA
BRANCH   8  11
HETATM   11  N   UNL     1       5.726  30.938  57.812  1.00  0.00    -0.183 NA
HETATM   12  C   UNL     1       6.554  31.190  58.776  1.00  0.00     0.152 C 
BRANCH  12  13
HETATM   13  C   UNL     1       6.192  32.186  59.768  1.00  0.00     0.011 A 
HETATM   14  C   UNL     1       6.776  32.370  61.062  1.00  0.00     0.004 A 
HETATM   15  C   UNL     1       7.810  31.727  61.777  1.00  0.00     0.014 A 
HETATM   16  C   UNL     1       6.110  33.432  61.676  1.00  0.00     0.043 A 
HETATM   17  C   UNL     1       8.132  32.162  63.068  1.00  0.00     0.001 A 
HETATM   18  C   UNL     1       7.445  33.223  63.651  1.00  0.00     0.002 A 
HETATM   19  C   UNL     1       6.420  33.881  62.965  1.00  0.00     0.030 A 
HETATM   20  N   UNL     1       5.162  33.883  60.787  1.00  0.00    -0.364 N 
HETATM   21  H   UNL     1       4.529  34.651  60.964  1.00  0.00     0.165 HD
HETATM   22  C   UNL     1       5.200  33.140  59.639  1.00  0.00     0.102 A 
ENDBRANCH  12  13
ENDBRANCH   8  11
ENDBRANCH   1   7
BRANCH   4  23
HETATM   23  N   UNL     1       7.941  25.511  52.741  1.00  0.00    -0.386 N 
HETATM   24  H   UNL     1       8.549  25.940  52.048  1.00  0.00     0.160 HD
BRANCH  23  25
HETATM   25  C   UNL     1       7.318  24.288  52.256  1.00  0.00     0.158 C 
BRANCH  25  26
HETATM   26  C   UNL     1       7.627  23.157  53.211  1.00  0.00    -0.038 A 
HETATM   27  C   UNL     1       7.721  23.391  54.593  1.00  0.00     0.048 A 
HETATM   28  C   UNL     1       8.028  22.325  55.413  1.00  0.00     0.105 A 
HETATM   29  C   UNL     1       8.238  21.060  54.914  1.00  0.00     0.105 A 
HETATM   30  O   UNL     1       8.164  22.378  56.765  1.00  0.00    -0.323 OA
HETATM   31  O   UNL     1       8.530  20.160  55.890  1.00  0.00    -0.323 OA
HETATM   32  C   UNL     1       8.150  20.788  53.568  1.00  0.00     0.040 A 
HETATM   33  C   UNL     1       8.489  21.004  57.060  1.00  0.00     0.352 A 
HETATM   34  C   UNL     1       7.843  21.849  52.711  1.00  0.00     0.012 A 
ENDBRANCH  25  26
ENDBRANCH  23  25
ENDBRANCH   4  23
TORSDOF 6
ENDMDL
MODEL 8
REMARK VINA RESULT:      -9.4      3.740     12.323
REMARK  6 active torsions:
REMARK  status: ('A' for Active; 'I' for Inactive)
REMARK    1  A    between atoms: C_8  and  C_9 
REMARK    2  A    between atoms: N_10  and  N_11 
REMARK       I    between atoms: N_11  and  C_12 
REMARK    3  A    between atoms: C_12  and  C_13 
REMARK    4  A    between atoms: C_16  and  N_17 
REMARK    5  A    between atoms: N_17  and  C_18 
REMARK    6  A    between atoms: C_18  and  C_19 
ROOT
HETATM    1  C   UNL     1       4.413  30.047  57.302  1.00  0.00     0.033 A 
HETATM    2  C   UNL     1       5.727  29.636  57.543  1.00  0.00     0.019 A 
HETATM    3  C   UNL     1       6.312  28.639  56.750  1.00  0.00     0.030 A 
HETATM    4  C   UNL     1       5.595  28.006  55.727  1.00  0.00     0.028 A 
HETATM    5  C   UNL     1       4.277  28.431  55.501  1.00  0.00     0.030 A 
HETATM    6  C   UNL     1       3.684  29.425  56.286  1.00  0.00     0.019 A 
ENDROOT
BRANCH   1   7
HETATM    7  C   UNL     1       3.754  31.133  58.081  1.00  0.00     0.271 C 
HETATM    8  N   UNL     1       3.976  31.096  59.452  1.00  0.00    -0.243 N 
HETATM    9  H   UNL     1       4.488  30.322  59.858  1.00  0.00     0.192 HD
HETATM   10  O   UNL     1       3.100  31.977  57.476  1.00  0.00    -0.266 OA
BRANCH   8  11
HETATM   11  N   UNL     1       3.462  31.945  60.399  1.00  0.00    -0.183 NA
HETATM   12  C   UNL     1       4.259  32.518  61.242  1.00  0.00     0.152 C 
BRANCH  12  13
HETATM   13  C   UNL     1       3.701  33.429  62.226  1.00  0.00     0.011 A 
HETATM   14  C   UNL     1       4.213  33.710  63.533  1.00  0.00     0.004 A 
HETATM   15  C   UNL     1       5.329  33.260  64.272  1.00  0.00     0.014 A 
HETATM   16  C   UNL     1       3.352  34.630  64.132  1.00  0.00     0.043 A 
HETATM   17  C   UNL     1       5.539  33.741  65.570  1.00  0.00     0.001 A 
HETATM   18  C   UNL     1       4.658  34.658  66.137  1.00  0.00     0.002 A 
HETATM   19  C   UNL     1       3.546  35.123  65.428  1.00  0.00     0.030 A 
HETATM   20  N   UNL     1       2.358  34.908  63.221  1.00  0.00    -0.364 N 
HETATM   21  H   UNL     1       1.594  35.548  63.384  1.00  0.00     0.165 HD
HETATM   22  C   UNL     1       2.556  34.189  62.075  1.00  0.00     0.102 A 
ENDBRANCH  12  13
ENDBRANCH   8  11
ENDBRANCH   1   7
BRANCH   4  23
HETATM   23  N   UNL     1       6.156  27.094  54.836  1.00  0.00    -0.386 N 
HETATM   24  H   UNL     1       5.494  26.388  54.525  1.00  0.00     0.160 HD
BRANCH  23  25
HETATM   25  C   UNL     1       7.489  26.550  55.058  1.00  0.00     0.158 C 
BRANCH  25  26
HETATM   26  C   UNL     1       7.566  25.161  54.464  1.00  0.00    -0.038 A 
HETATM   27  C   UNL     1       7.571  24.026  55.293  1.00  0.00     0.048 A 
HETATM   28  C   UNL     1       7.667  22.787  54.695  1.00  0.00     0.105 A 
HETATM   29  C   UNL     1       7.753  22.642  53.330  1.00  0.00     0.105 A 
HETATM   30  O   UNL     1       7.693  21.593  55.346  1.00  0.00    -0.323 OA
HETATM   31  O   UNL     1       7.843  21.339  52.951  1.00  0.00    -0.323 OA
HETATM   32  C   UNL     1       7.747  23.727  52.483  1.00  0.00     0.040 A 
HETATM   33  C   UNL     1       7.811  20.680  54.234  1.00  0.00     0.352 A 
HETATM   34  C   UNL     1       7.653  24.997  53.059  1.00  0.00     0.012 A 
ENDBRANCH  25  26
ENDBRANCH  23  25
ENDBRANCH   4  23
TORSDOF 6
ENDMDL
MODEL 9
REMARK VINA RESULT:      -9.3      8.554     11.605
REMARK  6 active torsions:
REMARK  status: ('A' for Active; 'I' for Inactive)
REMARK    1  A    between atoms: C_8  and  C_9 
REMARK    2  A    between atoms: N_10  and  N_11 
REMARK       I    between atoms: N_11  and  C_12 
REMARK    3  A    between atoms: C_12  and  C_13 
REMARK    4  A    between atoms: C_16  and  N_17 
REMARK    5  A    between atoms: N_17  and  C_18 
REMARK    6  A    between atoms: C_18  and  C_19 
ROOT
HETATM    1  C   UNL     1       5.272  27.128  50.115  1.00  0.00     0.033 A 
HETATM    2  C   UNL     1       5.531  28.460  50.449  1.00  0.00     0.019 A 
HETATM    3  C   UNL     1       5.196  29.490  49.558  1.00  0.00     0.030 A 
HETATM    4  C   UNL     1       4.632  29.216  48.306  1.00  0.00     0.028 A 
HETATM    5  C   UNL     1       4.380  27.874  47.988  1.00  0.00     0.030 A 
HETATM    6  C   UNL     1       4.710  26.839  48.869  1.00  0.00     0.019 A 
ENDROOT
BRANCH   1   7
HETATM    7  C   UNL     1       5.564  25.996  51.039  1.00  0.00     0.271 C 
HETATM    8  N   UNL     1       6.853  25.970  51.554  1.00  0.00    -0.243 N 
HETATM    9  H   UNL     1       7.537  26.645  51.234  1.00  0.00     0.192 HD
HETATM   10  O   UNL     1       4.665  25.201  51.296  1.00  0.00    -0.266 OA
BRANCH   8  11
HETATM   11  N   UNL     1       7.394  25.026  52.389  1.00  0.00    -0.183 NA
HETATM   12  C   UNL     1       7.183  25.105  53.664  1.00  0.00     0.152 C 
BRANCH  12  13
HETATM   13  C   UNL     1       7.747  24.087  54.533  1.00  0.00     0.011 A 
HETATM   14  C   UNL     1       8.008  22.718  54.205  1.00  0.00     0.004 A 
HETATM   15  C   UNL     1       7.838  21.933  53.044  1.00  0.00     0.014 A 
HETATM   16  C   UNL     1       8.534  22.107  55.345  1.00  0.00     0.043 A 
HETATM   17  C   UNL     1       8.194  20.580  53.066  1.00  0.00     0.001 A 
HETATM   18  C   UNL     1       8.715  20.002  54.221  1.00  0.00     0.002 A 
HETATM   19  C   UNL     1       8.898  20.756  55.384  1.00  0.00     0.030 A 
HETATM   20  N   UNL     1       8.601  23.070  56.326  1.00  0.00    -0.364 N 
HETATM   21  H   UNL     1       8.948  22.911  57.262  1.00  0.00     0.165 HD
HETATM   22  C   UNL     1       8.127  24.261  55.851  1.00  0.00     0.102 A 
ENDBRANCH  12  13
ENDBRANCH   8  11
ENDBRANCH   1   7
BRANCH   4  23
HETATM   23  N   UNL     1       4.175  30.199  47.430  1.00  0.00    -0.386 N 
HETATM   24  H   UNL     1       4.565  30.106  46.496  1.00  0.00     0.160 HD
BRANCH  23  25
HETATM   25  C   UNL     1       4.060  31.587  47.852  1.00  0.00     0.158 C 
BRANCH  25  26
HETATM   26  C   UNL     1       5.212  32.381  47.276  1.00  0.00    -0.038 A 
HETATM   27  C   UNL     1       6.069  33.113  48.115  1.00  0.00     0.048 A 
HETATM   28  C   UNL     1       7.087  33.836  47.530  1.00  0.00     0.105 A 
HETATM   29  C   UNL     1       7.279  33.853  46.168  1.00  0.00     0.105 A 
HETATM   30  O   UNL     1       7.997  34.601  48.191  1.00  0.00    -0.323 OA
HETATM   31  O   UNL     1       8.334  34.629  45.803  1.00  0.00    -0.323 OA
HETATM   32  C   UNL     1       6.465  33.147  45.312  1.00  0.00     0.040 A 
HETATM   33  C   UNL     1       8.780  35.106  47.089  1.00  0.00     0.352 A 
HETATM   34  C   UNL     1       5.421  32.405  45.875  1.00  0.00     0.012 A 
ENDBRANCH  25  26
ENDBRANCH  23  25
ENDBRANCH   4  23
TORSDOF 6
ENDMDL
MODEL 10
REMARK VINA RESULT:      -9.0      2.680      3.437
REMARK  6 active torsions:
REMARK  status: ('A' for Active; 'I' for Inactive)
REMARK    1  A    between atoms: C_8  and  C_9 
REMARK    2  A    between atoms: N_10  and  N_11 
REMARK       I    between atoms: N_11  and  C_12 
REMARK    3  A    between atoms: C_12  and  C_13 
REMARK    4  A    between atoms: C_16  and  N_17 
REMARK    5  A    between atoms: N_17  and  C_18 
REMARK    6  A    between atoms: C_18  and  C_19 
ROOT
HETATM    1  C   UNL     1       5.277  29.726  57.069  1.00  0.00     0.033 A 
HETATM    2  C   UNL     1       6.322  30.262  57.826  1.00  0.00     0.019 A 
HETATM    3  C   UNL     1       6.260  31.590  58.273  1.00  0.00     0.030 A 
HETATM    4  C   UNL     1       5.181  32.420  57.947  1.00  0.00     0.028 A 
HETATM    5  C   UNL     1       4.143  31.865  57.185  1.00  0.00     0.030 A 
HETATM    6  C   UNL     1       4.193  30.541  56.735  1.00  0.00     0.019 A 
ENDROOT
BRANCH   1   7
HETATM    7  C   UNL     1       5.265  28.309  56.606  1.00  0.00     0.271 C 
HETATM    8  N   UNL     1       6.352  27.545  57.010  1.00  0.00    -0.243 N 
HETATM    9  H   UNL     1       7.114  27.982  57.514  1.00  0.00     0.192 HD
HETATM   10  O   UNL     1       4.311  27.917  55.940  1.00  0.00    -0.266 OA
BRANCH   8  11
HETATM   11  N   UNL     1       6.608  26.235  56.695  1.00  0.00    -0.183 NA
HETATM   12  C   UNL     1       7.831  25.810  56.675  1.00  0.00     0.152 C 
BRANCH  12  13
HETATM   13  C   UNL     1       8.083  24.416  56.359  1.00  0.00     0.011 A 
HETATM   14  C   UNL     1       8.025  23.796  55.070  1.00  0.00     0.004 A 
HETATM   15  C   UNL     1       7.736  24.258  53.768  1.00  0.00     0.014 A 
HETATM   16  C   UNL     1       8.325  22.444  55.240  1.00  0.00     0.043 A 
HETATM   17  C   UNL     1       7.754  23.358  52.695  1.00  0.00     0.001 A 
HETATM   18  C   UNL     1       8.056  22.015  52.901  1.00  0.00     0.002 A 
HETATM   19  C   UNL     1       8.349  21.531  54.179  1.00  0.00     0.030 A 
HETATM   20  N   UNL     1       8.567  22.248  56.581  1.00  0.00    -0.364 N 
HETATM   21  H   UNL     1       8.813  21.360  56.996  1.00  0.00     0.165 HD
HETATM   22  C   UNL     1       8.421  23.425  57.263  1.00  0.00     0.102 A 
ENDBRANCH  12  13
ENDBRANCH   8  11
ENDBRANCH   1   7
BRANCH   4  23
HETATM   23  N   UNL     1       5.011  33.707  58.455  1.00  0.00    -0.386 N 
HETATM   24  H   UNL     1       5.869  34.097  58.836  1.00  0.00     0.160 HD
BRANCH  23  25
HETATM   25  C   UNL     1       3.841  34.053  59.249  1.00  0.00     0.158 C 
BRANCH  25  26
HETATM   26  C   UNL     1       4.261  34.285  60.684  1.00  0.00    -0.038 A 
HETATM   27  C   UNL     1       4.315  33.218  61.596  1.00  0.00     0.048 A 
HETATM   28  C   UNL     1       4.683  33.494  62.896  1.00  0.00     0.105 A 
HETATM   29  C   UNL     1       4.995  34.769  63.309  1.00  0.00     0.105 A 
HETATM   30  O   UNL     1       4.778  32.585  63.903  1.00  0.00    -0.323 OA
HETATM   31  O   UNL     1       5.327  34.820  64.627  1.00  0.00    -0.323 OA
HETATM   32  C   UNL     1       4.960  35.840  62.446  1.00  0.00     0.040 A 
HETATM   33  C   UNL     1       5.180  33.434  64.999  1.00  0.00     0.352 A 
HETATM   34  C   UNL     1       4.587  35.592  61.121  1.00  0.00     0.012 A 
ENDBRANCH  25  26
ENDBRANCH  23  25
ENDBRANCH   4  23
TORSDOF 6
ENDMDL
