MODEL 1
REMARK VINA RESULT:     -10.5      0.000      0.000
REMARK  7 active torsions:
REMARK  status: ('A' for Active; 'I' for Inactive)
REMARK    1  A    between atoms: O_2  and  C_3 
REMARK    2  A    between atoms: C_4  and  O_5 
REMARK    3  A    between atoms: C_8  and  N_9 
REMARK       I    between atoms: N_9  and  C_10 
REMARK    4  A    between atoms: C_10  and  C_11 
REMARK    5  A    between atoms: C_11  and  N_12 
REMARK    6  A    between atoms: N_20  and  C_21 
REMARK    7  A    between atoms: C_21  and  C_22 
ROOT
HETATM    1  N   UNL     1       7.200  30.367  58.736  1.00  0.00    -0.063 N 
HETATM    2  H   UNL     1       7.016  30.235  59.753  1.00  0.00     0.280 HD
HETATM    3  C   UNL     1       5.887  30.104  58.053  1.00  0.00     0.238 C 
HETATM    4  C   UNL     1       6.084  30.034  56.542  1.00  0.00     0.069 C 
HETATM    5  C   UNL     1       7.183  29.038  56.152  1.00  0.00     0.119 C 
HETATM    6  N   UNL     1       7.407  29.046  54.725  1.00  0.00    -0.324 N 
HETATM    7  C   UNL     1       6.820  27.966  54.099  1.00  0.00     0.326 C 
HETATM    8  O   UNL     1       6.736  27.858  52.890  1.00  0.00    -0.247 OA
HETATM    9  N   UNL     1       6.357  27.118  55.056  1.00  0.00    -0.264 N 
HETATM   10  C   UNL     1       6.612  27.616  56.297  1.00  0.00     0.256 C 
HETATM   11  O   UNL     1       6.345  27.105  57.376  1.00  0.00    -0.270 OA
HETATM   12  C   UNL     1       8.481  29.249  56.923  1.00  0.00     0.069 C 
HETATM   13  C   UNL     1       8.261  29.358  58.423  1.00  0.00     0.238 C 
HETATM   14  H   UNL     1       7.729  29.821  54.153  1.00  0.00     0.165 HD
ENDROOT
BRANCH   1  15
HETATM   15  C   UNL     1       7.627  31.851  58.688  1.00  0.00     0.337 C 
BRANCH  15  16
HETATM   16  C   UNL     1       8.854  32.024  59.582  1.00  0.00     0.248 C 
HETATM   17  N   UNL     1       8.792  32.208  60.926  1.00  0.00    -0.326 N 
HETATM   18  H   UNL     1       9.710  32.110  61.357  1.00  0.00     0.169 HD
HETATM   19  O   UNL     1       9.957  31.825  59.055  1.00  0.00    -0.271 OA
BRANCH  17  20
HETATM   20  C   UNL     1       7.719  32.378  61.813  1.00  0.00     0.037 A 
HETATM   21  C   UNL     1       6.377  32.269  61.466  1.00  0.00     0.069 A 
HETATM   22  C   UNL     1       5.391  32.379  62.454  1.00  0.00     0.103 A 
HETATM   23  C   UNL     1       5.714  32.677  63.785  1.00  0.00     0.101 A 
HETATM   24  C   UNL     1       7.057  32.838  64.117  1.00  0.00     0.042 A 
HETATM   25  C   UNL     1       8.048  32.697  63.138  1.00  0.00     0.032 A 
BRANCH  22  26
HETATM   26  O   UNL     1       4.081  32.276  62.056  1.00  0.00    -0.353 OA
HETATM   27  C   UNL     1       3.985  32.340  60.633  1.00  0.00     0.210 C 
ENDBRANCH  22  26
BRANCH  23  28
HETATM   28  O   UNL     1       4.671  32.770  64.664  1.00  0.00    -0.353 OA
HETATM   29  C   UNL     1       4.733  33.816  65.628  1.00  0.00     0.210 C 
ENDBRANCH  23  28
ENDBRANCH  17  20
ENDBRANCH  15  16
ENDBRANCH   1  15
BRANCH   9  30
HETATM   30  C   UNL     1       5.550  25.949  54.781  1.00  0.00     0.175 C 
BRANCH  30  31
HETATM   31  C   UNL     1       6.449  24.761  54.501  1.00  0.00    -0.040 A 
HETATM   32  C   UNL     1       6.721  24.378  53.178  1.00  0.00     0.010 A 
HETATM   33  C   UNL     1       7.478  23.235  52.911  1.00  0.00     0.024 A 
HETATM   34  C   UNL     1       7.969  22.469  53.966  1.00  0.00     0.034 A 
HETATM   35 CL   UNL     1       8.877  21.048  53.638  1.00  0.00    -0.084 Cl
HETATM   36  C   UNL     1       7.714  22.840  55.285  1.00  0.00     0.024 A 
HETATM   37  C   UNL     1       6.953  23.982  55.553  1.00  0.00     0.010 A 
ENDBRANCH  30  31
ENDBRANCH   9  30
TORSDOF 7
ENDMDL
MODEL 2
REMARK VINA RESULT:     -10.0      2.100      3.515
REMARK  7 active torsions:
REMARK  status: ('A' for Active; 'I' for Inactive)
REMARK    1  A    between atoms: O_2  and  C_3 
REMARK    2  A    between atoms: C_4  and  O_5 
REMARK    3  A    between atoms: C_8  and  N_9 
REMARK       I    between atoms: N_9  and  C_10 
REMARK    4  A    between atoms: C_10  and  C_11 
REMARK    5  A    between atoms: C_11  and  N_12 
REMARK    6  A    between atoms: N_20  and  C_21 
REMARK    7  A    between atoms: C_21  and  C_22 
ROOT
HETATM    1  N   UNL     1       5.233  29.910  56.951  1.00  0.00    -0.063 N 
HETATM    2  H   UNL     1       5.879  30.534  57.478  1.00  0.00     0.280 HD
HETATM    3  C   UNL     1       5.744  28.515  57.181  1.00  0.00     0.238 C 
HETATM    4  C   UNL     1       5.023  27.530  56.267  1.00  0.00     0.069 C 
HETATM    5  C   UNL     1       5.081  27.964  54.797  1.00  0.00     0.119 C 
HETATM    6  N   UNL     1       4.325  27.061  53.960  1.00  0.00    -0.324 N 
HETATM    7  C   UNL     1       5.137  26.182  53.275  1.00  0.00     0.326 C 
HETATM    8  O   UNL     1       4.713  25.231  52.646  1.00  0.00    -0.247 OA
HETATM    9  N   UNL     1       6.430  26.561  53.462  1.00  0.00    -0.264 N 
HETATM   10  C   UNL     1       6.493  27.658  54.265  1.00  0.00     0.256 C 
HETATM   11  O   UNL     1       7.493  28.266  54.623  1.00  0.00    -0.270 OA
HETATM   12  C   UNL     1       4.656  29.412  54.584  1.00  0.00     0.069 C 
HETATM   13  C   UNL     1       5.354  30.374  55.532  1.00  0.00     0.238 C 
HETATM   14  H   UNL     1       3.328  26.871  53.998  1.00  0.00     0.165 HD
ENDROOT
BRANCH   1  15
HETATM   15  C   UNL     1       3.886  30.190  57.653  1.00  0.00     0.337 C 
BRANCH  15  16
HETATM   16  C   UNL     1       3.672  31.703  57.686  1.00  0.00     0.248 C 
HETATM   17  N   UNL     1       4.354  32.548  58.500  1.00  0.00    -0.326 N 
HETATM   18  H   UNL     1       4.204  33.520  58.237  1.00  0.00     0.169 HD
HETATM   19  O   UNL     1       2.943  32.179  56.804  1.00  0.00    -0.271 OA
BRANCH  17  20
HETATM   20  C   UNL     1       5.292  32.332  59.521  1.00  0.00     0.037 A 
HETATM   21  C   UNL     1       6.616  31.960  59.317  1.00  0.00     0.069 A 
HETATM   22  C   UNL     1       7.485  31.852  60.410  1.00  0.00     0.103 A 
HETATM   23  C   UNL     1       7.037  32.032  61.726  1.00  0.00     0.101 A 
HETATM   24  C   UNL     1       5.697  32.354  61.928  1.00  0.00     0.042 A 
HETATM   25  C   UNL     1       4.833  32.494  60.836  1.00  0.00     0.032 A 
BRANCH  22  26
HETATM   26  O   UNL     1       8.778  31.469  60.154  1.00  0.00    -0.353 OA
HETATM   27  C   UNL     1       8.813  30.480  59.125  1.00  0.00     0.210 C 
ENDBRANCH  22  26
BRANCH  23  28
HETATM   28  O   UNL     1       7.970  31.895  62.716  1.00  0.00    -0.353 OA
HETATM   29  C   UNL     1       7.888  32.806  63.808  1.00  0.00     0.210 C 
ENDBRANCH  23  28
ENDBRANCH  17  20
ENDBRANCH  15  16
ENDBRANCH   1  15
BRANCH   9  30
HETATM   30  C   UNL     1       7.572  25.791  53.019  1.00  0.00     0.175 C 
BRANCH  30  31
HETATM   31  C   UNL     1       7.577  24.441  53.707  1.00  0.00    -0.040 A 
HETATM   32  C   UNL     1       7.552  24.364  55.109  1.00  0.00     0.010 A 
HETATM   33  C   UNL     1       7.643  23.128  55.754  1.00  0.00     0.024 A 
HETATM   34  C   UNL     1       7.758  21.962  55.001  1.00  0.00     0.034 A 
HETATM   35 CL   UNL     1       7.897  20.444  55.794  1.00  0.00    -0.084 Cl
HETATM   36  C   UNL     1       7.777  22.021  53.609  1.00  0.00     0.024 A 
HETATM   37  C   UNL     1       7.691  23.258  52.962  1.00  0.00     0.010 A 
ENDBRANCH  30  31
ENDBRANCH   9  30
TORSDOF 7
ENDMDL
MODEL 3
REMARK VINA RESULT:      -9.6      3.523     10.024
REMARK  7 active torsions:
REMARK  status: ('A' for Active; 'I' for Inactive)
REMARK    1  A    between atoms: O_2  and  C_3 
REMARK    2  A    between atoms: C_4  and  O_5 
REMARK    3  A    between atoms: C_8  and  N_9 
REMARK       I    between atoms: N_9  and  C_10 
REMARK    4  A    between atoms: C_10  and  C_11 
REMARK    5  A    between atoms: C_11  and  N_12 
REMARK    6  A    between atoms: N_20  and  C_21 
REMARK    7  A    between atoms: C_21  and  C_22 
ROOT
HETATM    1  N   UNL     1       6.236  27.281  54.531  1.00  0.00    -0.063 N 
HETATM    2  H   UNL     1       7.134  27.076  54.045  1.00  0.00     0.280 HD
HETATM    3  C   UNL     1       5.892  28.696  54.158  1.00  0.00     0.238 C 
HETATM    4  C   UNL     1       4.719  29.193  54.998  1.00  0.00     0.069 C 
HETATM    5  C   UNL     1       4.967  29.001  56.500  1.00  0.00     0.119 C 
HETATM    6  N   UNL     1       3.813  29.404  57.270  1.00  0.00    -0.324 N 
HETATM    7  C   UNL     1       3.981  30.645  57.849  1.00  0.00     0.326 C 
HETATM    8  O   UNL     1       3.082  31.252  58.399  1.00  0.00    -0.247 OA
HETATM    9  N   UNL     1       5.270  31.033  57.662  1.00  0.00    -0.264 N 
HETATM   10  C   UNL     1       5.955  30.087  56.962  1.00  0.00     0.256 C 
HETATM   11  O   UNL     1       7.134  30.109  56.634  1.00  0.00    -0.270 OA
HETATM   12  C   UNL     1       5.413  27.588  56.856  1.00  0.00     0.069 C 
HETATM   13  C   UNL     1       6.554  27.094  55.982  1.00  0.00     0.238 C 
HETATM   14  H   UNL     1       2.881  29.003  57.243  1.00  0.00     0.165 HD
ENDROOT
BRANCH   1  15
HETATM   15  C   UNL     1       5.292  26.236  53.894  1.00  0.00     0.337 C 
BRANCH  15  16
HETATM   16  C   UNL     1       5.952  25.712  52.619  1.00  0.00     0.248 C 
HETATM   17  N   UNL     1       6.719  24.593  52.567  1.00  0.00    -0.326 N 
HETATM   18  H   UNL     1       6.902  24.312  51.605  1.00  0.00     0.169 HD
HETATM   19  O   UNL     1       5.627  26.265  51.559  1.00  0.00    -0.271 OA
BRANCH  17  20
HETATM   20  C   UNL     1       7.183  23.713  53.556  1.00  0.00     0.037 A 
HETATM   21  C   UNL     1       7.376  24.050  54.892  1.00  0.00     0.069 A 
HETATM   22  C   UNL     1       7.767  23.067  55.809  1.00  0.00     0.103 A 
HETATM   23  C   UNL     1       8.052  21.755  55.403  1.00  0.00     0.101 A 
HETATM   24  C   UNL     1       7.909  21.437  54.054  1.00  0.00     0.042 A 
HETATM   25  C   UNL     1       7.486  22.409  53.140  1.00  0.00     0.032 A 
BRANCH  22  26
HETATM   26  O   UNL     1       7.955  23.455  57.111  1.00  0.00    -0.353 OA
HETATM   27  C   UNL     1       8.972  24.452  57.194  1.00  0.00     0.210 C 
ENDBRANCH  22  26
BRANCH  23  28
HETATM   28  O   UNL     1       8.434  20.879  56.381  1.00  0.00    -0.353 OA
HETATM   29  C   UNL     1       9.527  20.018  56.081  1.00  0.00     0.210 C 
ENDBRANCH  23  28
ENDBRANCH  17  20
ENDBRANCH  15  16
ENDBRANCH   1  15
BRANCH   9  30
HETATM   30  C   UNL     1       5.779  32.345  58.000  1.00  0.00     0.175 C 
BRANCH  30  31
HETATM   31  C   UNL     1       6.329  32.330  59.413  1.00  0.00    -0.040 A 
HETATM   32  C   UNL     1       5.555  32.823  60.476  1.00  0.00     0.010 A 
HETATM   33  C   UNL     1       6.084  32.893  61.767  1.00  0.00     0.024 A 
HETATM   34  C   UNL     1       7.390  32.470  62.002  1.00  0.00     0.034 A 
HETATM   35 CL   UNL     1       8.052  32.581  63.584  1.00  0.00    -0.084 Cl
HETATM   36  C   UNL     1       8.168  31.971  60.959  1.00  0.00     0.024 A 
HETATM   37  C   UNL     1       7.641  31.905  59.666  1.00  0.00     0.010 A 
ENDBRANCH  30  31
ENDBRANCH   9  30
TORSDOF 7
ENDMDL
MODEL 4
REMARK VINA RESULT:      -9.5      2.318      3.865
REMARK  7 active torsions:
REMARK  status: ('A' for Active; 'I' for Inactive)
REMARK    1  A    between atoms: O_2  and  C_3 
REMARK    2  A    between atoms: C_4  and  O_5 
REMARK    3  A    between atoms: C_8  and  N_9 
REMARK       I    between atoms: N_9  and  C_10 
REMARK    4  A    between atoms: C_10  and  C_11 
REMARK    5  A    between atoms: C_11  and  N_12 
REMARK    6  A    between atoms: N_20  and  C_21 
REMARK    7  A    between atoms: C_21  and  C_22 
ROOT
HETATM    1  N   UNL     1       4.980  30.789  55.136  1.00  0.00    -0.063 N 
HETATM    2  H   UNL     1       5.494  31.539  54.627  1.00  0.00     0.280 HD
HETATM    3  C   UNL     1       5.884  30.376  56.263  1.00  0.00     0.238 C 
HETATM    4  C   UNL     1       5.344  29.120  56.940  1.00  0.00     0.069 C 
HETATM    5  C   UNL     1       5.076  27.995  55.931  1.00  0.00     0.119 C 
HETATM    6  N   UNL     1       4.492  26.845  56.581  1.00  0.00    -0.324 N 
HETATM    7  C   UNL     1       5.413  25.840  56.789  1.00  0.00     0.326 C 
HETATM    8  O   UNL     1       5.187  24.855  57.465  1.00  0.00    -0.247 OA
HETATM    9  N   UNL     1       6.564  26.176  56.146  1.00  0.00    -0.264 N 
HETATM   10  C   UNL     1       6.430  27.383  55.531  1.00  0.00     0.256 C 
HETATM   11  O   UNL     1       7.263  27.972  54.855  1.00  0.00    -0.270 OA
HETATM   12  C   UNL     1       4.242  28.449  54.739  1.00  0.00     0.069 C 
HETATM   13  C   UNL     1       4.770  29.725  54.104  1.00  0.00     0.238 C 
HETATM   14  H   UNL     1       3.602  26.795  57.067  1.00  0.00     0.165 HD
ENDROOT
BRANCH   1  15
HETATM   15  C   UNL     1       3.718  31.544  55.610  1.00  0.00     0.337 C 
BRANCH  15  16
HETATM   16  C   UNL     1       4.054  33.033  55.688  1.00  0.00     0.248 C 
HETATM   17  N   UNL     1       4.450  33.662  56.824  1.00  0.00    -0.326 N 
HETATM   18  H   UNL     1       4.806  34.596  56.627  1.00  0.00     0.169 HD
HETATM   19  O   UNL     1       4.113  33.646  54.613  1.00  0.00    -0.271 OA
BRANCH  17  20
HETATM   20  C   UNL     1       4.571  33.233  58.154  1.00  0.00     0.037 A 
HETATM   21  C   UNL     1       5.758  32.821  58.750  1.00  0.00     0.069 A 
HETATM   22  C   UNL     1       5.776  32.490  60.111  1.00  0.00     0.103 A 
HETATM   23  C   UNL     1       4.605  32.486  60.881  1.00  0.00     0.101 A 
HETATM   24  C   UNL     1       3.409  32.849  60.266  1.00  0.00     0.042 A 
HETATM   25  C   UNL     1       3.393  33.211  58.914  1.00  0.00     0.032 A 
BRANCH  22  26
HETATM   26  O   UNL     1       6.970  32.078  60.646  1.00  0.00    -0.353 OA
HETATM   27  C   UNL     1       7.618  31.155  59.772  1.00  0.00     0.210 C 
ENDBRANCH  22  26
BRANCH  23  28
HETATM   28  O   UNL     1       4.737  32.139  62.197  1.00  0.00    -0.353 OA
HETATM   29  C   UNL     1       4.729  33.200  63.146  1.00  0.00     0.210 C 
ENDBRANCH  23  28
ENDBRANCH  17  20
ENDBRANCH  15  16
ENDBRANCH   1  15
BRANCH   9  30
HETATM   30  C   UNL     1       7.802  25.436  56.261  1.00  0.00     0.175 C 
BRANCH  30  31
HETATM   31  C   UNL     1       7.757  24.220  55.358  1.00  0.00    -0.040 A 
HETATM   32  C   UNL     1       7.714  22.931  55.911  1.00  0.00     0.010 A 
HETATM   33  C   UNL     1       7.759  21.802  55.089  1.00  0.00     0.024 A 
HETATM   34  C   UNL     1       7.845  21.958  53.708  1.00  0.00     0.034 A 
HETATM   35 CL   UNL     1       7.927  20.571  52.696  1.00  0.00    -0.084 Cl
HETATM   36  C   UNL     1       7.881  23.231  53.142  1.00  0.00     0.024 A 
HETATM   37  C   UNL     1       7.841  24.361  53.965  1.00  0.00     0.010 A 
ENDBRANCH  30  31
ENDBRANCH   9  30
TORSDOF 7
ENDMDL
MODEL 5
REMARK VINA RESULT:      -9.0      6.200     10.025
REMARK  7 active torsions:
REMARK  status: ('A' for Active; 'I' for Inactive)
REMARK    1  A    between atoms: O_2  and  C_3 
REMARK    2  A    between atoms: C_4  and  O_5 
REMARK    3  A    between atoms: C_8  and  N_9 
REMARK       I    between atoms: N_9  and  C_10 
REMARK    4  A    between atoms: C_10  and  C_11 
REMARK    5  A    between atoms: C_11  and  N_12 
REMARK    6  A    between atoms: N_20  and  C_21 
REMARK    7  A    between atoms: C_21  and  C_22 
ROOT
HETATM    1  N   UNL     1       5.943  27.881  54.876  1.00  0.00    -0.063 N 
HETATM    2  H   UNL     1       6.352  28.596  55.512  1.00  0.00     0.280 HD
HETATM    3  C   UNL     1       6.951  27.698  53.776  1.00  0.00     0.238 C 
HETATM    4  C   UNL     1       6.362  26.850  52.654  1.00  0.00     0.069 C 
HETATM    5  C   UNL     1       5.018  27.403  52.162  1.00  0.00     0.119 C 
HETATM    6  N   UNL     1       4.440  26.541  51.157  1.00  0.00    -0.324 N 
HETATM    7  C   UNL     1       4.611  27.039  49.882  1.00  0.00     0.326 C 
HETATM    8  O   UNL     1       4.355  26.404  48.877  1.00  0.00    -0.247 OA
HETATM    9  N   UNL     1       5.120  28.297  49.980  1.00  0.00    -0.264 N 
HETATM   10  C   UNL     1       5.303  28.636  51.286  1.00  0.00     0.256 C 
HETATM   11  O   UNL     1       5.728  29.694  51.730  1.00  0.00    -0.270 OA
HETATM   12  C   UNL     1       4.035  27.680  53.294  1.00  0.00     0.069 C 
HETATM   13  C   UNL     1       4.653  28.490  54.422  1.00  0.00     0.238 C 
HETATM   14  H   UNL     1       4.148  25.574  51.265  1.00  0.00     0.165 HD
ENDROOT
BRANCH   1  15
HETATM   15  C   UNL     1       5.833  26.657  55.812  1.00  0.00     0.337 C 
BRANCH  15  16
HETATM   16  C   UNL     1       7.150  26.518  56.573  1.00  0.00     0.248 C 
HETATM   17  N   UNL     1       8.013  25.482  56.413  1.00  0.00    -0.326 N 
HETATM   18  H   UNL     1       8.908  25.671  56.861  1.00  0.00     0.169 HD
HETATM   19  O   UNL     1       7.505  27.493  57.251  1.00  0.00    -0.271 OA
BRANCH  17  20
HETATM   20  C   UNL     1       7.945  24.297  55.665  1.00  0.00     0.037 A 
HETATM   21  C   UNL     1       7.794  23.025  56.206  1.00  0.00     0.069 A 
HETATM   22  C   UNL     1       7.656  21.919  55.357  1.00  0.00     0.103 A 
HETATM   23  C   UNL     1       7.747  22.046  53.964  1.00  0.00     0.101 A 
HETATM   24  C   UNL     1       7.951  23.316  53.430  1.00  0.00     0.042 A 
HETATM   25  C   UNL     1       8.057  24.428  54.274  1.00  0.00     0.032 A 
BRANCH  22  26
HETATM   26  O   UNL     1       7.522  20.685  55.943  1.00  0.00    -0.353 OA
HETATM   27  C   UNL     1       8.712  20.335  56.648  1.00  0.00     0.210 C 
ENDBRANCH  22  26
BRANCH  23  28
HETATM   28  O   UNL     1       7.606  20.900  53.233  1.00  0.00    -0.353 OA
HETATM   29  C   UNL     1       8.803  20.225  52.858  1.00  0.00     0.210 C 
ENDBRANCH  23  28
ENDBRANCH  17  20
ENDBRANCH  15  16
ENDBRANCH   1  15
BRANCH   9  30
HETATM   30  C   UNL     1       5.570  29.079  48.849  1.00  0.00     0.175 C 
BRANCH  30  31
HETATM   31  C   UNL     1       4.405  29.854  48.268  1.00  0.00    -0.040 A 
HETATM   32  C   UNL     1       3.799  30.881  49.010  1.00  0.00     0.010 A 
HETATM   33  C   UNL     1       2.672  31.543  48.519  1.00  0.00     0.024 A 
HETATM   34  C   UNL     1       2.144  31.182  47.282  1.00  0.00     0.034 A 
HETATM   35 CL   UNL     1       0.740  31.977  46.688  1.00  0.00    -0.084 Cl
HETATM   36  C   UNL     1       2.737  30.170  46.529  1.00  0.00     0.024 A 
HETATM   37  C   UNL     1       3.863  29.504  47.022  1.00  0.00     0.010 A 
ENDBRANCH  30  31
ENDBRANCH   9  30
TORSDOF 7
ENDMDL
MODEL 6
REMARK VINA RESULT:      -8.9      4.154     10.834
REMARK  7 active torsions:
REMARK  status: ('A' for Active; 'I' for Inactive)
REMARK    1  A    between atoms: O_2  and  C_3 
REMARK    2  A    between atoms: C_4  and  O_5 
REMARK    3  A    between atoms: C_8  and  N_9 
REMARK       I    between atoms: N_9  and  C_10 
REMARK    4  A    between atoms: C_10  and  C_11 
REMARK    5  A    between atoms: C_11  and  N_12 
REMARK    6  A    between atoms: N_20  and  C_21 
REMARK    7  A    between atoms: C_21  and  C_22 
ROOT
HETATM    1  N   UNL     1       6.491  31.577  60.164  1.00  0.00    -0.063 N 
HETATM    2  H   UNL     1       6.484  30.537  60.112  1.00  0.00     0.280 HD
HETATM    3  C   UNL     1       6.881  31.906  61.577  1.00  0.00     0.238 C 
HETATM    4  C   UNL     1       6.695  33.396  61.844  1.00  0.00     0.069 C 
HETATM    5  C   UNL     1       5.284  33.873  61.474  1.00  0.00     0.119 C 
HETATM    6  N   UNL     1       5.156  35.300  61.658  1.00  0.00    -0.324 N 
HETATM    7  C   UNL     1       4.481  35.617  62.820  1.00  0.00     0.326 C 
HETATM    8  O   UNL     1       4.404  36.749  63.260  1.00  0.00    -0.247 OA
HETATM    9  N   UNL     1       3.981  34.469  63.350  1.00  0.00    -0.264 N 
HETATM   10  C   UNL     1       4.318  33.401  62.576  1.00  0.00     0.256 C 
HETATM   11  O   UNL     1       4.020  32.228  62.752  1.00  0.00    -0.270 OA
HETATM   12  C   UNL     1       4.857  33.449  60.074  1.00  0.00     0.069 C 
HETATM   13  C   UNL     1       5.089  31.970  59.813  1.00  0.00     0.238 C 
HETATM   14  H   UNL     1       5.668  36.035  61.179  1.00  0.00     0.165 HD
ENDROOT
BRANCH   1  15
HETATM   15  C   UNL     1       7.583  31.933  59.130  1.00  0.00     0.337 C 
BRANCH  15  16
HETATM   16  C   UNL     1       8.824  31.097  59.441  1.00  0.00     0.248 C 
HETATM   17  N   UNL     1       9.189  29.993  58.742  1.00  0.00    -0.326 N 
HETATM   18  H   UNL     1      10.134  29.697  58.981  1.00  0.00     0.169 HD
HETATM   19  O   UNL     1       9.609  31.561  60.281  1.00  0.00    -0.271 OA
BRANCH  17  20
HETATM   20  C   UNL     1       8.575  29.284  57.698  1.00  0.00     0.037 A 
HETATM   21  C   UNL     1       7.551  28.358  57.862  1.00  0.00     0.069 A 
HETATM   22  C   UNL     1       6.957  27.770  56.738  1.00  0.00     0.103 A 
HETATM   23  C   UNL     1       7.423  28.029  55.441  1.00  0.00     0.101 A 
HETATM   24  C   UNL     1       8.484  28.917  55.287  1.00  0.00     0.042 A 
HETATM   25  C   UNL     1       9.059  29.531  56.406  1.00  0.00     0.032 A 
BRANCH  22  26
HETATM   26  O   UNL     1       5.959  26.854  56.956  1.00  0.00    -0.353 OA
HETATM   27  C   UNL     1       6.513  25.584  57.301  1.00  0.00     0.210 C 
ENDBRANCH  22  26
BRANCH  23  28
HETATM   28  O   UNL     1       6.775  27.394  54.418  1.00  0.00    -0.353 OA
HETATM   29  C   UNL     1       7.481  26.346  53.762  1.00  0.00     0.210 C 
ENDBRANCH  23  28
ENDBRANCH  17  20
ENDBRANCH  15  16
ENDBRANCH   1  15
BRANCH   9  30
HETATM   30  C   UNL     1       3.341  34.386  64.645  1.00  0.00     0.175 C 
BRANCH  30  31
HETATM   31  C   UNL     1       4.393  34.402  65.736  1.00  0.00    -0.040 A 
HETATM   32  C   UNL     1       4.133  35.043  66.957  1.00  0.00     0.010 A 
HETATM   33  C   UNL     1       5.126  35.137  67.936  1.00  0.00     0.024 A 
HETATM   34  C   UNL     1       6.384  34.590  67.698  1.00  0.00     0.034 A 
HETATM   35 CL   UNL     1       7.615  34.729  68.890  1.00  0.00    -0.084 Cl
HETATM   36  C   UNL     1       6.656  33.944  66.494  1.00  0.00     0.024 A 
HETATM   37  C   UNL     1       5.664  33.852  65.512  1.00  0.00     0.010 A 
ENDBRANCH  30  31
ENDBRANCH   9  30
TORSDOF 7
ENDMDL
MODEL 7
REMARK VINA RESULT:      -8.8      5.000     10.678
REMARK  7 active torsions:
REMARK  status: ('A' for Active; 'I' for Inactive)
REMARK    1  A    between atoms: O_2  and  C_3 
REMARK    2  A    between atoms: C_4  and  O_5 
REMARK    3  A    between atoms: C_8  and  N_9 
REMARK       I    between atoms: N_9  and  C_10 
REMARK    4  A    between atoms: C_10  and  C_11 
REMARK    5  A    between atoms: C_11  and  N_12 
REMARK    6  A    between atoms: N_20  and  C_21 
REMARK    7  A    between atoms: C_21  and  C_22 
ROOT
HETATM    1  N   UNL     1       4.508  29.260  52.569  1.00  0.00    -0.063 N 
HETATM    2  H   UNL     1       4.892  29.970  51.911  1.00  0.00     0.280 HD
HETATM    3  C   UNL     1       4.941  29.705  53.938  1.00  0.00     0.238 C 
HETATM    4  C   UNL     1       4.643  28.618  54.966  1.00  0.00     0.069 C 
HETATM    5  C   UNL     1       5.229  27.262  54.553  1.00  0.00     0.119 C 
HETATM    6  N   UNL     1       4.866  26.232  55.499  1.00  0.00    -0.324 N 
HETATM    7  C   UNL     1       5.903  25.922  56.355  1.00  0.00     0.326 C 
HETATM    8  O   UNL     1       5.773  25.210  57.332  1.00  0.00    -0.247 OA
HETATM    9  N   UNL     1       7.021  26.564  55.921  1.00  0.00    -0.264 N 
HETATM   10  C   UNL     1       6.746  27.300  54.809  1.00  0.00     0.256 C 
HETATM   11  O   UNL     1       7.522  27.985  54.156  1.00  0.00    -0.270 OA
HETATM   12  C   UNL     1       4.867  26.864  53.126  1.00  0.00     0.069 C 
HETATM   13  C   UNL     1       5.132  27.974  52.123  1.00  0.00     0.238 C 
HETATM   14  H   UNL     1       3.934  25.903  55.728  1.00  0.00     0.165 HD
ENDROOT
BRANCH   1  15
HETATM   15  C   UNL     1       2.989  29.405  52.332  1.00  0.00     0.337 C 
BRANCH  15  16
HETATM   16  C   UNL     1       2.771  30.503  51.293  1.00  0.00     0.248 C 
HETATM   17  N   UNL     1       2.601  30.269  49.966  1.00  0.00    -0.326 N 
HETATM   18  H   UNL     1       2.283  31.104  49.478  1.00  0.00     0.169 HD
HETATM   19  O   UNL     1       2.585  31.649  51.726  1.00  0.00    -0.271 OA
BRANCH  17  20
HETATM   20  C   UNL     1       2.661  29.099  49.194  1.00  0.00     0.037 A 
HETATM   21  C   UNL     1       3.818  28.589  48.614  1.00  0.00     0.069 A 
HETATM   22  C   UNL     1       3.774  27.368  47.930  1.00  0.00     0.103 A 
HETATM   23  C   UNL     1       2.570  26.675  47.740  1.00  0.00     0.101 A 
HETATM   24  C   UNL     1       1.405  27.218  48.278  1.00  0.00     0.042 A 
HETATM   25  C   UNL     1       1.451  28.422  48.990  1.00  0.00     0.032 A 
BRANCH  22  26
HETATM   26  O   UNL     1       4.940  26.915  47.366  1.00  0.00    -0.353 OA
HETATM   27  C   UNL     1       5.846  27.998  47.156  1.00  0.00     0.210 C 
ENDBRANCH  22  26
BRANCH  23  28
HETATM   28  O   UNL     1       2.641  25.497  47.050  1.00  0.00    -0.353 OA
HETATM   29  C   UNL     1       2.827  24.312  47.818  1.00  0.00     0.210 C 
ENDBRANCH  23  28
ENDBRANCH  17  20
ENDBRANCH  15  16
ENDBRANCH   1  15
BRANCH   9  30
HETATM   30  C   UNL     1       8.270  26.599  56.650  1.00  0.00     0.175 C 
BRANCH  30  31
HETATM   31  C   UNL     1       8.493  27.987  57.217  1.00  0.00    -0.040 A 
HETATM   32  C   UNL     1       9.673  28.688  56.923  1.00  0.00     0.010 A 
HETATM   33  C   UNL     1       9.926  29.931  57.508  1.00  0.00     0.024 A 
HETATM   34  C   UNL     1       9.000  30.480  58.390  1.00  0.00     0.034 A 
HETATM   35 CL   UNL     1       9.322  31.996  59.132  1.00  0.00    -0.084 Cl
HETATM   36  C   UNL     1       7.820  29.800  58.687  1.00  0.00     0.024 A 
HETATM   37  C   UNL     1       7.568  28.554  58.105  1.00  0.00     0.010 A 
ENDBRANCH  30  31
ENDBRANCH   9  30
TORSDOF 7
ENDMDL
MODEL 8
REMARK VINA RESULT:      -8.7      4.401     10.646
REMARK  7 active torsions:
REMARK  status: ('A' for Active; 'I' for Inactive)
REMARK    1  A    between atoms: O_2  and  C_3 
REMARK    2  A    between atoms: C_4  and  O_5 
REMARK    3  A    between atoms: C_8  and  N_9 
REMARK       I    between atoms: N_9  and  C_10 
REMARK    4  A    between atoms: C_10  and  C_11 
REMARK    5  A    between atoms: C_11  and  N_12 
REMARK    6  A    between atoms: N_20  and  C_21 
REMARK    7  A    between atoms: C_21  and  C_22 
ROOT
HETATM    1  N   UNL     1       6.362  27.063  54.199  1.00  0.00    -0.063 N 
HETATM    2  H   UNL     1       7.282  26.852  53.757  1.00  0.00     0.280 HD
HETATM    3  C   UNL     1       6.059  28.489  53.833  1.00  0.00     0.238 C 
HETATM    4  C   UNL     1       4.852  28.991  54.619  1.00  0.00     0.069 C 
HETATM    5  C   UNL     1       5.018  28.772  56.128  1.00  0.00     0.119 C 
HETATM    6  N   UNL     1       3.832  29.180  56.844  1.00  0.00    -0.324 N 
HETATM    7  C   UNL     1       3.987  30.409  57.452  1.00  0.00     0.326 C 
HETATM    8  O   UNL     1       3.070  31.022  57.964  1.00  0.00    -0.247 OA
HETATM    9  N   UNL     1       5.290  30.781  57.337  1.00  0.00    -0.264 N 
HETATM   10  C   UNL     1       5.997  29.835  56.658  1.00  0.00     0.256 C 
HETATM   11  O   UNL     1       7.191  29.844  56.392  1.00  0.00    -0.270 OA
HETATM   12  C   UNL     1       5.424  27.346  56.484  1.00  0.00     0.069 C 
HETATM   13  C   UNL     1       6.602  26.849  55.661  1.00  0.00     0.238 C 
HETATM   14  H   UNL     1       2.896  28.794  56.763  1.00  0.00     0.165 HD
ENDROOT
BRANCH   1  15
HETATM   15  C   UNL     1       5.439  26.043  53.497  1.00  0.00     0.337 C 
BRANCH  15  16
HETATM   16  C   UNL     1       6.233  25.369  52.380  1.00  0.00     0.248 C 
HETATM   17  N   UNL     1       6.105  25.681  51.065  1.00  0.00    -0.326 N 
HETATM   18  H   UNL     1       6.850  25.262  50.509  1.00  0.00     0.169 HD
HETATM   19  O   UNL     1       7.151  24.613  52.729  1.00  0.00    -0.271 OA
BRANCH  17  20
HETATM   20  C   UNL     1       5.242  26.543  50.372  1.00  0.00     0.037 A 
HETATM   21  C   UNL     1       4.266  26.133  49.470  1.00  0.00     0.069 A 
HETATM   22  C   UNL     1       3.405  27.078  48.898  1.00  0.00     0.103 A 
HETATM   23  C   UNL     1       3.549  28.449  49.149  1.00  0.00     0.101 A 
HETATM   24  C   UNL     1       4.562  28.859  50.013  1.00  0.00     0.042 A 
HETATM   25  C   UNL     1       5.404  27.914  50.611  1.00  0.00     0.032 A 
BRANCH  22  26
HETATM   26  O   UNL     1       2.469  26.622  48.005  1.00  0.00    -0.353 OA
HETATM   27  C   UNL     1       2.915  25.416  47.385  1.00  0.00     0.210 C 
ENDBRANCH  22  26
BRANCH  23  28
HETATM   28  O   UNL     1       2.659  29.283  48.531  1.00  0.00    -0.353 OA
HETATM   29  C   UNL     1       3.137  30.572  48.159  1.00  0.00     0.210 C 
ENDBRANCH  23  28
ENDBRANCH  17  20
ENDBRANCH  15  16
ENDBRANCH   1  15
BRANCH   9  30
HETATM   30  C   UNL     1       5.800  32.078  57.724  1.00  0.00     0.175 C 
BRANCH  30  31
HETATM   31  C   UNL     1       6.324  32.019  59.145  1.00  0.00    -0.040 A 
HETATM   32  C   UNL     1       5.552  32.524  60.203  1.00  0.00     0.010 A 
HETATM   33  C   UNL     1       6.062  32.552  61.504  1.00  0.00     0.024 A 
HETATM   34  C   UNL     1       7.346  32.074  61.753  1.00  0.00     0.034 A 
HETATM   35 CL   UNL     1       7.984  32.133  63.348  1.00  0.00    -0.084 Cl
HETATM   36  C   UNL     1       8.122  31.563  60.714  1.00  0.00     0.024 A 
HETATM   37  C   UNL     1       7.614  31.538  59.412  1.00  0.00     0.010 A 
ENDBRANCH  30  31
ENDBRANCH   9  30
TORSDOF 7
ENDMDL
MODEL 9
REMARK VINA RESULT:      -8.6      4.191     10.535
REMARK  7 active torsions:
REMARK  status: ('A' for Active; 'I' for Inactive)
REMARK    1  A    between atoms: O_2  and  C_3 
REMARK    2  A    between atoms: C_4  and  O_5 
REMARK    3  A    between atoms: C_8  and  N_9 
REMARK       I    between atoms: N_9  and  C_10 
REMARK    4  A    between atoms: C_10  and  C_11 
REMARK    5  A    between atoms: C_11  and  N_12 
REMARK    6  A    between atoms: N_20  and  C_21 
REMARK    7  A    between atoms: C_21  and  C_22 
ROOT
HETATM    1  N   UNL     1       4.043  29.441  55.216  1.00  0.00    -0.063 N 
HETATM    2  H   UNL     1       3.101  29.176  54.861  1.00  0.00     0.280 HD
HETATM    3  C   UNL     1       4.116  28.892  56.613  1.00  0.00     0.238 C 
HETATM    4  C   UNL     1       5.357  29.421  57.325  1.00  0.00     0.069 C 
HETATM    5  C   UNL     1       5.444  30.951  57.267  1.00  0.00     0.119 C 
HETATM    6  N   UNL     1       6.665  31.424  57.876  1.00  0.00    -0.324 N 
HETATM    7  C   UNL     1       6.456  31.923  59.145  1.00  0.00     0.326 C 
HETATM    8  O   UNL     1       7.359  32.219  59.905  1.00  0.00    -0.247 OA
HETATM    9  N   UNL     1       5.115  31.983  59.364  1.00  0.00    -0.264 N 
HETATM   10  C   UNL     1       4.434  31.523  58.278  1.00  0.00     0.256 C 
HETATM   11  O   UNL     1       3.222  31.453  58.132  1.00  0.00    -0.270 OA
HETATM   12  C   UNL     1       5.269  31.507  55.858  1.00  0.00     0.069 C 
HETATM   13  C   UNL     1       4.051  30.937  55.150  1.00  0.00     0.238 C 
HETATM   14  H   UNL     1       7.618  31.231  57.582  1.00  0.00     0.165 HD
ENDROOT
BRANCH   1  15
HETATM   15  C   UNL     1       4.969  28.705  54.222  1.00  0.00     0.337 C 
BRANCH  15  16
HETATM   16  C   UNL     1       4.104  27.801  53.345  1.00  0.00     0.248 C 
HETATM   17  N   UNL     1       4.278  26.460  53.235  1.00  0.00    -0.326 N 
HETATM   18  H   UNL     1       3.491  26.020  52.760  1.00  0.00     0.169 HD
HETATM   19  O   UNL     1       3.098  28.318  52.837  1.00  0.00    -0.271 OA
BRANCH  17  20
HETATM   20  C   UNL     1       5.245  25.583  53.747  1.00  0.00     0.037 A 
HETATM   21  C   UNL     1       5.594  25.480  55.090  1.00  0.00     0.069 A 
HETATM   22  C   UNL     1       6.518  24.511  55.498  1.00  0.00     0.103 A 
HETATM   23  C   UNL     1       7.170  23.683  54.574  1.00  0.00     0.101 A 
HETATM   24  C   UNL     1       6.857  23.825  53.224  1.00  0.00     0.042 A 
HETATM   25  C   UNL     1       5.909  24.772  52.816  1.00  0.00     0.032 A 
BRANCH  22  26
HETATM   26  O   UNL     1       6.836  24.461  56.832  1.00  0.00    -0.353 OA
HETATM   27  C   UNL     1       7.270  25.741  57.290  1.00  0.00     0.210 C 
ENDBRANCH  22  26
BRANCH  23  28
HETATM   28  O   UNL     1       8.060  22.777  55.082  1.00  0.00    -0.353 OA
HETATM   29  C   UNL     1       8.945  22.156  54.155  1.00  0.00     0.210 C 
ENDBRANCH  23  28
ENDBRANCH  17  20
ENDBRANCH  15  16
ENDBRANCH   1  15
BRANCH   9  30
HETATM   30  C   UNL     1       4.516  32.316  60.638  1.00  0.00     0.175 C 
BRANCH  30  31
HETATM   31  C   UNL     1       4.628  33.808  60.882  1.00  0.00    -0.040 A 
HETATM   32  C   UNL     1       5.400  34.293  61.950  1.00  0.00     0.010 A 
HETATM   33  C   UNL     1       5.441  35.660  62.234  1.00  0.00     0.024 A 
HETATM   34  C   UNL     1       4.711  36.550  61.451  1.00  0.00     0.034 A 
HETATM   35 CL   UNL     1       4.738  38.229  61.816  1.00  0.00    -0.084 Cl
HETATM   36  C   UNL     1       3.946  36.086  60.382  1.00  0.00     0.024 A 
HETATM   37  C   UNL     1       3.901  34.717  60.100  1.00  0.00     0.010 A 
ENDBRANCH  30  31
ENDBRANCH   9  30
TORSDOF 7
ENDMDL
MODEL 10
REMARK VINA RESULT:      -8.5      4.827      9.270
REMARK  7 active torsions:
REMARK  status: ('A' for Active; 'I' for Inactive)
REMARK    1  A    between atoms: O_2  and  C_3 
REMARK    2  A    between atoms: C_4  and  O_5 
REMARK    3  A    between atoms: C_8  and  N_9 
REMARK       I    between atoms: N_9  and  C_10 
REMARK    4  A    between atoms: C_10  and  C_11 
REMARK    5  A    between atoms: C_11  and  N_12 
REMARK    6  A    between atoms: N_20  and  C_21 
REMARK    7  A    between atoms: C_21  and  C_22 
ROOT
HETATM    1  N   UNL     1       3.866  29.769  53.921  1.00  0.00    -0.063 N 
HETATM    2  H   UNL     1       2.868  29.579  53.694  1.00  0.00     0.280 HD
HETATM    3  C   UNL     1       4.603  28.505  53.579  1.00  0.00     0.238 C 
HETATM    4  C   UNL     1       6.039  28.576  54.089  1.00  0.00     0.069 C 
HETATM    5  C   UNL     1       6.101  28.932  55.580  1.00  0.00     0.119 C 
HETATM    6  N   UNL     1       7.469  29.073  56.022  1.00  0.00    -0.324 N 
HETATM    7  C   UNL     1       7.907  27.967  56.720  1.00  0.00     0.326 C 
HETATM    8  O   UNL     1       9.068  27.794  57.040  1.00  0.00    -0.247 OA
HETATM    9  N   UNL     1       6.842  27.148  56.935  1.00  0.00    -0.264 N 
HETATM   10  C   UNL     1       5.715  27.679  56.385  1.00  0.00     0.256 C 
HETATM   11  O   UNL     1       4.584  27.213  56.406  1.00  0.00    -0.270 OA
HETATM   12  C   UNL     1       5.269  30.159  55.936  1.00  0.00     0.069 C 
HETATM   13  C   UNL     1       3.855  30.089  55.384  1.00  0.00     0.238 C 
HETATM   14  H   UNL     1       8.157  29.748  55.702  1.00  0.00     0.165 HD
ENDROOT
BRANCH   1  15
HETATM   15  C   UNL     1       4.185  30.940  52.964  1.00  0.00     0.337 C 
BRANCH  15  16
HETATM   16  C   UNL     1       2.866  31.590  52.549  1.00  0.00     0.248 C 
HETATM   17  N   UNL     1       2.152  31.224  51.454  1.00  0.00    -0.326 N 
HETATM   18  H   UNL     1       1.222  31.640  51.461  1.00  0.00     0.169 HD
HETATM   19  O   UNL     1       2.360  32.383  53.356  1.00  0.00    -0.271 OA
BRANCH  17  20
HETATM   20  C   UNL     1       2.403  30.313  50.417  1.00  0.00     0.037 A 
HETATM   21  C   UNL     1       3.461  30.405  49.519  1.00  0.00     0.069 A 
HETATM   22  C   UNL     1       3.661  29.393  48.573  1.00  0.00     0.103 A 
HETATM   23  C   UNL     1       2.773  28.316  48.450  1.00  0.00     0.101 A 
HETATM   24  C   UNL     1       1.685  28.256  49.318  1.00  0.00     0.042 A 
HETATM   25  C   UNL     1       1.499  29.250  50.286  1.00  0.00     0.032 A 
BRANCH  22  26
HETATM   26  O   UNL     1       4.712  29.539  47.702  1.00  0.00    -0.353 OA
HETATM   27  C   UNL     1       4.459  30.606  46.789  1.00  0.00     0.210 C 
ENDBRANCH  22  26
BRANCH  23  28
HETATM   28  O   UNL     1       3.060  27.389  47.487  1.00  0.00    -0.353 OA
HETATM   29  C   UNL     1       3.050  26.022  47.886  1.00  0.00     0.210 C 
ENDBRANCH  23  28
ENDBRANCH  17  20
ENDBRANCH  15  16
ENDBRANCH   1  15
BRANCH   9  30
HETATM   30  C   UNL     1       6.942  25.822  57.506  1.00  0.00     0.175 C 
BRANCH  30  31
HETATM   31  C   UNL     1       7.388  24.840  56.441  1.00  0.00    -0.040 A 
HETATM   32  C   UNL     1       6.605  24.640  55.293  1.00  0.00     0.010 A 
HETATM   33  C   UNL     1       6.964  23.676  54.348  1.00  0.00     0.024 A 
HETATM   34  C   UNL     1       8.108  22.907  54.545  1.00  0.00     0.034 A 
HETATM   35 CL   UNL     1       8.535  21.702  53.397  1.00  0.00    -0.084 Cl
HETATM   36  C   UNL     1       8.899  23.098  55.676  1.00  0.00     0.024 A 
HETATM   37  C   UNL     1       8.539  24.060  56.625  1.00  0.00     0.010 A 
ENDBRANCH  30  31
ENDBRANCH   9  30
TORSDOF 7
ENDMDL
