MODEL 1
REMARK VINA RESULT:      -9.5      0.000      0.000
REMARK  6 active torsions:
REMARK  status: ('A' for Active; 'I' for Inactive)
REMARK    1  A    between atoms: C_2  and  C_4 
REMARK    2  A    between atoms: C_2  and  C_11 
REMARK    3  A    between atoms: C_2  and  O_3 
REMARK    4  A    between atoms: C_11  and  N_12 
REMARK       I    between atoms: N_12  and  C_13 
REMARK    5  A    between atoms: C_13  and  C_14 
REMARK    6  A    between atoms: C_15  and  C_16 
ROOT
HETATM    1  N   UNL     1       8.622  27.358  57.076  1.00  0.00    -0.354 N 
HETATM    2  C   UNL     1       8.189  28.555  57.603  1.00  0.00     0.255 C 
HETATM    3  O   UNL     1       7.044  28.699  58.020  1.00  0.00    -0.268 OA
HETATM    4  H   UNL     1       9.480  27.364  56.540  1.00  0.00     0.162 HD
ENDROOT
BRANCH   2   5
HETATM    5  C   UNL     1       9.178  29.614  57.584  1.00  0.00     0.080 A 
HETATM    6  C   UNL     1       9.425  30.644  58.549  1.00  0.00     0.104 A 
HETATM    7  N   UNL     1      10.487  31.388  58.185  1.00  0.00    -0.174 NA
HETATM    8  N   UNL     1      10.893  30.865  57.025  1.00  0.00    -0.288 N 
HETATM    9  H   UNL     1      11.703  31.278  56.573  1.00  0.00     0.188 HD
HETATM   10  C   UNL     1      10.140  29.814  56.608  1.00  0.00     0.128 A 
BRANCH   6  11
HETATM   11  C   UNL     1       8.690  30.979  59.774  1.00  0.00    -0.004 A 
HETATM   12  C   UNL     1       9.198  30.585  61.025  1.00  0.00     0.017 A 
HETATM   13  C   UNL     1       8.530  30.920  62.205  1.00  0.00     0.043 A 
HETATM   14  C   UNL     1       7.353  31.654  62.138  1.00  0.00     0.116 A 
HETATM   15  F   UNL     1       6.713  31.981  63.269  1.00  0.00    -0.206 F 
HETATM   16  C   UNL     1       6.834  32.062  60.915  1.00  0.00     0.043 A 
HETATM   17  C   UNL     1       7.506  31.731  59.735  1.00  0.00     0.017 A 
ENDBRANCH   6  11
ENDBRANCH   2   5
BRANCH   1  18
HETATM   18  C   UNL     1       7.721  26.224  56.914  1.00  0.00     0.165 C 
BRANCH  18  19
HETATM   19  C   UNL     1       7.056  26.125  55.505  1.00  0.00     0.097 C 
HETATM   20  C   UNL     1       5.536  26.300  55.652  1.00  0.00     0.053 C 
BRANCH  19  21
HETATM   21  C   UNL     1       7.364  24.791  54.815  1.00  0.00    -0.023 A 
HETATM   22  C   UNL     1       7.413  23.589  55.549  1.00  0.00     0.013 A 
HETATM   23  C   UNL     1       7.697  22.373  54.920  1.00  0.00     0.043 A 
HETATM   24  C   UNL     1       7.933  22.347  53.553  1.00  0.00     0.116 A 
HETATM   25  F   UNL     1       8.203  21.180  52.952  1.00  0.00    -0.206 F 
HETATM   26  C   UNL     1       7.888  23.511  52.800  1.00  0.00     0.043 A 
HETATM   27  C   UNL     1       7.603  24.726  53.429  1.00  0.00     0.013 A 
ENDBRANCH  19  21
BRANCH  19  28
HETATM   28  O   UNL     1       7.479  27.209  54.663  1.00  0.00    -0.384 OA
HETATM   29  H   UNL     1       6.750  27.860  54.595  1.00  0.00     0.211 HD
ENDBRANCH  19  28
ENDBRANCH  18  19
ENDBRANCH   1  18
TORSDOF 6
ENDMDL
MODEL 2
REMARK VINA RESULT:      -9.4      5.381      8.420
REMARK  6 active torsions:
REMARK  status: ('A' for Active; 'I' for Inactive)
REMARK    1  A    between atoms: C_2  and  C_4 
REMARK    2  A    between atoms: C_2  and  C_11 
REMARK    3  A    between atoms: C_2  and  O_3 
REMARK    4  A    between atoms: C_11  and  N_12 
REMARK       I    between atoms: N_12  and  C_13 
REMARK    5  A    between atoms: C_13  and  C_14 
REMARK    6  A    between atoms: C_15  and  C_16 
ROOT
HETATM    1  N   UNL     1       6.705  26.389  54.349  1.00  0.00    -0.354 N 
HETATM    2  C   UNL     1       6.144  25.607  55.335  1.00  0.00     0.255 C 
HETATM    3  O   UNL     1       4.938  25.379  55.370  1.00  0.00    -0.268 OA
HETATM    4  H   UNL     1       7.645  26.732  54.500  1.00  0.00     0.162 HD
ENDROOT
BRANCH   2   5
HETATM    5  C   UNL     1       7.084  25.120  56.326  1.00  0.00     0.080 A 
HETATM    6  C   UNL     1       7.916  23.954  56.293  1.00  0.00     0.104 A 
HETATM    7  N   UNL     1       8.700  23.902  57.387  1.00  0.00    -0.174 NA
HETATM    8  N   UNL     1       8.370  24.983  58.099  1.00  0.00    -0.288 N 
HETATM    9  H   UNL     1       8.858  25.144  58.974  1.00  0.00     0.188 HD
HETATM   10  C   UNL     1       7.398  25.738  57.523  1.00  0.00     0.128 A 
BRANCH   6  11
HETATM   11  C   UNL     1       7.984  22.876  55.300  1.00  0.00    -0.004 A 
HETATM   12  C   UNL     1       8.311  23.173  53.965  1.00  0.00     0.017 A 
HETATM   13  C   UNL     1       8.411  22.157  53.011  1.00  0.00     0.043 A 
HETATM   14  C   UNL     1       8.187  20.840  53.390  1.00  0.00     0.116 A 
HETATM   15  F   UNL     1       8.286  19.864  52.478  1.00  0.00    -0.206 F 
HETATM   16  C   UNL     1       7.870  20.519  54.704  1.00  0.00     0.043 A 
HETATM   17  C   UNL     1       7.775  21.535  55.660  1.00  0.00     0.017 A 
ENDBRANCH   6  11
ENDBRANCH   2   5
BRANCH   1  18
HETATM   18  C   UNL     1       5.887  27.051  53.342  1.00  0.00     0.165 C 
BRANCH  18  19
HETATM   19  C   UNL     1       5.628  26.200  52.059  1.00  0.00     0.097 C 
HETATM   20  C   UNL     1       6.872  25.350  51.759  1.00  0.00     0.053 C 
BRANCH  19  21
HETATM   21  C   UNL     1       5.288  27.074  50.846  1.00  0.00    -0.023 A 
HETATM   22  C   UNL     1       4.767  26.507  49.666  1.00  0.00     0.013 A 
HETATM   23  C   UNL     1       4.460  27.305  48.560  1.00  0.00     0.043 A 
HETATM   24  C   UNL     1       4.668  28.675  48.623  1.00  0.00     0.116 A 
HETATM   25  F   UNL     1       4.371  29.438  47.562  1.00  0.00    -0.206 F 
HETATM   26  C   UNL     1       5.174  29.266  49.772  1.00  0.00     0.043 A 
HETATM   27  C   UNL     1       5.480  28.468  50.877  1.00  0.00     0.013 A 
ENDBRANCH  19  21
BRANCH  19  28
HETATM   28  O   UNL     1       4.570  25.254  52.279  1.00  0.00    -0.384 OA
HETATM   29  H   UNL     1       4.404  24.765  51.445  1.00  0.00     0.211 HD
ENDBRANCH  19  28
ENDBRANCH  18  19
ENDBRANCH   1  18
TORSDOF 6
ENDMDL
MODEL 3
REMARK VINA RESULT:      -9.2      2.338      8.780
REMARK  6 active torsions:
REMARK  status: ('A' for Active; 'I' for Inactive)
REMARK    1  A    between atoms: C_2  and  C_4 
REMARK    2  A    between atoms: C_2  and  C_11 
REMARK    3  A    between atoms: C_2  and  O_3 
REMARK    4  A    between atoms: C_11  and  N_12 
REMARK       I    between atoms: N_12  and  C_13 
REMARK    5  A    between atoms: C_13  and  C_14 
REMARK    6  A    between atoms: C_15  and  C_16 
ROOT
HETATM    1  N   UNL     1       6.661  28.332  55.368  1.00  0.00    -0.354 N 
HETATM    2  C   UNL     1       6.985  27.607  54.243  1.00  0.00     0.255 C 
HETATM    3  O   UNL     1       8.069  27.736  53.682  1.00  0.00    -0.268 OA
HETATM    4  H   UNL     1       5.688  28.361  55.644  1.00  0.00     0.162 HD
ENDROOT
BRANCH   2   5
HETATM    5  C   UNL     1       5.935  26.724  53.772  1.00  0.00     0.080 A 
HETATM    6  C   UNL     1       5.894  25.292  53.750  1.00  0.00     0.104 A 
HETATM    7  N   UNL     1       4.702  24.861  53.297  1.00  0.00    -0.174 NA
HETATM    8  N   UNL     1       4.014  25.972  53.023  1.00  0.00    -0.288 N 
HETATM    9  H   UNL     1       3.067  25.873  52.672  1.00  0.00     0.188 HD
HETATM   10  C   UNL     1       4.705  27.115  53.271  1.00  0.00     0.128 A 
BRANCH   6  11
HETATM   11  C   UNL     1       6.931  24.317  54.104  1.00  0.00    -0.004 A 
HETATM   12  C   UNL     1       7.347  24.192  55.442  1.00  0.00     0.017 A 
HETATM   13  C   UNL     1       8.311  23.248  55.804  1.00  0.00     0.043 A 
HETATM   14  C   UNL     1       8.861  22.424  54.831  1.00  0.00     0.116 A 
HETATM   15  F   UNL     1       9.783  21.516  55.177  1.00  0.00    -0.206 F 
HETATM   16  C   UNL     1       8.462  22.523  53.503  1.00  0.00     0.043 A 
HETATM   17  C   UNL     1       7.493  23.464  53.142  1.00  0.00     0.017 A 
ENDBRANCH   6  11
ENDBRANCH   2   5
BRANCH   1  18
HETATM   18  C   UNL     1       7.557  29.348  55.906  1.00  0.00     0.165 C 
BRANCH  18  19
HETATM   19  C   UNL     1       8.242  28.956  57.253  1.00  0.00     0.097 C 
HETATM   20  C   UNL     1       7.549  27.710  57.827  1.00  0.00     0.053 C 
BRANCH  19  21
HETATM   21  C   UNL     1       8.197  30.097  58.276  1.00  0.00    -0.023 A 
HETATM   22  C   UNL     1       9.345  30.462  59.007  1.00  0.00     0.013 A 
HETATM   23  C   UNL     1       9.303  31.500  59.941  1.00  0.00     0.043 A 
HETATM   24  C   UNL     1       8.114  32.186  60.152  1.00  0.00     0.116 A 
HETATM   25  F   UNL     1       8.077  33.182  61.047  1.00  0.00    -0.206 F 
HETATM   26  C   UNL     1       6.967  31.855  59.446  1.00  0.00     0.043 A 
HETATM   27  C   UNL     1       7.011  30.817  58.511  1.00  0.00     0.013 A 
ENDBRANCH  19  21
BRANCH  19  28
HETATM   28  O   UNL     1       9.606  28.561  57.035  1.00  0.00    -0.384 OA
HETATM   29  H   UNL     1      10.169  29.363  57.023  1.00  0.00     0.211 HD
ENDBRANCH  19  28
ENDBRANCH  18  19
ENDBRANCH   1  18
TORSDOF 6
ENDMDL
MODEL 4
REMARK VINA RESULT:      -9.1      3.136      4.353
REMARK  6 active torsions:
REMARK  status: ('A' for Active; 'I' for Inactive)
REMARK    1  A    between atoms: C_2  and  C_4 
REMARK    2  A    between atoms: C_2  and  C_11 
REMARK    3  A    between atoms: C_2  and  O_3 
REMARK    4  A    between atoms: C_11  and  N_12 
REMARK       I    between atoms: N_12  and  C_13 
REMARK    5  A    between atoms: C_13  and  C_14 
REMARK    6  A    between atoms: C_15  and  C_16 
ROOT
HETATM    1  N   UNL     1       5.307  26.524  54.603  1.00  0.00    -0.354 N 
HETATM    2  C   UNL     1       5.615  26.967  55.871  1.00  0.00     0.255 C 
HETATM    3  O   UNL     1       6.125  26.227  56.706  1.00  0.00    -0.268 OA
HETATM    4  H   UNL     1       4.685  27.094  54.045  1.00  0.00     0.162 HD
ENDROOT
BRANCH   2   5
HETATM    5  C   UNL     1       5.253  28.347  56.131  1.00  0.00     0.080 A 
HETATM    6  C   UNL     1       6.095  29.466  56.432  1.00  0.00     0.104 A 
HETATM    7  N   UNL     1       5.365  30.592  56.536  1.00  0.00    -0.174 NA
HETATM    8  N   UNL     1       4.104  30.207  56.326  1.00  0.00    -0.288 N 
HETATM    9  H   UNL     1       3.378  30.916  56.350  1.00  0.00     0.188 HD
HETATM   10  C   UNL     1       3.973  28.874  56.096  1.00  0.00     0.128 A 
BRANCH   6  11
HETATM   11  C   UNL     1       7.544  29.517  56.658  1.00  0.00    -0.004 A 
HETATM   12  C   UNL     1       8.427  29.212  55.607  1.00  0.00     0.017 A 
HETATM   13  C   UNL     1       9.810  29.285  55.794  1.00  0.00     0.043 A 
HETATM   14  C   UNL     1      10.314  29.666  57.030  1.00  0.00     0.116 A 
HETATM   15  F   UNL     1      11.640  29.740  57.209  1.00  0.00    -0.206 F 
HETATM   16  C   UNL     1       9.462  29.980  58.082  1.00  0.00     0.043 A 
HETATM   17  C   UNL     1       8.079  29.912  57.894  1.00  0.00     0.017 A 
ENDBRANCH   6  11
ENDBRANCH   2   5
BRANCH   1  18
HETATM   18  C   UNL     1       5.499  25.134  54.212  1.00  0.00     0.165 C 
BRANCH  18  19
HETATM   19  C   UNL     1       6.914  24.816  53.633  1.00  0.00     0.097 C 
HETATM   20  C   UNL     1       6.891  25.019  52.110  1.00  0.00     0.053 C 
BRANCH  19  21
HETATM   21  C   UNL     1       7.364  23.387  53.963  1.00  0.00    -0.023 A 
HETATM   22  C   UNL     1       7.756  22.497  52.943  1.00  0.00     0.013 A 
HETATM   23  C   UNL     1       8.163  21.194  53.245  1.00  0.00     0.043 A 
HETATM   24  C   UNL     1       8.184  20.770  54.566  1.00  0.00     0.116 A 
HETATM   25  F   UNL     1       8.576  19.521  54.852  1.00  0.00    -0.206 F 
HETATM   26  C   UNL     1       7.808  21.623  55.593  1.00  0.00     0.043 A 
HETATM   27  C   UNL     1       7.403  22.925  55.292  1.00  0.00     0.013 A 
ENDBRANCH  19  21
BRANCH  19  28
HETATM   28  O   UNL     1       7.888  25.750  54.123  1.00  0.00    -0.384 OA
HETATM   29  H   UNL     1       8.255  25.411  54.967  1.00  0.00     0.211 HD
ENDBRANCH  19  28
ENDBRANCH  18  19
ENDBRANCH   1  18
TORSDOF 6
ENDMDL
MODEL 5
REMARK VINA RESULT:      -9.1      3.958      7.878
REMARK  6 active torsions:
REMARK  status: ('A' for Active; 'I' for Inactive)
REMARK    1  A    between atoms: C_2  and  C_4 
REMARK    2  A    between atoms: C_2  and  C_11 
REMARK    3  A    between atoms: C_2  and  O_3 
REMARK    4  A    between atoms: C_11  and  N_12 
REMARK       I    between atoms: N_12  and  C_13 
REMARK    5  A    between atoms: C_13  and  C_14 
REMARK    6  A    between atoms: C_15  and  C_16 
ROOT
HETATM    1  N   UNL     1       6.563  24.788  56.444  1.00  0.00    -0.354 N 
HETATM    2  C   UNL     1       7.894  24.436  56.461  1.00  0.00     0.255 C 
HETATM    3  O   UNL     1       8.679  24.921  57.271  1.00  0.00    -0.268 OA
HETATM    4  H   UNL     1       6.023  24.545  55.623  1.00  0.00     0.162 HD
ENDROOT
BRANCH   2   5
HETATM    5  C   UNL     1       8.281  23.491  55.431  1.00  0.00     0.080 A 
HETATM    6  C   UNL     1       7.978  23.498  54.031  1.00  0.00     0.104 A 
HETATM    7  N   UNL     1       8.592  22.473  53.410  1.00  0.00    -0.174 NA
HETATM    8  N   UNL     1       9.249  21.827  54.377  1.00  0.00    -0.288 N 
HETATM    9  H   UNL     1       9.797  21.012  54.120  1.00  0.00     0.188 HD
HETATM   10  C   UNL     1       9.087  22.379  55.608  1.00  0.00     0.128 A 
BRANCH   6  11
HETATM   11  C   UNL     1       7.114  24.400  53.262  1.00  0.00    -0.004 A 
HETATM   12  C   UNL     1       7.644  25.587  52.725  1.00  0.00     0.017 A 
HETATM   13  C   UNL     1       6.845  26.444  51.963  1.00  0.00     0.043 A 
HETATM   14  C   UNL     1       5.517  26.116  51.733  1.00  0.00     0.116 A 
HETATM   15  F   UNL     1       4.751  26.934  50.999  1.00  0.00    -0.206 F 
HETATM   16  C   UNL     1       4.972  24.945  52.245  1.00  0.00     0.043 A 
HETATM   17  C   UNL     1       5.771  24.084  53.003  1.00  0.00     0.017 A 
ENDBRANCH   6  11
ENDBRANCH   2   5
BRANCH   1  18
HETATM   18  C   UNL     1       6.031  25.811  57.335  1.00  0.00     0.165 C 
BRANCH  18  19
HETATM   19  C   UNL     1       5.823  27.206  56.665  1.00  0.00     0.097 C 
HETATM   20  C   UNL     1       5.174  27.010  55.286  1.00  0.00     0.053 C 
BRANCH  19  21
HETATM   21  C   UNL     1       7.141  27.976  56.518  1.00  0.00    -0.023 A 
HETATM   22  C   UNL     1       7.851  28.423  57.651  1.00  0.00     0.013 A 
HETATM   23  C   UNL     1       9.050  29.127  57.516  1.00  0.00     0.043 A 
HETATM   24  C   UNL     1       9.553  29.390  56.249  1.00  0.00     0.116 A 
HETATM   25  F   UNL     1      10.704  30.064  56.123  1.00  0.00    -0.206 F 
HETATM   26  C   UNL     1       8.881  28.961  55.114  1.00  0.00     0.043 A 
HETATM   27  C   UNL     1       7.683  28.255  55.249  1.00  0.00     0.013 A 
ENDBRANCH  19  21
BRANCH  19  28
HETATM   28  O   UNL     1       4.887  27.997  57.413  1.00  0.00    -0.384 OA
HETATM   29  H   UNL     1       4.283  27.396  57.899  1.00  0.00     0.211 HD
ENDBRANCH  19  28
ENDBRANCH  18  19
ENDBRANCH   1  18
TORSDOF 6
ENDMDL
MODEL 6
REMARK VINA RESULT:      -9.0      2.548      8.820
REMARK  6 active torsions:
REMARK  status: ('A' for Active; 'I' for Inactive)
REMARK    1  A    between atoms: C_2  and  C_4 
REMARK    2  A    between atoms: C_2  and  C_11 
REMARK    3  A    between atoms: C_2  and  O_3 
REMARK    4  A    between atoms: C_11  and  N_12 
REMARK       I    between atoms: N_12  and  C_13 
REMARK    5  A    between atoms: C_13  and  C_14 
REMARK    6  A    between atoms: C_15  and  C_16 
ROOT
HETATM    1  N   UNL     1       6.689  27.446  55.555  1.00  0.00    -0.354 N 
HETATM    2  C   UNL     1       5.658  26.537  55.470  1.00  0.00     0.255 C 
HETATM    3  O   UNL     1       5.018  26.193  56.460  1.00  0.00    -0.268 OA
HETATM    4  H   UNL     1       7.323  27.512  54.769  1.00  0.00     0.162 HD
ENDROOT
BRANCH   2   5
HETATM    5  C   UNL     1       5.429  26.008  54.140  1.00  0.00     0.080 A 
HETATM    6  C   UNL     1       5.938  24.812  53.537  1.00  0.00     0.104 A 
HETATM    7  N   UNL     1       5.423  24.649  52.303  1.00  0.00    -0.174 NA
HETATM    8  N   UNL     1       4.629  25.706  52.118  1.00  0.00    -0.288 N 
HETATM    9  H   UNL     1       4.126  25.777  51.239  1.00  0.00     0.188 HD
HETATM   10  C   UNL     1       4.606  26.561  53.174  1.00  0.00     0.128 A 
BRANCH   6  11
HETATM   11  C   UNL     1       6.907  23.839  54.054  1.00  0.00    -0.004 A 
HETATM   12  C   UNL     1       7.773  23.175  53.167  1.00  0.00     0.017 A 
HETATM   13  C   UNL     1       8.724  22.268  53.643  1.00  0.00     0.043 A 
HETATM   14  C   UNL     1       8.814  22.025  55.006  1.00  0.00     0.116 A 
HETATM   15  F   UNL     1       9.728  21.159  55.465  1.00  0.00    -0.206 F 
HETATM   16  C   UNL     1       7.975  22.674  55.904  1.00  0.00     0.043 A 
HETATM   17  C   UNL     1       7.027  23.585  55.429  1.00  0.00     0.017 A 
ENDBRANCH   6  11
ENDBRANCH   2   5
BRANCH   1  18
HETATM   18  C   UNL     1       7.126  27.988  56.835  1.00  0.00     0.165 C 
BRANCH  18  19
HETATM   19  C   UNL     1       6.394  29.298  57.265  1.00  0.00     0.097 C 
HETATM   20  C   UNL     1       6.000  30.090  56.008  1.00  0.00     0.053 C 
BRANCH  19  21
HETATM   21  C   UNL     1       7.263  30.169  58.180  1.00  0.00    -0.023 A 
HETATM   22  C   UNL     1       8.617  29.854  58.410  1.00  0.00     0.013 A 
HETATM   23  C   UNL     1       9.407  30.647  59.247  1.00  0.00     0.043 A 
HETATM   24  C   UNL     1       8.853  31.762  59.860  1.00  0.00     0.116 A 
HETATM   25  F   UNL     1       9.614  32.521  60.660  1.00  0.00    -0.206 F 
HETATM   26  C   UNL     1       7.525  32.102  59.651  1.00  0.00     0.043 A 
HETATM   27  C   UNL     1       6.736  31.311  58.813  1.00  0.00     0.013 A 
ENDBRANCH  19  21
BRANCH  19  28
HETATM   28  O   UNL     1       5.155  28.998  57.924  1.00  0.00    -0.384 OA
HETATM   29  H   UNL     1       4.423  29.080  57.277  1.00  0.00     0.211 HD
ENDBRANCH  19  28
ENDBRANCH  18  19
ENDBRANCH   1  18
TORSDOF 6
ENDMDL
MODEL 7
REMARK VINA RESULT:      -8.9      4.041      5.441
REMARK  6 active torsions:
REMARK  status: ('A' for Active; 'I' for Inactive)
REMARK    1  A    between atoms: C_2  and  C_4 
REMARK    2  A    between atoms: C_2  and  C_11 
REMARK    3  A    between atoms: C_2  and  O_3 
REMARK    4  A    between atoms: C_11  and  N_12 
REMARK       I    between atoms: N_12  and  C_13 
REMARK    5  A    between atoms: C_13  and  C_14 
REMARK    6  A    between atoms: C_15  and  C_16 
ROOT
HETATM    1  N   UNL     1       4.927  25.925  53.595  1.00  0.00    -0.354 N 
HETATM    2  C   UNL     1       4.687  26.858  52.611  1.00  0.00     0.255 C 
HETATM    3  O   UNL     1       4.919  26.623  51.428  1.00  0.00    -0.268 OA
HETATM    4  H   UNL     1       4.942  26.247  54.554  1.00  0.00     0.162 HD
ENDROOT
BRANCH   2   5
HETATM    5  C   UNL     1       4.182  28.128  53.095  1.00  0.00     0.080 A 
HETATM    6  C   UNL     1       4.683  28.964  54.146  1.00  0.00     0.104 A 
HETATM    7  N   UNL     1       3.962  30.099  54.230  1.00  0.00    -0.174 NA
HETATM    8  N   UNL     1       3.028  29.986  53.282  1.00  0.00    -0.288 N 
HETATM    9  H   UNL     1       2.373  30.752  53.165  1.00  0.00     0.188 HD
HETATM   10  C   UNL     1       3.100  28.823  52.583  1.00  0.00     0.128 A 
BRANCH   6  11
HETATM   11  C   UNL     1       5.780  28.729  55.090  1.00  0.00    -0.004 A 
HETATM   12  C   UNL     1       7.113  28.830  54.653  1.00  0.00     0.017 A 
HETATM   13  C   UNL     1       8.173  28.641  55.544  1.00  0.00     0.043 A 
HETATM   14  C   UNL     1       7.903  28.353  56.875  1.00  0.00     0.116 A 
HETATM   15  F   UNL     1       8.918  28.176  57.732  1.00  0.00    -0.206 F 
HETATM   16  C   UNL     1       6.595  28.256  57.333  1.00  0.00     0.043 A 
HETATM   17  C   UNL     1       5.535  28.450  56.443  1.00  0.00     0.017 A 
ENDBRANCH   6  11
ENDBRANCH   2   5
BRANCH   1  18
HETATM   18  C   UNL     1       5.541  24.638  53.294  1.00  0.00     0.165 C 
BRANCH  18  19
HETATM   19  C   UNL     1       7.058  24.548  53.653  1.00  0.00     0.097 C 
HETATM   20  C   UNL     1       7.888  25.050  52.461  1.00  0.00     0.053 C 
BRANCH  19  21
HETATM   21  C   UNL     1       7.480  23.120  54.019  1.00  0.00    -0.023 A 
HETATM   22  C   UNL     1       7.495  22.690  55.361  1.00  0.00     0.013 A 
HETATM   23  C   UNL     1       7.882  21.389  55.694  1.00  0.00     0.043 A 
HETATM   24  C   UNL     1       8.255  20.505  54.690  1.00  0.00     0.116 A 
HETATM   25  F   UNL     1       8.624  19.258  55.012  1.00  0.00    -0.206 F 
HETATM   26  C   UNL     1       8.247  20.896  53.359  1.00  0.00     0.043 A 
HETATM   27  C   UNL     1       7.858  22.196  53.027  1.00  0.00     0.013 A 
ENDBRANCH  19  21
BRANCH  19  28
HETATM   28  O   UNL     1       7.380  25.435  54.735  1.00  0.00    -0.384 OA
HETATM   29  H   UNL     1       6.548  25.810  55.095  1.00  0.00     0.211 HD
ENDBRANCH  19  28
ENDBRANCH  18  19
ENDBRANCH   1  18
TORSDOF 6
ENDMDL
MODEL 8
REMARK VINA RESULT:      -8.8      3.680      5.356
REMARK  6 active torsions:
REMARK  status: ('A' for Active; 'I' for Inactive)
REMARK    1  A    between atoms: C_2  and  C_4 
REMARK    2  A    between atoms: C_2  and  C_11 
REMARK    3  A    between atoms: C_2  and  O_3 
REMARK    4  A    between atoms: C_11  and  N_12 
REMARK       I    between atoms: N_12  and  C_13 
REMARK    5  A    between atoms: C_13  and  C_14 
REMARK    6  A    between atoms: C_15  and  C_16 
ROOT
HETATM    1  N   UNL     1       5.549  29.349  54.766  1.00  0.00    -0.354 N 
HETATM    2  C   UNL     1       5.131  28.981  56.026  1.00  0.00     0.255 C 
HETATM    3  O   UNL     1       3.985  28.597  56.238  1.00  0.00    -0.268 OA
HETATM    4  H   UNL     1       6.411  29.873  54.692  1.00  0.00     0.162 HD
ENDROOT
BRANCH   2   5
HETATM    5  C   UNL     1       6.137  29.123  57.060  1.00  0.00     0.080 A 
HETATM    6  C   UNL     1       7.078  28.160  57.551  1.00  0.00     0.104 A 
HETATM    7  N   UNL     1       7.888  28.718  58.470  1.00  0.00    -0.174 NA
HETATM    8  N   UNL     1       7.472  29.983  58.575  1.00  0.00    -0.288 N 
HETATM    9  H   UNL     1       7.963  30.595  59.220  1.00  0.00     0.188 HD
HETATM   10  C   UNL     1       6.418  30.278  57.770  1.00  0.00     0.128 A 
BRANCH   6  11
HETATM   11  C   UNL     1       7.226  26.739  57.220  1.00  0.00    -0.004 A 
HETATM   12  C   UNL     1       8.503  26.152  57.209  1.00  0.00     0.017 A 
HETATM   13  C   UNL     1       8.662  24.793  56.926  1.00  0.00     0.043 A 
HETATM   14  C   UNL     1       7.544  24.016  56.657  1.00  0.00     0.116 A 
HETATM   15  F   UNL     1       7.694  22.711  56.390  1.00  0.00    -0.206 F 
HETATM   16  C   UNL     1       6.270  24.570  56.670  1.00  0.00     0.043 A 
HETATM   17  C   UNL     1       6.110  25.928  56.957  1.00  0.00     0.017 A 
ENDBRANCH   6  11
ENDBRANCH   2   5
BRANCH   1  18
HETATM   18  C   UNL     1       4.631  29.377  53.634  1.00  0.00     0.165 C 
BRANCH  18  19
HETATM   19  C   UNL     1       5.159  28.648  52.358  1.00  0.00     0.097 C 
HETATM   20  C   UNL     1       4.052  28.634  51.293  1.00  0.00     0.053 C 
BRANCH  19  21
HETATM   21  C   UNL     1       5.613  27.215  52.659  1.00  0.00    -0.023 A 
HETATM   22  C   UNL     1       4.693  26.148  52.661  1.00  0.00     0.013 A 
HETATM   23  C   UNL     1       5.107  24.842  52.939  1.00  0.00     0.043 A 
HETATM   24  C   UNL     1       6.444  24.590  53.214  1.00  0.00     0.116 A 
HETATM   25  F   UNL     1       6.838  23.337  53.478  1.00  0.00    -0.206 F 
HETATM   26  C   UNL     1       7.376  25.618  53.216  1.00  0.00     0.043 A 
HETATM   27  C   UNL     1       6.962  26.922  52.937  1.00  0.00     0.013 A 
ENDBRANCH  19  21
BRANCH  19  28
HETATM   28  O   UNL     1       6.243  29.380  51.764  1.00  0.00    -0.384 OA
HETATM   29  H   UNL     1       6.761  28.772  51.196  1.00  0.00     0.211 HD
ENDBRANCH  19  28
ENDBRANCH  18  19
ENDBRANCH   1  18
TORSDOF 6
ENDMDL
MODEL 9
REMARK VINA RESULT:      -8.7      6.285      9.173
REMARK  6 active torsions:
REMARK  status: ('A' for Active; 'I' for Inactive)
REMARK    1  A    between atoms: C_2  and  C_4 
REMARK    2  A    between atoms: C_2  and  C_11 
REMARK    3  A    between atoms: C_2  and  O_3 
REMARK    4  A    between atoms: C_11  and  N_12 
REMARK       I    between atoms: N_12  and  C_13 
REMARK    5  A    between atoms: C_13  and  C_14 
REMARK    6  A    between atoms: C_15  and  C_16 
ROOT
HETATM    1  N   UNL     1       5.122  26.272  53.024  1.00  0.00    -0.354 N 
HETATM    2  C   UNL     1       5.038  26.537  51.675  1.00  0.00     0.255 C 
HETATM    3  O   UNL     1       5.008  25.637  50.841  1.00  0.00    -0.268 OA
HETATM    4  H   UNL     1       5.379  27.034  53.637  1.00  0.00     0.162 HD
ENDROOT
BRANCH   2   5
HETATM    5  C   UNL     1       5.027  27.947  51.338  1.00  0.00     0.080 A 
HETATM    6  C   UNL     1       4.300  28.629  50.308  1.00  0.00     0.104 A 
HETATM    7  N   UNL     1       4.516  29.957  50.379  1.00  0.00    -0.174 NA
HETATM    8  N   UNL     1       5.359  30.116  51.402  1.00  0.00    -0.288 N 
HETATM    9  H   UNL     1       5.650  31.059  51.639  1.00  0.00     0.188 HD
HETATM   10  C   UNL     1       5.713  28.949  52.002  1.00  0.00     0.128 A 
BRANCH   6  11
HETATM   11  C   UNL     1       3.443  28.089  49.247  1.00  0.00    -0.004 A 
HETATM   12  C   UNL     1       4.020  27.407  48.161  1.00  0.00     0.017 A 
HETATM   13  C   UNL     1       3.220  26.857  47.157  1.00  0.00     0.043 A 
HETATM   14  C   UNL     1       1.840  26.985  47.236  1.00  0.00     0.116 A 
HETATM   15  F   UNL     1       1.070  26.455  46.276  1.00  0.00    -0.206 F 
HETATM   16  C   UNL     1       1.245  27.647  48.303  1.00  0.00     0.043 A 
HETATM   17  C   UNL     1       2.045  28.193  49.311  1.00  0.00     0.017 A 
ENDBRANCH   6  11
ENDBRANCH   2   5
BRANCH   1  18
HETATM   18  C   UNL     1       5.259  24.911  53.527  1.00  0.00     0.165 C 
BRANCH  18  19
HETATM   19  C   UNL     1       6.406  24.721  54.570  1.00  0.00     0.097 C 
HETATM   20  C   UNL     1       7.414  25.872  54.425  1.00  0.00     0.053 C 
BRANCH  19  21
HETATM   21  C   UNL     1       7.121  23.375  54.401  1.00  0.00    -0.023 A 
HETATM   22  C   UNL     1       7.490  22.905  53.125  1.00  0.00     0.013 A 
HETATM   23  C   UNL     1       8.139  21.677  52.972  1.00  0.00     0.043 A 
HETATM   24  C   UNL     1       8.427  20.908  54.091  1.00  0.00     0.116 A 
HETATM   25  F   UNL     1       9.051  19.732  53.941  1.00  0.00    -0.206 F 
HETATM   26  C   UNL     1       8.081  21.344  55.362  1.00  0.00     0.043 A 
HETATM   27  C   UNL     1       7.434  22.573  55.514  1.00  0.00     0.013 A 
ENDBRANCH  19  21
BRANCH  19  28
HETATM   28  O   UNL     1       5.901  24.831  55.910  1.00  0.00    -0.384 OA
HETATM   29  H   UNL     1       6.656  24.822  56.534  1.00  0.00     0.211 HD
ENDBRANCH  19  28
ENDBRANCH  18  19
ENDBRANCH   1  18
TORSDOF 6
ENDMDL
MODEL 10
REMARK VINA RESULT:      -8.7      5.191      8.300
REMARK  6 active torsions:
REMARK  status: ('A' for Active; 'I' for Inactive)
REMARK    1  A    between atoms: C_2  and  C_4 
REMARK    2  A    between atoms: C_2  and  C_11 
REMARK    3  A    between atoms: C_2  and  O_3 
REMARK    4  A    between atoms: C_11  and  N_12 
REMARK       I    between atoms: N_12  and  C_13 
REMARK    5  A    between atoms: C_13  and  C_14 
REMARK    6  A    between atoms: C_15  and  C_16 
ROOT
HETATM    1  N   UNL     1       5.373  27.388  54.377  1.00  0.00    -0.354 N 
HETATM    2  C   UNL     1       5.618  26.057  54.635  1.00  0.00     0.255 C 
HETATM    3  O   UNL     1       4.999  25.164  54.065  1.00  0.00    -0.268 OA
HETATM    4  H   UNL     1       5.735  28.068  55.033  1.00  0.00     0.162 HD
ENDROOT
BRANCH   2   5
HETATM    5  C   UNL     1       6.628  25.816  55.648  1.00  0.00     0.080 A 
HETATM    6  C   UNL     1       7.566  24.739  55.757  1.00  0.00     0.104 A 
HETATM    7  N   UNL     1       8.381  24.928  56.812  1.00  0.00    -0.174 NA
HETATM    8  N   UNL     1       7.971  26.072  57.365  1.00  0.00    -0.288 N 
HETATM    9  H   UNL     1       8.466  26.410  58.184  1.00  0.00     0.188 HD
HETATM   10  C   UNL     1       6.916  26.639  56.723  1.00  0.00     0.128 A 
BRANCH   6  11
HETATM   11  C   UNL     1       7.707  23.530  54.938  1.00  0.00    -0.004 A 
HETATM   12  C   UNL     1       8.006  23.643  53.568  1.00  0.00     0.017 A 
HETATM   13  C   UNL     1       8.176  22.503  52.778  1.00  0.00     0.043 A 
HETATM   14  C   UNL     1       8.049  21.247  53.355  1.00  0.00     0.116 A 
HETATM   15  F   UNL     1       8.215  20.153  52.599  1.00  0.00    -0.206 F 
HETATM   16  C   UNL     1       7.762  21.108  54.707  1.00  0.00     0.043 A 
HETATM   17  C   UNL     1       7.597  22.248  55.499  1.00  0.00     0.017 A 
ENDBRANCH   6  11
ENDBRANCH   2   5
BRANCH   1  18
HETATM   18  C   UNL     1       4.310  27.807  53.472  1.00  0.00     0.165 C 
BRANCH  18  19
HETATM   19  C   UNL     1       4.785  28.725  52.302  1.00  0.00     0.097 C 
HETATM   20  C   UNL     1       4.190  30.129  52.491  1.00  0.00     0.053 C 
BRANCH  19  21
HETATM   21  C   UNL     1       4.381  28.167  50.932  1.00  0.00    -0.023 A 
HETATM   22  C   UNL     1       3.402  28.808  50.147  1.00  0.00     0.013 A 
HETATM   23  C   UNL     1       3.033  28.297  48.900  1.00  0.00     0.043 A 
HETATM   24  C   UNL     1       3.639  27.143  48.424  1.00  0.00     0.116 A 
HETATM   25  F   UNL     1       3.284  26.656  47.228  1.00  0.00    -0.206 F 
HETATM   26  C   UNL     1       4.609  26.489  49.170  1.00  0.00     0.043 A 
HETATM   27  C   UNL     1       4.979  27.002  50.416  1.00  0.00     0.013 A 
ENDBRANCH  19  21
BRANCH  19  28
HETATM   28  O   UNL     1       6.208  28.911  52.343  1.00  0.00    -0.384 OA
HETATM   29  H   UNL     1       6.635  28.044  52.509  1.00  0.00     0.211 HD
ENDBRANCH  19  28
ENDBRANCH  18  19
ENDBRANCH   1  18
TORSDOF 6
ENDMDL
