MODEL 1
REMARK VINA RESULT:     -10.1      0.000      0.000
REMARK  8 active torsions:
REMARK  status: ('A' for Active; 'I' for Inactive)
REMARK    1  A    between atoms: C_1  and  C_15 
REMARK    2  A    between atoms: C_2  and  C_5 
REMARK    3  A    between atoms: C_5  and  C_13 
REMARK       I    between atoms: C_7  and  N_8 
REMARK    4  A    between atoms: N_8  and  C_9 
REMARK       I    between atoms: C_13  and  N_14 
REMARK    5  A    between atoms: N_14  and  C_15 
REMARK    6  A    between atoms: C_23  and  C_24 
REMARK    7  A    between atoms: C_24  and  O_25 
REMARK    8  A    between atoms: C_27  and  O_28 
ROOT
HETATM    1  C           1       7.371  26.701  56.561  0.00  0.00     0.056 C 
HETATM    2  C           1       5.922  29.103  55.387  0.00  0.00     0.055 C 
HETATM    3  C           1       6.088  27.757  54.643  0.00  0.00     0.012 C 
HETATM    4  C           1       7.798  29.586  58.465  0.00  0.00     0.173 A 
HETATM    5  S           1       6.992  30.324  57.491  0.00  0.00    -0.055 SA
HETATM    6  C           1       6.771  29.159  56.624  0.00  0.00     0.012 A 
HETATM    7  C           1       7.397  28.091  57.128  0.00  0.00     0.056 A 
HETATM    8  C           1       6.120  26.542  55.631  0.00  0.00    -0.030 C 
HETATM    9  C           1       4.860  26.462  56.520  0.00  0.00     0.016 C 
HETATM   10  C           1       5.227  27.644  53.337  0.00  0.00     0.008 C 
HETATM   11  C           1       5.713  28.725  52.330  0.00  0.00     0.020 C 
HETATM   12  C           1       5.483  26.266  52.692  0.00  0.00     0.128 C 
HETATM   13  C           1       5.301  25.101  53.658  0.00  0.00     0.033 C 
HETATM   14  C           1       6.277  25.227  54.831  0.00  0.00     0.013 C 
HETATM   15  N           1       7.990  28.366  58.203  0.00  0.00    -0.227 NA
ENDROOT
BRANCH   1  16
HETATM   16  C           1       7.538  25.656  57.688  0.00  0.00     0.114 C 
BRANCH  16  17
HETATM   17  C           1       8.445  24.494  57.293  0.00  0.00     0.218 C 
HETATM   18  N           1       7.816  23.293  57.112  0.00  0.00    -0.355 N 
HETATM   19  H           1       6.827  23.189  57.348  0.00  0.00     0.162 HD
HETATM   20  O           1       9.634  24.639  57.155  0.00  0.00    -0.274 OA
BRANCH  18  21
HETATM   21  C           1       8.534  22.098  56.666  0.00  0.00     0.187 C 
BRANCH  21  22
HETATM   22  C           1       8.359  21.962  55.181  0.00  0.00     0.070 A 
HETATM   23  C           1       7.860  20.892  54.543  0.00  0.00     0.036 A 
HETATM   24  C           1       7.873  21.233  53.250  0.00  0.00     0.027 A 
HETATM   25  C           1       8.383  22.471  53.249  0.00  0.00     0.142 A 
HETATM   26  O           1       8.654  22.855  54.385  0.00  0.00    -0.325 OA
ENDBRANCH  21  22
ENDBRANCH  18  21
ENDBRANCH  16  17
ENDBRANCH   1  16
BRANCH  10  27
HETATM   27  C           1       3.719  27.874  53.561  0.00  0.00     0.176 C 
BRANCH  27  28
HETATM   28  O           1       3.062  28.248  52.363  0.00  0.00    -0.400 OA
HETATM   29  H           1       2.636  29.098  52.476  0.00  0.00     0.209 HD
ENDBRANCH  27  28
ENDBRANCH  10  27
BRANCH   4  30
HETATM   30  N           1       8.169  30.189  59.611  0.00  0.00    -0.306 N 
HETATM   31  C           1       8.863  31.356  59.761  0.00  0.00     0.219 C 
HETATM   32  C           1       9.060  31.777  61.204  0.00  0.00     0.117 C 
HETATM   33  O           1       9.290  31.992  58.831  0.00  0.00    -0.274 OA
HETATM   34  H           1       7.926  29.645  60.426  0.00  0.00     0.171 HD
ENDBRANCH   4  30
BRANCH  12  35
HETATM   35  O           1       4.631  26.055  51.592  0.00  0.00    -0.395 OA
HETATM   36  H           1       3.847  26.601  51.672  0.00  0.00     0.210 HD
ENDBRANCH  12  35
TORSDOF 8
ENDMDL
MODEL 2
REMARK VINA RESULT:      -8.9      3.013      6.896
REMARK  8 active torsions:
REMARK  status: ('A' for Active; 'I' for Inactive)
REMARK    1  A    between atoms: C_1  and  C_15 
REMARK    2  A    between atoms: C_2  and  C_5 
REMARK    3  A    between atoms: C_5  and  C_13 
REMARK       I    between atoms: C_7  and  N_8 
REMARK    4  A    between atoms: N_8  and  C_9 
REMARK       I    between atoms: C_13  and  N_14 
REMARK    5  A    between atoms: N_14  and  C_15 
REMARK    6  A    between atoms: C_23  and  C_24 
REMARK    7  A    between atoms: C_24  and  O_25 
REMARK    8  A    between atoms: C_27  and  O_28 
ROOT
HETATM    1  C           1       6.207  24.681  53.765  0.00  0.00     0.056 C 
HETATM    2  C           1       7.041  23.485  56.434  0.00  0.00     0.055 C 
HETATM    3  C           1       7.136  22.725  55.089  0.00  0.00     0.012 C 
HETATM    4  C           1       5.256  26.653  56.475  0.00  0.00     0.173 A 
HETATM    5  S           1       5.835  25.657  57.378  0.00  0.00    -0.055 SA
HETATM    6  C           1       6.261  24.760  56.294  0.00  0.00     0.012 A 
HETATM    7  C           1       5.907  25.273  55.113  0.00  0.00     0.056 A 
HETATM    8  C           1       7.416  23.693  53.890  0.00  0.00    -0.030 C 
HETATM    9  C           1       8.705  24.521  54.079  0.00  0.00     0.016 C 
HETATM   10  C           1       7.937  21.380  55.176  0.00  0.00     0.008 C 
HETATM   11  C           1       7.180  20.416  56.132  0.00  0.00     0.020 C 
HETATM   12  C           1       7.956  20.724  53.780  0.00  0.00     0.128 C 
HETATM   13  C           1       8.432  21.659  52.676  0.00  0.00     0.033 C 
HETATM   14  C           1       7.510  22.877  52.578  0.00  0.00     0.013 C 
HETATM   15  N           1       5.321  26.378  55.244  0.00  0.00    -0.227 NA
ENDROOT
BRANCH   1  16
HETATM   16  C           1       6.325  25.796  52.701  0.00  0.00     0.114 C 
BRANCH  16  17
HETATM   17  C           1       5.352  25.616  51.539  0.00  0.00     0.218 C 
HETATM   18  N           1       5.482  26.517  50.520  0.00  0.00    -0.355 N 
HETATM   19  H           1       6.115  27.314  50.614  0.00  0.00     0.162 HD
HETATM   20  O           1       4.530  24.734  51.535  0.00  0.00    -0.274 OA
BRANCH  18  21
HETATM   21  C           1       4.672  26.439  49.303  0.00  0.00     0.187 C 
BRANCH  21  22
HETATM   22  C           1       3.582  27.468  49.387  0.00  0.00     0.070 A 
HETATM   23  C           1       2.495  27.528  48.603  0.00  0.00     0.036 A 
HETATM   24  C           1       1.808  28.581  49.057  0.00  0.00     0.027 A 
HETATM   25  C           1       2.558  29.045  50.064  0.00  0.00     0.142 A 
HETATM   26  O           1       3.578  28.376  50.220  0.00  0.00    -0.325 OA
ENDBRANCH  21  22
ENDBRANCH  18  21
ENDBRANCH  16  17
ENDBRANCH   1  16
BRANCH  10  27
HETATM   27  C           1       9.368  21.540  55.727  0.00  0.00     0.176 C 
BRANCH  27  28
HETATM   28  O           1       9.901  20.303  56.166  0.00  0.00    -0.400 OA
HETATM   29  H           1       9.282  19.870  56.755  0.00  0.00     0.209 HD
ENDBRANCH  27  28
ENDBRANCH  10  27
BRANCH   4  30
HETATM   30  N           1       4.818  27.825  56.974  0.00  0.00    -0.306 N 
HETATM   31  C           1       5.496  29.008  57.063  0.00  0.00     0.219 C 
HETATM   32  C           1       4.675  30.150  57.628  0.00  0.00     0.117 C 
HETATM   33  O           1       6.647  29.133  56.730  0.00  0.00    -0.274 OA
HETATM   34  H           1       3.890  27.752  57.363  0.00  0.00     0.171 HD
ENDBRANCH   4  30
BRANCH  12  35
HETATM   35  O           1       8.779  19.582  53.768  0.00  0.00    -0.395 OA
HETATM   36  H           1       9.453  19.654  54.446  0.00  0.00     0.210 HD
ENDBRANCH  12  35
TORSDOF 8
ENDMDL
MODEL 3
REMARK VINA RESULT:      -8.8      2.495      6.378
REMARK  8 active torsions:
REMARK  status: ('A' for Active; 'I' for Inactive)
REMARK    1  A    between atoms: C_1  and  C_15 
REMARK    2  A    between atoms: C_2  and  C_5 
REMARK    3  A    between atoms: C_5  and  C_13 
REMARK       I    between atoms: C_7  and  N_8 
REMARK    4  A    between atoms: N_8  and  C_9 
REMARK       I    between atoms: C_13  and  N_14 
REMARK    5  A    between atoms: N_14  and  C_15 
REMARK    6  A    between atoms: C_23  and  C_24 
REMARK    7  A    between atoms: C_24  and  O_25 
REMARK    8  A    between atoms: C_27  and  O_28 
ROOT
HETATM    1  C           1       7.110  27.991  56.303  0.00  0.00     0.056 C 
HETATM    2  C           1       5.276  27.784  53.886  0.00  0.00     0.055 C 
HETATM    3  C           1       6.396  26.765  54.199  0.00  0.00     0.012 C 
HETATM    4  C           1       5.169  30.847  55.845  0.00  0.00     0.173 A 
HETATM    5  S           1       4.587  30.236  54.649  0.00  0.00    -0.055 SA
HETATM    6  C           1       5.375  29.000  54.761  0.00  0.00     0.012 A 
HETATM    7  C           1       6.184  29.072  55.822  0.00  0.00     0.056 A 
HETATM    8  C           1       6.633  26.610  55.740  0.00  0.00    -0.030 C 
HETATM    9  C           1       5.357  26.187  56.500  0.00  0.00     0.016 C 
HETATM   10  C           1       6.345  25.474  53.311  0.00  0.00     0.008 C 
HETATM   11  C           1       6.575  25.885  51.828  0.00  0.00     0.020 C 
HETATM   12  C           1       7.508  24.546  53.716  0.00  0.00     0.128 C 
HETATM   13  C           1       7.568  24.267  55.213  0.00  0.00     0.033 C 
HETATM   14  C           1       7.754  25.572  55.989  0.00  0.00     0.013 C 
HETATM   15  N           1       6.046  30.159  56.438  0.00  0.00    -0.227 NA
ENDROOT
BRANCH   1  16
HETATM   16  C           1       7.304  28.089  57.834  0.00  0.00     0.114 C 
BRANCH  16  17
HETATM   17  C           1       8.300  29.172  58.240  0.00  0.00     0.218 C 
HETATM   18  N           1       7.915  29.960  59.288  0.00  0.00    -0.355 N 
HETATM   19  H           1       6.971  29.880  59.674  0.00  0.00     0.162 HD
HETATM   20  O           1       9.350  29.312  57.664  0.00  0.00    -0.274 OA
BRANCH  18  21
HETATM   21  C           1       8.785  30.998  59.843  0.00  0.00     0.187 C 
BRANCH  21  22
HETATM   22  C           1       8.198  31.472  61.141  0.00  0.00     0.070 A 
HETATM   23  C           1       8.890  31.876  62.216  0.00  0.00     0.036 A 
HETATM   24  C           1       7.956  32.223  63.109  0.00  0.00     0.027 A 
HETATM   25  C           1       6.801  31.987  62.474  0.00  0.00     0.142 A 
HETATM   26  O           1       6.983  31.549  61.339  0.00  0.00    -0.325 OA
ENDBRANCH  21  22
ENDBRANCH  18  21
ENDBRANCH  16  17
ENDBRANCH   1  16
BRANCH  10  27
HETATM   27  C           1       4.999  24.726  53.372  0.00  0.00     0.176 C 
BRANCH  27  28
HETATM   28  O           1       4.342  24.725  52.117  0.00  0.00    -0.400 OA
HETATM   29  H           1       3.885  25.557  51.986  0.00  0.00     0.209 HD
ENDBRANCH  27  28
ENDBRANCH  10  27
BRANCH   4  30
HETATM   30  N           1       4.667  32.009  56.307  0.00  0.00    -0.306 N 
HETATM   31  C           1       3.713  32.191  57.267  0.00  0.00     0.219 C 
HETATM   32  C           1       3.426  33.644  57.586  0.00  0.00     0.117 C 
HETATM   33  O           1       3.142  31.278  57.809  0.00  0.00    -0.274 OA
HETATM   34  H           1       5.037  32.808  55.814  0.00  0.00     0.171 HD
ENDBRANCH   4  30
BRANCH  12  35
HETATM   35  O           1       7.430  23.311  53.046  0.00  0.00    -0.395 OA
HETATM   36  H           1       6.727  22.777  53.420  0.00  0.00     0.210 HD
ENDBRANCH  12  35
TORSDOF 8
ENDMDL
MODEL 4
REMARK VINA RESULT:      -8.6      2.672      7.254
REMARK  8 active torsions:
REMARK  status: ('A' for Active; 'I' for Inactive)
REMARK    1  A    between atoms: C_1  and  C_15 
REMARK    2  A    between atoms: C_2  and  C_5 
REMARK    3  A    between atoms: C_5  and  C_13 
REMARK       I    between atoms: C_7  and  N_8 
REMARK    4  A    between atoms: N_8  and  C_9 
REMARK       I    between atoms: C_13  and  N_14 
REMARK    5  A    between atoms: N_14  and  C_15 
REMARK    6  A    between atoms: C_23  and  C_24 
REMARK    7  A    between atoms: C_24  and  O_25 
REMARK    8  A    between atoms: C_27  and  O_28 
ROOT
HETATM    1  C           1       7.306  26.480  55.099  0.00  0.00     0.056 C 
HETATM    2  C           1       6.799  24.339  52.999  0.00  0.00     0.055 C 
HETATM    3  C           1       7.780  24.162  54.181  0.00  0.00     0.012 C 
HETATM    4  C           1       5.428  27.657  52.411  0.00  0.00     0.173 A 
HETATM    5  S           1       5.531  26.336  51.787  0.00  0.00    -0.055 SA
HETATM    6  C           1       6.336  25.762  52.874  0.00  0.00     0.012 A 
HETATM    7  C           1       6.565  26.689  53.809  0.00  0.00     0.056 A 
HETATM    8  C           1       7.317  24.954  55.451  0.00  0.00    -0.030 C 
HETATM    9  C           1       5.902  24.553  55.921  0.00  0.00     0.016 C 
HETATM   10  C           1       8.301  22.693  54.358  0.00  0.00     0.008 C 
HETATM   11  C           1       9.118  22.304  53.093  0.00  0.00     0.020 C 
HETATM   12  C           1       9.267  22.651  55.559  0.00  0.00     0.128 C 
HETATM   13  C           1       8.683  23.258  56.829  0.00  0.00     0.033 C 
HETATM   14  C           1       8.329  24.730  56.599  0.00  0.00     0.013 C 
HETATM   15  N           1       6.025  27.787  53.516  0.00  0.00    -0.227 NA
ENDROOT
BRANCH   1  16
HETATM   16  C           1       6.777  27.442  56.187  0.00  0.00     0.114 C 
BRANCH  16  17
HETATM   17  C           1       7.660  28.673  56.374  0.00  0.00     0.218 C 
HETATM   18  N           1       8.803  28.472  57.095  0.00  0.00    -0.355 N 
HETATM   19  H           1       8.966  27.577  57.563  0.00  0.00     0.162 HD
HETATM   20  O           1       7.355  29.745  55.911  0.00  0.00    -0.274 OA
BRANCH  18  21
HETATM   21  C           1       9.789  29.534  57.305  0.00  0.00     0.187 C 
BRANCH  21  22
HETATM   22  C           1       9.386  30.328  58.514  0.00  0.00     0.070 A 
HETATM   23  C           1       9.755  31.589  58.785  0.00  0.00     0.036 A 
HETATM   24  C           1       9.143  31.880  59.938  0.00  0.00     0.027 A 
HETATM   25  C           1       8.474  30.760  60.239  0.00  0.00     0.142 A 
HETATM   26  O           1       8.644  29.884  59.393  0.00  0.00    -0.325 OA
ENDBRANCH  21  22
ENDBRANCH  18  21
ENDBRANCH  16  17
ENDBRANCH   1  16
BRANCH  10  27
HETATM   27  C           1       7.180  21.648  54.516  0.00  0.00     0.176 C 
BRANCH  27  28
HETATM   28  O           1       7.571  20.380  54.019  0.00  0.00    -0.400 OA
HETATM   29  H           1       6.982  19.703  54.352  0.00  0.00     0.209 HD
ENDBRANCH  27  28
ENDBRANCH  10  27
BRANCH   4  30
HETATM   30  N           1       4.627  28.590  51.861  0.00  0.00    -0.306 N 
HETATM   31  C           1       4.976  29.611  51.024  0.00  0.00     0.219 C 
HETATM   32  C           1       3.805  30.444  50.543  0.00  0.00     0.117 C 
HETATM   33  O           1       6.115  29.837  50.701  0.00  0.00    -0.274 OA
HETATM   34  H           1       3.673  28.510  52.180  0.00  0.00     0.171 HD
ENDBRANCH   4  30
BRANCH  12  35
HETATM   35  O           1       9.658  21.330  55.849  0.00  0.00    -0.395 OA
HETATM   36  H           1       8.885  20.779  55.983  0.00  0.00     0.210 HD
ENDBRANCH  12  35
TORSDOF 8
ENDMDL
MODEL 5
REMARK VINA RESULT:      -8.4      4.155      7.251
REMARK  8 active torsions:
REMARK  status: ('A' for Active; 'I' for Inactive)
REMARK    1  A    between atoms: C_1  and  C_15 
REMARK    2  A    between atoms: C_2  and  C_5 
REMARK    3  A    between atoms: C_5  and  C_13 
REMARK       I    between atoms: C_7  and  N_8 
REMARK    4  A    between atoms: N_8  and  C_9 
REMARK       I    between atoms: C_13  and  N_14 
REMARK    5  A    between atoms: N_14  and  C_15 
REMARK    6  A    between atoms: C_23  and  C_24 
REMARK    7  A    between atoms: C_24  and  O_25 
REMARK    8  A    between atoms: C_27  and  O_28 
ROOT
HETATM    1  C           1       5.260  27.244  52.768  0.00  0.00     0.056 C 
HETATM    2  C           1       5.071  27.837  55.744  0.00  0.00     0.055 C 
HETATM    3  C           1       5.642  26.519  55.170  0.00  0.00     0.012 C 
HETATM    4  C           1       3.403  30.112  53.449  0.00  0.00     0.173 A 
HETATM    5  S           1       3.614  29.884  54.879  0.00  0.00    -0.055 SA
HETATM    6  C           1       4.399  28.658  54.682  0.00  0.00     0.012 A 
HETATM    7  C           1       4.496  28.385  53.378  0.00  0.00     0.056 A 
HETATM    8  C           1       6.339  26.739  53.784  0.00  0.00    -0.030 C 
HETATM    9  C           1       7.476  27.781  53.847  0.00  0.00     0.016 C 
HETATM   10  C           1       6.353  25.617  56.237  0.00  0.00     0.008 C 
HETATM   11  C           1       5.298  25.175  57.291  0.00  0.00     0.020 C 
HETATM   12  C           1       6.871  24.341  55.542  0.00  0.00     0.128 C 
HETATM   13  C           1       7.717  24.624  54.307  0.00  0.00     0.033 C 
HETATM   14  C           1       6.897  25.391  53.266  0.00  0.00     0.013 C 
HETATM   15  N           1       3.907  29.248  52.678  0.00  0.00    -0.227 NA
ENDROOT
BRANCH   1  16
HETATM   16  C           1       5.758  27.624  51.354  0.00  0.00     0.114 C 
BRANCH  16  17
HETATM   17  C           1       5.153  26.756  50.255  0.00  0.00     0.218 C 
HETATM   18  N           1       5.175  27.297  49.000  0.00  0.00    -0.355 N 
HETATM   19  H           1       5.475  28.265  48.862  0.00  0.00     0.162 HD
HETATM   20  O           1       4.689  25.668  50.493  0.00  0.00    -0.274 OA
BRANCH  18  21
HETATM   21  C           1       4.696  26.564  47.827  0.00  0.00     0.187 C 
BRANCH  21  22
HETATM   22  C           1       3.324  27.064  47.478  0.00  0.00     0.070 A 
HETATM   23  C           1       2.203  26.328  47.447  0.00  0.00     0.036 A 
HETATM   24  C           1       1.240  27.193  47.112  0.00  0.00     0.027 A 
HETATM   25  C           1       1.886  28.357  46.974  0.00  0.00     0.142 A 
HETATM   26  O           1       3.091  28.240  47.190  0.00  0.00    -0.325 OA
ENDBRANCH  21  22
ENDBRANCH  18  21
ENDBRANCH  16  17
ENDBRANCH   1  16
BRANCH  10  27
HETATM   27  C           1       7.489  26.328  56.999  0.00  0.00     0.176 C 
BRANCH  27  28
HETATM   28  O           1       7.734  25.724  58.256  0.00  0.00    -0.400 OA
HETATM   29  H           1       6.939  25.749  58.791  0.00  0.00     0.209 HD
ENDBRANCH  27  28
ENDBRANCH  10  27
BRANCH   4  30
HETATM   30  N           1       2.819  31.254  53.038  0.00  0.00    -0.306 N 
HETATM   31  C           1       3.421  32.432  52.695  0.00  0.00     0.219 C 
HETATM   32  C           1       2.461  33.502  52.218  0.00  0.00     0.117 C 
HETATM   33  O           1       4.611  32.609  52.772  0.00  0.00    -0.274 OA
HETATM   34  H           1       1.812  31.195  53.052  0.00  0.00     0.171 HD
ENDBRANCH   4  30
BRANCH  12  35
HETATM   35  O           1       7.639  23.559  56.425  0.00  0.00    -0.395 OA
HETATM   36  H           1       8.354  24.081  56.792  0.00  0.00     0.210 HD
ENDBRANCH  12  35
TORSDOF 8
ENDMDL
MODEL 6
REMARK VINA RESULT:      -8.3      2.680      3.629
REMARK  8 active torsions:
REMARK  status: ('A' for Active; 'I' for Inactive)
REMARK    1  A    between atoms: C_1  and  C_15 
REMARK    2  A    between atoms: C_2  and  C_5 
REMARK    3  A    between atoms: C_5  and  C_13 
REMARK       I    between atoms: C_7  and  N_8 
REMARK    4  A    between atoms: N_8  and  C_9 
REMARK       I    between atoms: C_13  and  N_14 
REMARK    5  A    between atoms: N_14  and  C_15 
REMARK    6  A    between atoms: C_23  and  C_24 
REMARK    7  A    between atoms: C_24  and  O_25 
REMARK    8  A    between atoms: C_27  and  O_28 
ROOT
HETATM    1  C           1       6.272  29.608  55.840  0.00  0.00     0.056 C 
HETATM    2  C           1       4.685  32.019  56.798  0.00  0.00     0.055 C 
HETATM    3  C           1       4.579  31.439  55.368  0.00  0.00     0.012 C 
HETATM    4  C           1       7.334  30.762  58.950  0.00  0.00     0.173 A 
HETATM    5  S           1       6.336  31.830  58.872  0.00  0.00    -0.055 SA
HETATM    6  C           1       5.834  31.418  57.554  0.00  0.00     0.012 A 
HETATM    7  C           1       6.518  30.355  57.120  0.00  0.00     0.056 A 
HETATM    8  C           1       4.813  29.890  55.345  0.00  0.00    -0.030 C 
HETATM    9  C           1       3.832  29.125  56.260  0.00  0.00     0.016 C 
HETATM   10  C           1       3.397  32.035  54.527  0.00  0.00     0.008 C 
HETATM   11  C           1       3.651  33.557  54.329  0.00  0.00     0.020 C 
HETATM   12  C           1       3.403  31.382  53.130  0.00  0.00     0.128 C 
HETATM   13  C           1       3.427  29.859  53.173  0.00  0.00     0.033 C 
HETATM   14  C           1       4.685  29.368  53.894  0.00  0.00     0.013 C 
HETATM   15  N           1       7.388  29.991  57.952  0.00  0.00    -0.227 NA
ENDROOT
BRANCH   1  16
HETATM   16  C           1       6.681  28.125  55.994  0.00  0.00     0.114 C 
BRANCH  16  17
HETATM   17  C           1       7.413  27.579  54.771  0.00  0.00     0.218 C 
HETATM   18  N           1       7.113  26.288  54.436  0.00  0.00    -0.355 N 
HETATM   19  H           1       6.526  25.719  55.050  0.00  0.00     0.162 HD
HETATM   20  O           1       8.201  28.251  54.154  0.00  0.00    -0.274 OA
BRANCH  18  21
HETATM   21  C           1       7.677  25.640  53.251  0.00  0.00     0.187 C 
BRANCH  21  22
HETATM   22  C           1       7.997  24.213  53.592  0.00  0.00     0.070 A 
HETATM   23  C           1       7.824  23.155  52.786  0.00  0.00     0.036 A 
HETATM   24  C           1       8.264  22.112  53.499  0.00  0.00     0.027 A 
HETATM   25  C           1       8.650  22.656  54.660  0.00  0.00     0.142 A 
HETATM   26  O           1       8.476  23.873  54.675  0.00  0.00    -0.325 OA
ENDBRANCH  21  22
ENDBRANCH  18  21
ENDBRANCH  16  17
ENDBRANCH   1  16
BRANCH  10  27
HETATM   27  C           1       2.017  31.887  55.198  0.00  0.00     0.176 C 
BRANCH  27  28
HETATM   28  O           1       1.048  32.726  54.594  0.00  0.00    -0.400 OA
HETATM   29  H           1       0.971  32.517  53.663  0.00  0.00     0.209 HD
ENDBRANCH  27  28
ENDBRANCH  10  27
BRANCH   4  30
HETATM   30  N           1       8.027  30.584  60.092  0.00  0.00    -0.306 N 
HETATM   31  C           1       9.109  31.288  60.538  0.00  0.00     0.219 C 
HETATM   32  C           1       9.608  30.857  61.902  0.00  0.00     0.117 C 
HETATM   33  O           1       9.628  32.170  59.901  0.00  0.00    -0.274 OA
HETATM   34  H           1       7.698  29.789  60.619  0.00  0.00     0.171 HD
ENDBRANCH   4  30
BRANCH  12  35
HETATM   35  O           1       2.280  31.779  52.380  0.00  0.00    -0.395 OA
HETATM   36  H           1       1.505  31.822  52.944  0.00  0.00     0.210 HD
ENDBRANCH  12  35
TORSDOF 8
ENDMDL
MODEL 7
REMARK VINA RESULT:      -8.2      6.104      9.684
REMARK  8 active torsions:
REMARK  status: ('A' for Active; 'I' for Inactive)
REMARK    1  A    between atoms: C_1  and  C_15 
REMARK    2  A    between atoms: C_2  and  C_5 
REMARK    3  A    between atoms: C_5  and  C_13 
REMARK       I    between atoms: C_7  and  N_8 
REMARK    4  A    between atoms: N_8  and  C_9 
REMARK       I    between atoms: C_13  and  N_14 
REMARK    5  A    between atoms: N_14  and  C_15 
REMARK    6  A    between atoms: C_23  and  C_24 
REMARK    7  A    between atoms: C_24  and  O_25 
REMARK    8  A    between atoms: C_27  and  O_28 
ROOT
HETATM    1  C           1       5.665  33.365  62.825  0.00  0.00     0.056 C 
HETATM    2  C           1       3.355  35.320  63.123  0.00  0.00     0.055 C 
HETATM    3  C           1       4.024  34.987  61.769  0.00  0.00     0.012 C 
HETATM    4  C           1       4.956  34.106  66.155  0.00  0.00     0.173 A 
HETATM    5  S           1       3.901  35.016  65.706  0.00  0.00    -0.055 SA
HETATM    6  C           1       4.140  34.769  64.278  0.00  0.00     0.012 A 
HETATM    7  C           1       5.151  33.907  64.128  0.00  0.00     0.056 A 
HETATM    8  C           1       4.559  33.515  61.727  0.00  0.00    -0.030 C 
HETATM    9  C           1       3.455  32.470  62.001  0.00  0.00     0.016 C 
HETATM   10  C           1       3.248  35.542  60.524  0.00  0.00     0.008 C 
HETATM   11  C           1       3.241  37.096  60.600  0.00  0.00     0.020 C 
HETATM   12  C           1       4.014  35.148  59.246  0.00  0.00     0.128 C 
HETATM   13  C           1       4.333  33.660  59.164  0.00  0.00     0.033 C 
HETATM   14  C           1       5.206  33.238  60.348  0.00  0.00     0.013 C 
HETATM   15  N           1       5.611  33.535  65.238  0.00  0.00    -0.227 NA
ENDROOT
BRANCH   1  16
HETATM   16  C           1       6.260  31.953  63.027  0.00  0.00     0.114 C 
BRANCH  16  17
HETATM   17  C           1       7.568  31.743  62.268  0.00  0.00     0.218 C 
HETATM   18  N           1       7.514  30.840  61.244  0.00  0.00    -0.355 N 
HETATM   19  H           1       6.674  30.276  61.098  0.00  0.00     0.162 HD
HETATM   20  O           1       8.573  32.340  62.566  0.00  0.00    -0.274 OA
BRANCH  18  21
HETATM   21  C           1       8.664  30.577  60.376  0.00  0.00     0.187 C 
BRANCH  21  22
HETATM   22  C           1       8.159  30.105  59.043  0.00  0.00     0.070 A 
HETATM   23  C           1       7.183  30.678  58.324  0.00  0.00     0.036 A 
HETATM   24  C           1       7.098  29.934  57.216  0.00  0.00     0.027 A 
HETATM   25  C           1       8.031  28.990  57.390  0.00  0.00     0.142 A 
HETATM   26  O           1       8.621  29.121  58.461  0.00  0.00    -0.325 OA
ENDBRANCH  21  22
ENDBRANCH  18  21
ENDBRANCH  16  17
ENDBRANCH   1  16
BRANCH  10  27
HETATM   27  C           1       1.778  35.083  60.449  0.00  0.00     0.176 C 
BRANCH  27  28
HETATM   28  O           1       0.970  36.024  59.765  0.00  0.00    -0.400 OA
HETATM   29  H           1       0.067  35.970  60.081  0.00  0.00     0.209 HD
ENDBRANCH  27  28
ENDBRANCH  10  27
BRANCH   4  30
HETATM   30  N           1       5.085  33.835  67.468  0.00  0.00    -0.306 N 
HETATM   31  C           1       6.138  34.126  68.288  0.00  0.00     0.219 C 
HETATM   32  C           1       5.924  33.729  69.734  0.00  0.00     0.117 C 
HETATM   33  O           1       7.153  34.645  67.896  0.00  0.00    -0.274 OA
HETATM   34  H           1       4.304  33.307  67.828  0.00  0.00     0.171 HD
ENDBRANCH   4  30
BRANCH  12  35
HETATM   35  O           1       3.291  35.501  58.091  0.00  0.00    -0.395 OA
HETATM   36  H           1       2.394  35.168  58.149  0.00  0.00     0.210 HD
ENDBRANCH  12  35
TORSDOF 8
ENDMDL
MODEL 8
REMARK VINA RESULT:      -8.2      4.537      9.130
REMARK  8 active torsions:
REMARK  status: ('A' for Active; 'I' for Inactive)
REMARK    1  A    between atoms: C_1  and  C_15 
REMARK    2  A    between atoms: C_2  and  C_5 
REMARK    3  A    between atoms: C_5  and  C_13 
REMARK       I    between atoms: C_7  and  N_8 
REMARK    4  A    between atoms: N_8  and  C_9 
REMARK       I    between atoms: C_13  and  N_14 
REMARK    5  A    between atoms: N_14  and  C_15 
REMARK    6  A    between atoms: C_23  and  C_24 
REMARK    7  A    between atoms: C_24  and  O_25 
REMARK    8  A    between atoms: C_27  and  O_28 
ROOT
HETATM    1  C           1       4.742  32.649  60.255  0.00  0.00     0.056 C 
HETATM    2  C           1       6.894  33.630  62.167  0.00  0.00     0.055 C 
HETATM    3  C           1       5.434  34.140  62.189  0.00  0.00     0.012 C 
HETATM    4  C           1       7.926  31.549  59.368  0.00  0.00     0.173 A 
HETATM    5  S           1       8.476  32.286  60.507  0.00  0.00    -0.055 SA
HETATM    6  C           1       7.172  32.804  60.945  0.00  0.00     0.012 A 
HETATM    7  C           1       6.213  32.378  60.118  0.00  0.00     0.056 A 
HETATM    8  C           1       4.421  33.033  61.739  0.00  0.00    -0.030 C 
HETATM    9  C           1       4.509  31.757  62.603  0.00  0.00     0.016 C 
HETATM   10  C           1       5.087  35.015  63.442  0.00  0.00     0.008 C 
HETATM   11  C           1       5.963  36.300  63.405  0.00  0.00     0.020 C 
HETATM   12  C           1       3.613  35.461  63.343  0.00  0.00     0.128 C 
HETATM   13  C           1       2.646  34.308  63.105  0.00  0.00     0.033 C 
HETATM   14  C           1       2.981  33.598  61.791  0.00  0.00     0.013 C 
HETATM   15  N           1       6.678  31.647  59.205  0.00  0.00    -0.227 NA
ENDROOT
BRANCH   1  16
HETATM   16  C           1       3.921  31.492  59.641  0.00  0.00     0.114 C 
BRANCH  16  17
HETATM   17  C           1       3.883  31.532  58.116  0.00  0.00     0.218 C 
HETATM   18  N           1       4.591  30.548  57.486  0.00  0.00    -0.355 N 
HETATM   19  H           1       5.189  29.917  58.025  0.00  0.00     0.162 HD
HETATM   20  O           1       3.267  32.381  57.522  0.00  0.00    -0.274 OA
BRANCH  18  21
HETATM   21  C           1       4.600  30.405  56.029  0.00  0.00     0.187 C 
BRANCH  21  22
HETATM   22  C           1       5.782  29.567  55.637  0.00  0.00     0.070 A 
HETATM   23  C           1       5.799  28.636  54.671  0.00  0.00     0.036 A 
HETATM   24  C           1       7.055  28.176  54.668  0.00  0.00     0.027 A 
HETATM   25  C           1       7.657  28.877  55.636  0.00  0.00     0.142 A 
HETATM   26  O           1       6.886  29.669  56.175  0.00  0.00    -0.325 OA
ENDBRANCH  21  22
ENDBRANCH  18  21
ENDBRANCH  16  17
ENDBRANCH   1  16
BRANCH  10  27
HETATM   27  C           1       5.360  34.315  64.788  0.00  0.00     0.176 C 
BRANCH  27  28
HETATM   28  O           1       5.654  35.247  65.813  0.00  0.00    -0.400 OA
HETATM   29  H           1       6.353  34.907  66.374  0.00  0.00     0.209 HD
ENDBRANCH  27  28
ENDBRANCH  10  27
BRANCH   4  30
HETATM   30  N           1       8.728  30.731  58.658  0.00  0.00    -0.306 N 
HETATM   31  C           1       9.935  31.022  58.089  0.00  0.00     0.219 C 
HETATM   32  C           1      10.598  29.842  57.408  0.00  0.00     0.117 C 
HETATM   33  O           1      10.428  32.122  58.118  0.00  0.00    -0.274 OA
HETATM   34  H           1       8.315  29.821  58.514  0.00  0.00     0.171 HD
ENDBRANCH   4  30
BRANCH  12  35
HETATM   35  O           1       3.208  36.134  64.511  0.00  0.00    -0.395 OA
HETATM   36  H           1       3.661  35.773  65.275  0.00  0.00     0.210 HD
ENDBRANCH  12  35
TORSDOF 8
ENDMDL
MODEL 9
REMARK VINA RESULT:      -8.1      3.105      6.287
REMARK  8 active torsions:
REMARK  status: ('A' for Active; 'I' for Inactive)
REMARK    1  A    between atoms: C_1  and  C_15 
REMARK    2  A    between atoms: C_2  and  C_5 
REMARK    3  A    between atoms: C_5  and  C_13 
REMARK       I    between atoms: C_7  and  N_8 
REMARK    4  A    between atoms: N_8  and  C_9 
REMARK       I    between atoms: C_13  and  N_14 
REMARK    5  A    between atoms: N_14  and  C_15 
REMARK    6  A    between atoms: C_23  and  C_24 
REMARK    7  A    between atoms: C_24  and  O_25 
REMARK    8  A    between atoms: C_27  and  O_28 
ROOT
HETATM    1  C           1       6.308  26.550  53.742  0.00  0.00     0.056 C 
HETATM    2  C           1       5.181  29.235  54.618  0.00  0.00     0.055 C 
HETATM    3  C           1       5.981  28.297  55.553  0.00  0.00     0.012 C 
HETATM    4  C           1       4.157  27.936  51.379  0.00  0.00     0.173 A 
HETATM    5  S           1       3.933  29.070  52.277  0.00  0.00    -0.055 SA
HETATM    6  C           1       4.816  28.552  53.332  0.00  0.00     0.012 A 
HETATM    7  C           1       5.325  27.373  52.961  0.00  0.00     0.056 A 
HETATM    8  C           1       7.054  27.467  54.770  0.00  0.00    -0.030 C 
HETATM    9  C           1       8.050  28.357  53.996  0.00  0.00     0.016 C 
HETATM   10  C           1       6.386  28.957  56.917  0.00  0.00     0.008 C 
HETATM   11  C           1       5.089  29.300  57.703  0.00  0.00     0.020 C 
HETATM   12  C           1       7.171  27.925  57.753  0.00  0.00     0.128 C 
HETATM   13  C           1       8.335  27.293  56.999  0.00  0.00     0.033 C 
HETATM   14  C           1       7.827  26.558  55.756  0.00  0.00     0.013 C 
HETATM   15  N           1       4.925  27.035  51.818  0.00  0.00    -0.227 NA
ENDROOT
BRANCH   1  16
HETATM   16  C           1       7.191  25.714  52.787  0.00  0.00     0.114 C 
BRANCH  16  17
HETATM   17  C           1       6.927  24.214  52.890  0.00  0.00     0.218 C 
HETATM   18  N           1       8.041  23.425  52.948  0.00  0.00    -0.355 N 
HETATM   19  H           1       8.969  23.832  52.811  0.00  0.00     0.162 HD
HETATM   20  O           1       5.806  23.771  52.916  0.00  0.00    -0.274 OA
BRANCH  18  21
HETATM   21  C           1       7.959  21.973  53.119  0.00  0.00     0.187 C 
BRANCH  21  22
HETATM   22  C           1       8.091  21.655  54.580  0.00  0.00     0.070 A 
HETATM   23  C           1       7.853  20.464  55.150  0.00  0.00     0.036 A 
HETATM   24  C           1       8.123  20.649  56.446  0.00  0.00     0.027 A 
HETATM   25  C           1       8.492  21.934  56.518  0.00  0.00     0.142 A 
HETATM   26  O           1       8.457  22.483  55.417  0.00  0.00    -0.325 OA
ENDBRANCH  21  22
ENDBRANCH  18  21
ENDBRANCH  16  17
ENDBRANCH   1  16
BRANCH  10  27
HETATM   27  C           1       7.187  30.264  56.765  0.00  0.00     0.176 C 
BRANCH  27  28
HETATM   28  O           1       6.827  31.217  57.749  0.00  0.00    -0.400 OA
HETATM   29  H           1       6.710  32.077  57.343  0.00  0.00     0.209 HD
ENDBRANCH  27  28
ENDBRANCH  10  27
BRANCH   4  30
HETATM   30  N           1       3.656  27.971  50.129  0.00  0.00    -0.306 N 
HETATM   31  C           1       4.029  27.219  49.051  0.00  0.00     0.219 C 
HETATM   32  C           1       3.210  27.477  47.803  0.00  0.00     0.117 C 
HETATM   33  O           1       4.935  26.424  49.085  0.00  0.00    -0.274 OA
HETATM   34  H           1       2.961  28.694  50.016  0.00  0.00     0.171 HD
ENDBRANCH   4  30
BRANCH  12  35
HETATM   35  O           1       7.679  28.506  58.930  0.00  0.00    -0.395 OA
HETATM   36  H           1       8.570  28.194  59.094  0.00  0.00     0.210 HD
ENDBRANCH  12  35
TORSDOF 8
ENDMDL
MODEL 10
REMARK VINA RESULT:      -8.0      6.496     10.655
REMARK  8 active torsions:
REMARK  status: ('A' for Active; 'I' for Inactive)
REMARK    1  A    between atoms: C_1  and  C_15 
REMARK    2  A    between atoms: C_2  and  C_5 
REMARK    3  A    between atoms: C_5  and  C_13 
REMARK       I    between atoms: C_7  and  N_8 
REMARK    4  A    between atoms: N_8  and  C_9 
REMARK       I    between atoms: C_13  and  N_14 
REMARK    5  A    between atoms: N_14  and  C_15 
REMARK    6  A    between atoms: C_23  and  C_24 
REMARK    7  A    between atoms: C_24  and  O_25 
REMARK    8  A    between atoms: C_27  and  O_28 
ROOT
HETATM    1  C           1       4.912  33.081  59.823  0.00  0.00     0.056 C 
HETATM    2  C           1       6.690  33.075  62.290  0.00  0.00     0.055 C 
HETATM    3  C           1       5.373  33.880  62.187  0.00  0.00     0.012 C 
HETATM    4  C           1       7.982  31.533  59.260  0.00  0.00     0.173 A 
HETATM    5  S           1       8.366  31.839  60.639  0.00  0.00    -0.055 SA
HETATM    6  C           1       7.103  32.519  60.959  0.00  0.00     0.012 A 
HETATM    7  C           1       6.306  32.526  59.886  0.00  0.00     0.056 A 
HETATM    8  C           1       4.322  33.167  61.271  0.00  0.00    -0.030 C 
HETATM    9  C           1       3.988  31.736  61.748  0.00  0.00     0.016 C 
HETATM   10  C           1       4.895  34.491  63.550  0.00  0.00     0.008 C 
HETATM   11  C           1       5.959  35.518  64.031  0.00  0.00     0.020 C 
HETATM   12  C           1       3.583  35.266  63.313  0.00  0.00     0.128 C 
HETATM   13  C           1       2.518  34.449  62.592  0.00  0.00     0.033 C 
HETATM   14  C           1       3.026  34.011  61.216  0.00  0.00     0.013 C 
HETATM   15  N           1       6.842  31.945  58.907  0.00  0.00    -0.227 NA
ENDROOT
BRANCH   1  16
HETATM   16  C           1       4.073  32.315  58.774  0.00  0.00     0.114 C 
BRANCH  16  17
HETATM   17  C           1       3.795  33.138  57.519  0.00  0.00     0.218 C 
HETATM   18  N           1       4.872  33.350  56.705  0.00  0.00    -0.355 N 
HETATM   19  H           1       5.808  33.065  57.004  0.00  0.00     0.162 HD
HETATM   20  O           1       2.694  33.566  57.276  0.00  0.00    -0.274 OA
BRANCH  18  21
HETATM   21  C           1       4.757  34.060  55.430  0.00  0.00     0.187 C 
BRANCH  21  22
HETATM   22  C           1       5.207  35.478  55.630  0.00  0.00     0.070 A 
HETATM   23  C           1       6.007  36.172  54.806  0.00  0.00     0.036 A 
HETATM   24  C           1       6.110  37.379  55.373  0.00  0.00     0.027 A 
HETATM   25  C           1       5.363  37.280  56.480  0.00  0.00     0.142 A 
HETATM   26  O           1       4.861  36.163  56.595  0.00  0.00    -0.325 OA
ENDBRANCH  21  22
ENDBRANCH  18  21
ENDBRANCH  16  17
ENDBRANCH   1  16
BRANCH  10  27
HETATM   27  C           1       4.723  33.451  64.675  0.00  0.00     0.176 C 
BRANCH  27  28
HETATM   28  O           1       4.822  34.044  65.957  0.00  0.00    -0.400 OA
HETATM   29  H           1       3.947  34.223  66.303  0.00  0.00     0.209 HD
ENDBRANCH  27  28
ENDBRANCH  10  27
BRANCH   4  30
HETATM   30  N           1       8.777  30.748  58.508  0.00  0.00    -0.306 N 
HETATM   31  C           1       9.996  31.052  57.971  0.00  0.00     0.219 C 
HETATM   32  C           1      10.647  29.906  57.225  0.00  0.00     0.117 C 
HETATM   33  O           1      10.506  32.139  58.073  0.00  0.00    -0.274 OA
HETATM   34  H           1       8.351  29.856  58.304  0.00  0.00     0.171 HD
ENDBRANCH   4  30
BRANCH  12  35
HETATM   35  O           1       3.035  35.719  64.528  0.00  0.00    -0.395 OA
HETATM   36  H           1       3.568  35.415  65.264  0.00  0.00     0.210 HD
ENDBRANCH  12  35
TORSDOF 8
ENDMDL
