MODEL 1
REMARK VINA RESULT:      -9.8      0.000      0.000
REMARK  9 active torsions:
REMARK  status: ('A' for Active; 'I' for Inactive)
REMARK    1  A    between atoms: C_5  and  N_6 
REMARK       I    between atoms: N_6  and  C_7 
REMARK    2  A    between atoms: C_7  and  C_8 
REMARK    3  A    between atoms: C_8  and  S_9 
REMARK    4  A    between atoms: S_9  and  C_10 
REMARK    5  A    between atoms: C_11  and  C_12 
REMARK       I    between atoms: C_12  and  N_13 
REMARK    6  A    between atoms: N_13  and  C_14 
REMARK    7  A    between atoms: C_14  and  C_15 
REMARK    8  A    between atoms: C_15  and  N_16 
REMARK    9  A    between atoms: C_15  and  C_22 
ROOT
HETATM    1  C   UNL     1       6.613  28.737  57.469  1.00  0.00     0.016 A 
HETATM    2  C   UNL     1       6.388  27.487  56.871  1.00  0.00     0.048 A 
HETATM    3  C   UNL     1       5.219  27.240  56.131  1.00  0.00     0.018 A 
HETATM    4  C   UNL     1       4.261  28.239  55.985  1.00  0.00     0.001 A 
HETATM    5  C   UNL     1       4.449  29.469  56.607  1.00  0.00     0.001 A 
HETATM    6  C   UNL     1       5.604  29.704  57.359  1.00  0.00     0.019 A 
ENDROOT
BRANCH   2   7
HETATM    7  C   UNL     1       7.304  26.338  57.016  1.00  0.00     0.253 C 
HETATM    8  N   UNL     1       7.689  25.713  55.842  1.00  0.00    -0.354 N 
HETATM    9  H   UNL     1       7.242  26.062  55.000  1.00  0.00     0.162 HD
HETATM   10  O   UNL     1       7.598  25.919  58.128  1.00  0.00    -0.268 OA
BRANCH   8  11
HETATM   11  C   UNL     1       8.049  24.294  55.875  1.00  0.00     0.161 C 
BRANCH  11  12
HETATM   12  C   UNL     1       7.940  23.546  54.516  1.00  0.00     0.245 C 
BRANCH  12  13
HETATM   13  N   UNL     1       7.458  22.088  54.556  1.00  0.00    -0.061 N 
HETATM   14  H   UNL     1       6.446  22.165  54.721  1.00  0.00     0.280 HD
HETATM   15  C   UNL     1       7.969  21.141  55.621  1.00  0.00     0.236 C 
HETATM   16  C   UNL     1       8.855  20.141  54.895  1.00  0.00     0.029 C 
HETATM   17  C   UNL     1       8.949  20.629  53.461  1.00  0.00     0.029 C 
HETATM   18  C   UNL     1       7.640  21.351  53.254  1.00  0.00     0.236 C 
ENDBRANCH  12  13
BRANCH  12  19
HETATM   19  C   UNL     1       7.082  24.348  53.558  1.00  0.00     0.015 A 
HETATM   20  S   UNL     1       7.792  25.134  52.204  1.00  0.00    -0.104 SA
HETATM   21  C   UNL     1       6.284  25.732  51.675  1.00  0.00     0.050 A 
HETATM   22  C   UNL     1       5.255  25.343  52.502  1.00  0.00     0.008 A 
HETATM   23  C   UNL     1       5.714  24.548  53.593  1.00  0.00     0.017 A 
ENDBRANCH  12  19
ENDBRANCH  11  12
ENDBRANCH   8  11
ENDBRANCH   2   7
BRANCH   1  24
HETATM   24  S   UNL     1       8.069  29.101  58.443  1.00  0.00    -0.120 SA
BRANCH  24  25
HETATM   25  C   UNL     1       8.501  30.780  57.856  1.00  0.00     0.182 C 
BRANCH  25  26
HETATM   26  C   UNL     1       8.649  31.761  59.007  1.00  0.00     0.231 C 
HETATM   27  N   UNL     1       7.579  31.714  59.889  1.00  0.00    -0.327 N 
HETATM   28  H   UNL     1       6.742  31.232  59.592  1.00  0.00     0.169 HD
HETATM   29  O   UNL     1       9.644  32.471  59.116  1.00  0.00    -0.272 OA
BRANCH  27  30
HETATM   30  C   UNL     1       7.530  32.247  61.193  1.00  0.00     0.034 A 
HETATM   31  C   UNL     1       8.364  31.840  62.234  1.00  0.00     0.030 A 
HETATM   32  C   UNL     1       8.194  32.359  63.522  1.00  0.00     0.009 A 
HETATM   33  C   UNL     1       7.187  33.290  63.789  1.00  0.00    -0.062 A 
HETATM   34  C   UNL     1       7.024  33.849  65.171  1.00  0.00     0.048 C 
HETATM   35  C   UNL     1       6.370  33.721  62.742  1.00  0.00     0.009 A 
HETATM   36  C   UNL     1       6.536  33.198  61.457  1.00  0.00     0.030 A 
ENDBRANCH  27  30
ENDBRANCH  25  26
ENDBRANCH  24  25
ENDBRANCH   1  24
TORSDOF 9
ENDMDL
MODEL 2
REMARK VINA RESULT:      -9.7      3.444      9.771
REMARK  9 active torsions:
REMARK  status: ('A' for Active; 'I' for Inactive)
REMARK    1  A    between atoms: C_5  and  N_6 
REMARK       I    between atoms: N_6  and  C_7 
REMARK    2  A    between atoms: C_7  and  C_8 
REMARK    3  A    between atoms: C_8  and  S_9 
REMARK    4  A    between atoms: S_9  and  C_10 
REMARK    5  A    between atoms: C_11  and  C_12 
REMARK       I    between atoms: C_12  and  N_13 
REMARK    6  A    between atoms: N_13  and  C_14 
REMARK    7  A    between atoms: C_14  and  C_15 
REMARK    8  A    between atoms: C_15  and  N_16 
REMARK    9  A    between atoms: C_15  and  C_22 
ROOT
HETATM    1  C   UNL     1       7.858  23.740  54.366  1.00  0.00     0.016 A 
HETATM    2  C   UNL     1       8.183  23.387  55.685  1.00  0.00     0.048 A 
HETATM    3  C   UNL     1       8.315  22.039  56.061  1.00  0.00     0.018 A 
HETATM    4  C   UNL     1       8.121  21.030  55.122  1.00  0.00     0.001 A 
HETATM    5  C   UNL     1       7.757  21.362  53.821  1.00  0.00     0.001 A 
HETATM    6  C   UNL     1       7.606  22.703  53.456  1.00  0.00     0.019 A 
ENDROOT
BRANCH   2   7
HETATM    7  C   UNL     1       8.346  24.370  56.775  1.00  0.00     0.253 C 
HETATM    8  N   UNL     1       7.191  25.000  57.206  1.00  0.00    -0.354 N 
HETATM    9  H   UNL     1       6.354  24.777  56.676  1.00  0.00     0.162 HD
HETATM   10  O   UNL     1       9.464  24.669  57.175  1.00  0.00    -0.268 OA
BRANCH   8  11
HETATM   11  C   UNL     1       7.285  26.342  57.784  1.00  0.00     0.161 C 
BRANCH  11  12
HETATM   12  C   UNL     1       7.311  27.511  56.759  1.00  0.00     0.245 C 
BRANCH  12  13
HETATM   13  N   UNL     1       5.975  28.199  56.448  1.00  0.00    -0.061 N 
HETATM   14  H   UNL     1       5.695  28.620  57.344  1.00  0.00     0.280 HD
HETATM   15  C   UNL     1       4.781  27.386  55.996  1.00  0.00     0.236 C 
HETATM   16  C   UNL     1       4.559  27.752  54.536  1.00  0.00     0.029 C 
HETATM   17  C   UNL     1       5.721  28.649  54.149  1.00  0.00     0.029 C 
HETATM   18  C   UNL     1       6.086  29.323  55.449  1.00  0.00     0.236 C 
ENDBRANCH  12  13
BRANCH  12  19
HETATM   19  C   UNL     1       8.337  28.542  57.187  1.00  0.00     0.015 A 
HETATM   20  S   UNL     1       8.011  29.598  58.504  1.00  0.00    -0.104 SA
HETATM   21  C   UNL     1       9.536  30.351  58.364  1.00  0.00     0.050 A 
HETATM   22  C   UNL     1      10.286  29.814  57.343  1.00  0.00     0.008 A 
HETATM   23  C   UNL     1       9.594  28.773  56.659  1.00  0.00     0.017 A 
ENDBRANCH  12  19
ENDBRANCH  11  12
ENDBRANCH   8  11
ENDBRANCH   2   7
BRANCH   1  24
HETATM   24  S   UNL     1       7.651  25.436  53.837  1.00  0.00    -0.120 SA
BRANCH  24  25
HETATM   25  C   UNL     1       7.302  25.230  52.051  1.00  0.00     0.182 C 
BRANCH  25  26
HETATM   26  C   UNL     1       5.874  25.615  51.706  1.00  0.00     0.231 C 
HETATM   27  N   UNL     1       5.806  26.552  50.685  1.00  0.00    -0.327 N 
HETATM   28  H   UNL     1       6.655  27.037  50.431  1.00  0.00     0.169 HD
HETATM   29  O   UNL     1       4.918  25.098  52.276  1.00  0.00    -0.272 OA
BRANCH  27  30
HETATM   30  C   UNL     1       4.671  26.895  49.922  1.00  0.00     0.034 A 
HETATM   31  C   UNL     1       3.930  28.062  50.106  1.00  0.00     0.030 A 
HETATM   32  C   UNL     1       2.767  28.288  49.363  1.00  0.00     0.009 A 
HETATM   33  C   UNL     1       2.325  27.350  48.426  1.00  0.00    -0.062 A 
HETATM   34  C   UNL     1       1.084  27.610  47.626  1.00  0.00     0.048 C 
HETATM   35  C   UNL     1       3.082  26.195  48.218  1.00  0.00     0.009 A 
HETATM   36  C   UNL     1       4.241  25.966  48.965  1.00  0.00     0.030 A 
ENDBRANCH  27  30
ENDBRANCH  25  26
ENDBRANCH  24  25
ENDBRANCH   1  24
TORSDOF 9
ENDMDL
MODEL 3
REMARK VINA RESULT:      -9.7      2.440      4.524
REMARK  9 active torsions:
REMARK  status: ('A' for Active; 'I' for Inactive)
REMARK    1  A    between atoms: C_5  and  N_6 
REMARK       I    between atoms: N_6  and  C_7 
REMARK    2  A    between atoms: C_7  and  C_8 
REMARK    3  A    between atoms: C_8  and  S_9 
REMARK    4  A    between atoms: S_9  and  C_10 
REMARK    5  A    between atoms: C_11  and  C_12 
REMARK       I    between atoms: C_12  and  N_13 
REMARK    6  A    between atoms: N_13  and  C_14 
REMARK    7  A    between atoms: C_14  and  C_15 
REMARK    8  A    between atoms: C_15  and  N_16 
REMARK    9  A    between atoms: C_15  and  C_22 
ROOT
HETATM    1  C   UNL     1       7.404  27.965  56.878  1.00  0.00     0.016 A 
HETATM    2  C   UNL     1       7.403  27.352  55.615  1.00  0.00     0.048 A 
HETATM    3  C   UNL     1       7.512  25.957  55.490  1.00  0.00     0.018 A 
HETATM    4  C   UNL     1       7.626  25.160  56.625  1.00  0.00     0.001 A 
HETATM    5  C   UNL     1       7.672  25.756  57.881  1.00  0.00     0.001 A 
HETATM    6  C   UNL     1       7.584  27.145  58.002  1.00  0.00     0.019 A 
ENDROOT
BRANCH   2   7
HETATM    7  C   UNL     1       7.352  28.104  54.345  1.00  0.00     0.253 C 
HETATM    8  N   UNL     1       6.111  28.189  53.737  1.00  0.00    -0.354 N 
HETATM    9  H   UNL     1       5.371  27.660  54.187  1.00  0.00     0.162 HD
HETATM   10  O   UNL     1       8.382  28.520  53.832  1.00  0.00    -0.268 OA
BRANCH   8  11
HETATM   11  C   UNL     1       6.040  28.340  52.282  1.00  0.00     0.161 C 
BRANCH  11  12
HETATM   12  C   UNL     1       5.458  27.122  51.511  1.00  0.00     0.245 C 
BRANCH  12  13
HETATM   13  N   UNL     1       5.520  27.169  49.978  1.00  0.00    -0.061 N 
HETATM   14  H   UNL     1       6.403  26.694  49.749  1.00  0.00     0.280 HD
HETATM   15  C   UNL     1       5.578  28.497  49.254  1.00  0.00     0.236 C 
HETATM   16  C   UNL     1       4.238  28.645  48.551  1.00  0.00     0.029 C 
HETATM   17  C   UNL     1       3.392  27.471  49.011  1.00  0.00     0.029 C 
HETATM   18  C   UNL     1       4.415  26.400  49.299  1.00  0.00     0.236 C 
ENDBRANCH  12  13
BRANCH  12  19
HETATM   19  C   UNL     1       6.100  25.844  52.016  1.00  0.00     0.015 A 
HETATM   20  S   UNL     1       5.186  24.717  52.937  1.00  0.00    -0.104 SA
HETATM   21  C   UNL     1       6.511  23.650  53.072  1.00  0.00     0.050 A 
HETATM   22  C   UNL     1       7.628  24.131  52.428  1.00  0.00     0.008 A 
HETATM   23  C   UNL     1       7.395  25.399  51.821  1.00  0.00     0.017 A 
ENDBRANCH  12  19
ENDBRANCH  11  12
ENDBRANCH   8  11
ENDBRANCH   2   7
BRANCH   1  24
HETATM   24  S   UNL     1       7.294  29.737  57.099  1.00  0.00    -0.120 SA
BRANCH  24  25
HETATM   25  C   UNL     1       8.824  30.092  58.040  1.00  0.00     0.182 C 
BRANCH  25  26
HETATM   26  C   UNL     1       8.642  31.258  58.998  1.00  0.00     0.231 C 
HETATM   27  N   UNL     1       7.646  31.027  59.936  1.00  0.00    -0.327 N 
HETATM   28  H   UNL     1       7.014  30.255  59.774  1.00  0.00     0.169 HD
HETATM   29  O   UNL     1       9.348  32.258  58.926  1.00  0.00    -0.272 OA
BRANCH  27  30
HETATM   30  C   UNL     1       7.423  31.740  61.131  1.00  0.00     0.034 A 
HETATM   31  C   UNL     1       6.468  32.746  61.274  1.00  0.00     0.030 A 
HETATM   32  C   UNL     1       6.369  33.464  62.470  1.00  0.00     0.009 A 
HETATM   33  C   UNL     1       7.223  33.189  63.541  1.00  0.00    -0.062 A 
HETATM   34  C   UNL     1       7.097  33.956  64.823  1.00  0.00     0.048 C 
HETATM   35  C   UNL     1       8.159  32.160  63.411  1.00  0.00     0.009 A 
HETATM   36  C   UNL     1       8.263  31.448  62.214  1.00  0.00     0.030 A 
ENDBRANCH  27  30
ENDBRANCH  25  26
ENDBRANCH  24  25
ENDBRANCH   1  24
TORSDOF 9
ENDMDL
MODEL 4
REMARK VINA RESULT:      -9.6      2.475     11.048
REMARK  9 active torsions:
REMARK  status: ('A' for Active; 'I' for Inactive)
REMARK    1  A    between atoms: C_5  and  N_6 
REMARK       I    between atoms: N_6  and  C_7 
REMARK    2  A    between atoms: C_7  and  C_8 
REMARK    3  A    between atoms: C_8  and  S_9 
REMARK    4  A    between atoms: S_9  and  C_10 
REMARK    5  A    between atoms: C_11  and  C_12 
REMARK       I    between atoms: C_12  and  N_13 
REMARK    6  A    between atoms: N_13  and  C_14 
REMARK    7  A    between atoms: C_14  and  C_15 
REMARK    8  A    between atoms: C_15  and  N_16 
REMARK    9  A    between atoms: C_15  and  C_22 
ROOT
HETATM    1  C   UNL     1       8.339  29.650  57.558  1.00  0.00     0.016 A 
HETATM    2  C   UNL     1       8.566  30.848  58.254  1.00  0.00     0.048 A 
HETATM    3  C   UNL     1       9.858  31.392  58.353  1.00  0.00     0.018 A 
HETATM    4  C   UNL     1      10.937  30.742  57.761  1.00  0.00     0.001 A 
HETATM    5  C   UNL     1      10.735  29.532  57.105  1.00  0.00     0.001 A 
HETATM    6  C   UNL     1       9.452  28.984  57.025  1.00  0.00     0.019 A 
ENDROOT
BRANCH   2   7
HETATM    7  C   UNL     1       7.507  31.584  58.973  1.00  0.00     0.253 C 
HETATM    8  N   UNL     1       7.525  31.482  60.354  1.00  0.00    -0.354 N 
HETATM    9  H   UNL     1       8.222  30.848  60.732  1.00  0.00     0.162 HD
HETATM   10  O   UNL     1       6.617  32.150  58.353  1.00  0.00    -0.268 OA
BRANCH   8  11
HETATM   11  C   UNL     1       6.270  31.622  61.095  1.00  0.00     0.161 C 
BRANCH  11  12
HETATM   12  C   UNL     1       5.898  33.074  61.511  1.00  0.00     0.245 C 
BRANCH  12  13
HETATM   13  N   UNL     1       4.465  33.540  61.221  1.00  0.00    -0.061 N 
HETATM   14  H   UNL     1       4.030  33.607  62.151  1.00  0.00     0.280 HD
HETATM   15  C   UNL     1       3.529  32.676  60.401  1.00  0.00     0.236 C 
HETATM   16  C   UNL     1       3.336  33.411  59.083  1.00  0.00     0.029 C 
HETATM   17  C   UNL     1       4.282  34.597  59.123  1.00  0.00     0.029 C 
HETATM   18  C   UNL     1       4.384  34.909  60.596  1.00  0.00     0.236 C 
ENDBRANCH  12  13
BRANCH  12  19
HETATM   19  C   UNL     1       6.223  33.284  62.978  1.00  0.00     0.015 A 
HETATM   20  S   UNL     1       4.980  33.686  64.095  1.00  0.00    -0.104 SA
HETATM   21  C   UNL     1       6.074  33.715  65.404  1.00  0.00     0.050 A 
HETATM   22  C   UNL     1       7.359  33.421  65.010  1.00  0.00     0.008 A 
HETATM   23  C   UNL     1       7.449  33.177  63.609  1.00  0.00     0.017 A 
ENDBRANCH  12  19
ENDBRANCH  11  12
ENDBRANCH   8  11
ENDBRANCH   2   7
BRANCH   1  24
HETATM   24  S   UNL     1       6.722  28.897  57.420  1.00  0.00    -0.120 SA
BRANCH  24  25
HETATM   25  C   UNL     1       6.391  29.048  55.625  1.00  0.00     0.182 C 
BRANCH  25  26
HETATM   26  C   UNL     1       6.096  27.701  54.989  1.00  0.00     0.231 C 
HETATM   27  N   UNL     1       7.247  27.029  54.603  1.00  0.00    -0.327 N 
HETATM   28  H   UNL     1       8.111  27.552  54.570  1.00  0.00     0.169 HD
HETATM   29  O   UNL     1       4.947  27.284  54.882  1.00  0.00    -0.272 OA
BRANCH  27  30
HETATM   30  C   UNL     1       7.363  25.664  54.272  1.00  0.00     0.034 A 
HETATM   31  C   UNL     1       7.247  24.624  55.195  1.00  0.00     0.030 A 
HETATM   32  C   UNL     1       7.459  23.299  54.801  1.00  0.00     0.009 A 
HETATM   33  C   UNL     1       7.792  22.993  53.479  1.00  0.00    -0.062 A 
HETATM   34  C   UNL     1       8.004  21.567  53.065  1.00  0.00     0.048 C 
HETATM   35  C   UNL     1       7.878  24.029  52.546  1.00  0.00     0.009 A 
HETATM   36  C   UNL     1       7.672  25.353  52.941  1.00  0.00     0.030 A 
ENDBRANCH  27  30
ENDBRANCH  25  26
ENDBRANCH  24  25
ENDBRANCH   1  24
TORSDOF 9
ENDMDL
MODEL 5
REMARK VINA RESULT:      -9.5      1.354      3.062
REMARK  9 active torsions:
REMARK  status: ('A' for Active; 'I' for Inactive)
REMARK    1  A    between atoms: C_5  and  N_6 
REMARK       I    between atoms: N_6  and  C_7 
REMARK    2  A    between atoms: C_7  and  C_8 
REMARK    3  A    between atoms: C_8  and  S_9 
REMARK    4  A    between atoms: S_9  and  C_10 
REMARK    5  A    between atoms: C_11  and  C_12 
REMARK       I    between atoms: C_12  and  N_13 
REMARK    6  A    between atoms: N_13  and  C_14 
REMARK    7  A    between atoms: C_14  and  C_15 
REMARK    8  A    between atoms: C_15  and  N_16 
REMARK    9  A    between atoms: C_15  and  C_22 
ROOT
HETATM    1  C   UNL     1       6.654  29.242  56.423  1.00  0.00     0.016 A 
HETATM    2  C   UNL     1       6.270  27.922  56.139  1.00  0.00     0.048 A 
HETATM    3  C   UNL     1       4.913  27.573  56.030  1.00  0.00     0.018 A 
HETATM    4  C   UNL     1       3.926  28.538  56.207  1.00  0.00     0.001 A 
HETATM    5  C   UNL     1       4.290  29.841  56.531  1.00  0.00     0.001 A 
HETATM    6  C   UNL     1       5.639  30.181  56.659  1.00  0.00     0.019 A 
ENDROOT
BRANCH   2   7
HETATM    7  C   UNL     1       7.229  26.808  55.998  1.00  0.00     0.253 C 
HETATM    8  N   UNL     1       7.659  26.534  54.710  1.00  0.00    -0.354 N 
HETATM    9  H   UNL     1       7.213  27.081  53.980  1.00  0.00     0.162 HD
HETATM   10  O   UNL     1       7.519  26.116  56.964  1.00  0.00    -0.268 OA
BRANCH   8  11
HETATM   11  C   UNL     1       8.074  25.171  54.373  1.00  0.00     0.161 C 
BRANCH  11  12
HETATM   12  C   UNL     1       6.920  24.182  54.049  1.00  0.00     0.245 C 
BRANCH  12  13
HETATM   13  N   UNL     1       6.145  24.411  52.744  1.00  0.00    -0.061 N 
HETATM   14  H   UNL     1       6.094  23.477  52.316  1.00  0.00     0.280 HD
HETATM   15  C   UNL     1       6.708  25.316  51.668  1.00  0.00     0.236 C 
HETATM   16  C   UNL     1       5.811  26.543  51.649  1.00  0.00     0.029 C 
HETATM   17  C   UNL     1       4.850  26.379  52.812  1.00  0.00     0.029 C 
HETATM   18  C   UNL     1       4.728  24.880  52.950  1.00  0.00     0.236 C 
ENDBRANCH  12  13
BRANCH  12  19
HETATM   19  C   UNL     1       7.438  22.757  54.100  1.00  0.00     0.015 A 
HETATM   20  S   UNL     1       7.686  21.975  55.610  1.00  0.00    -0.104 SA
HETATM   21  C   UNL     1       8.202  20.534  54.855  1.00  0.00     0.050 A 
HETATM   22  C   UNL     1       8.185  20.635  53.483  1.00  0.00     0.008 A 
HETATM   23  C   UNL     1       7.749  21.919  53.044  1.00  0.00     0.017 A 
ENDBRANCH  12  19
ENDBRANCH  11  12
ENDBRANCH   8  11
ENDBRANCH   2   7
BRANCH   1  24
HETATM   24  S   UNL     1       8.363  29.741  56.599  1.00  0.00    -0.120 SA
BRANCH  24  25
HETATM   25  C   UNL     1       8.627  29.542  58.400  1.00  0.00     0.182 C 
BRANCH  25  26
HETATM   26  C   UNL     1       8.418  30.847  59.150  1.00  0.00     0.231 C 
HETATM   27  N   UNL     1       7.632  30.690  60.284  1.00  0.00    -0.327 N 
HETATM   28  H   UNL     1       7.112  29.830  60.383  1.00  0.00     0.169 HD
HETATM   29  O   UNL     1       8.937  31.891  58.771  1.00  0.00    -0.272 OA
BRANCH  27  30
HETATM   30  C   UNL     1       7.493  31.599  61.352  1.00  0.00     0.034 A 
HETATM   31  C   UNL     1       8.388  31.694  62.418  1.00  0.00     0.030 A 
HETATM   32  C   UNL     1       8.132  32.564  63.483  1.00  0.00     0.009 A 
HETATM   33  C   UNL     1       6.978  33.352  63.499  1.00  0.00    -0.062 A 
HETATM   34  C   UNL     1       6.722  34.292  64.639  1.00  0.00     0.048 C 
HETATM   35  C   UNL     1       6.096  33.281  62.418  1.00  0.00     0.009 A 
HETATM   36  C   UNL     1       6.348  32.407  61.358  1.00  0.00     0.030 A 
ENDBRANCH  27  30
ENDBRANCH  25  26
ENDBRANCH  24  25
ENDBRANCH   1  24
TORSDOF 9
ENDMDL
MODEL 6
REMARK VINA RESULT:      -9.4      2.239     10.912
REMARK  9 active torsions:
REMARK  status: ('A' for Active; 'I' for Inactive)
REMARK    1  A    between atoms: C_5  and  N_6 
REMARK       I    between atoms: N_6  and  C_7 
REMARK    2  A    between atoms: C_7  and  C_8 
REMARK    3  A    between atoms: C_8  and  S_9 
REMARK    4  A    between atoms: S_9  and  C_10 
REMARK    5  A    between atoms: C_11  and  C_12 
REMARK       I    between atoms: C_12  and  N_13 
REMARK    6  A    between atoms: N_13  and  C_14 
REMARK    7  A    between atoms: C_14  and  C_15 
REMARK    8  A    between atoms: C_15  and  N_16 
REMARK    9  A    between atoms: C_15  and  C_22 
ROOT
HETATM    1  C   UNL     1       8.486  29.486  57.481  1.00  0.00     0.016 A 
HETATM    2  C   UNL     1       9.052  30.327  58.452  1.00  0.00     0.048 A 
HETATM    3  C   UNL     1      10.380  30.771  58.338  1.00  0.00     0.018 A 
HETATM    4  C   UNL     1      11.158  30.376  57.253  1.00  0.00     0.001 A 
HETATM    5  C   UNL     1      10.626  29.509  56.305  1.00  0.00     0.001 A 
HETATM    6  C   UNL     1       9.311  29.053  56.432  1.00  0.00     0.019 A 
ENDROOT
BRANCH   2   7
HETATM    7  C   UNL     1       8.340  30.753  59.674  1.00  0.00     0.253 C 
HETATM    8  N   UNL     1       7.570  31.898  59.563  1.00  0.00    -0.354 N 
HETATM    9  H   UNL     1       7.630  32.375  58.668  1.00  0.00     0.162 HD
HETATM   10  O   UNL     1       8.530  30.171  60.734  1.00  0.00    -0.268 OA
BRANCH   8  11
HETATM   11  C   UNL     1       7.343  32.722  60.751  1.00  0.00     0.161 C 
BRANCH  11  12
HETATM   12  C   UNL     1       6.031  32.425  61.531  1.00  0.00     0.245 C 
BRANCH  12  13
HETATM   13  N   UNL     1       6.169  32.025  63.006  1.00  0.00    -0.061 N 
HETATM   14  H   UNL     1       5.871  31.040  63.027  1.00  0.00     0.280 HD
HETATM   15  C   UNL     1       5.341  32.717  64.068  1.00  0.00     0.236 C 
HETATM   16  C   UNL     1       6.322  33.548  64.881  1.00  0.00     0.029 C 
HETATM   17  C   UNL     1       7.659  33.428  64.173  1.00  0.00     0.029 C 
HETATM   18  C   UNL     1       7.585  32.069  63.521  1.00  0.00     0.236 C 
ENDBRANCH  12  13
BRANCH  12  19
HETATM   19  C   UNL     1       5.082  33.600  61.400  1.00  0.00     0.015 A 
HETATM   20  S   UNL     1       3.450  33.351  60.919  1.00  0.00    -0.104 SA
HETATM   21  C   UNL     1       3.091  35.015  61.035  1.00  0.00     0.050 A 
HETATM   22  C   UNL     1       4.182  35.752  61.435  1.00  0.00     0.008 A 
HETATM   23  C   UNL     1       5.334  34.938  61.642  1.00  0.00     0.017 A 
ENDBRANCH  12  19
ENDBRANCH  11  12
ENDBRANCH   8  11
ENDBRANCH   2   7
BRANCH   1  24
HETATM   24  S   UNL     1       6.810  28.869  57.585  1.00  0.00    -0.120 SA
BRANCH  24  25
HETATM   25  C   UNL     1       6.333  28.781  55.820  1.00  0.00     0.182 C 
BRANCH  25  26
HETATM   26  C   UNL     1       6.147  27.347  55.354  1.00  0.00     0.231 C 
HETATM   27  N   UNL     1       7.141  26.939  54.475  1.00  0.00    -0.327 N 
HETATM   28  H   UNL     1       7.733  27.649  54.068  1.00  0.00     0.169 HD
HETATM   29  O   UNL     1       5.221  26.657  55.767  1.00  0.00    -0.272 OA
BRANCH  27  30
HETATM   30  C   UNL     1       7.448  25.616  54.097  1.00  0.00     0.034 A 
HETATM   31  C   UNL     1       7.551  25.187  52.774  1.00  0.00     0.030 A 
HETATM   32  C   UNL     1       7.776  23.837  52.482  1.00  0.00     0.009 A 
HETATM   33  C   UNL     1       7.900  22.897  53.508  1.00  0.00    -0.062 A 
HETATM   34  C   UNL     1       8.155  21.455  53.183  1.00  0.00     0.048 C 
HETATM   35  C   UNL     1       7.829  23.330  54.834  1.00  0.00     0.009 A 
HETATM   36  C   UNL     1       7.597  24.676  55.126  1.00  0.00     0.030 A 
ENDBRANCH  27  30
ENDBRANCH  25  26
ENDBRANCH  24  25
ENDBRANCH   1  24
TORSDOF 9
ENDMDL
MODEL 7
REMARK VINA RESULT:      -9.4      2.139      3.275
REMARK  9 active torsions:
REMARK  status: ('A' for Active; 'I' for Inactive)
REMARK    1  A    between atoms: C_5  and  N_6 
REMARK       I    between atoms: N_6  and  C_7 
REMARK    2  A    between atoms: C_7  and  C_8 
REMARK    3  A    between atoms: C_8  and  S_9 
REMARK    4  A    between atoms: S_9  and  C_10 
REMARK    5  A    between atoms: C_11  and  C_12 
REMARK       I    between atoms: C_12  and  N_13 
REMARK    6  A    between atoms: N_13  and  C_14 
REMARK    7  A    between atoms: C_14  and  C_15 
REMARK    8  A    between atoms: C_15  and  N_16 
REMARK    9  A    between atoms: C_15  and  C_22 
ROOT
HETATM    1  C   UNL     1       8.511  30.158  58.039  1.00  0.00     0.016 A 
HETATM    2  C   UNL     1       9.177  29.131  57.353  1.00  0.00     0.048 A 
HETATM    3  C   UNL     1      10.547  29.231  57.056  1.00  0.00     0.018 A 
HETATM    4  C   UNL     1      11.264  30.361  57.438  1.00  0.00     0.001 A 
HETATM    5  C   UNL     1      10.609  31.406  58.081  1.00  0.00     0.001 A 
HETATM    6  C   UNL     1       9.242  31.312  58.357  1.00  0.00     0.019 A 
ENDROOT
BRANCH   2   7
HETATM    7  C   UNL     1       8.501  27.920  56.844  1.00  0.00     0.253 C 
HETATM    8  N   UNL     1       7.979  28.006  55.565  1.00  0.00    -0.354 N 
HETATM    9  H   UNL     1       8.046  28.921  55.131  1.00  0.00     0.162 HD
HETATM   10  O   UNL     1       8.333  26.953  57.575  1.00  0.00    -0.268 OA
BRANCH   8  11
HETATM   11  C   UNL     1       6.826  27.175  55.209  1.00  0.00     0.161 C 
BRANCH  11  12
HETATM   12  C   UNL     1       7.109  26.048  54.176  1.00  0.00     0.245 C 
BRANCH  12  13
HETATM   13  N   UNL     1       6.928  24.600  54.653  1.00  0.00    -0.061 N 
HETATM   14  H   UNL     1       6.138  24.250  54.094  1.00  0.00     0.280 HD
HETATM   15  C   UNL     1       6.561  24.308  56.093  1.00  0.00     0.236 C 
HETATM   16  C   UNL     1       7.793  23.664  56.710  1.00  0.00     0.029 C 
HETATM   17  C   UNL     1       8.880  23.742  55.654  1.00  0.00     0.029 C 
HETATM   18  C   UNL     1       8.107  23.709  54.358  1.00  0.00     0.236 C 
ENDBRANCH  12  13
BRANCH  12  19
HETATM   19  C   UNL     1       6.290  26.287  52.922  1.00  0.00     0.015 A 
HETATM   20  S   UNL     1       5.186  27.602  52.843  1.00  0.00    -0.104 SA
HETATM   21  C   UNL     1       4.738  27.215  51.242  1.00  0.00     0.050 A 
HETATM   22  C   UNL     1       5.412  26.114  50.768  1.00  0.00     0.008 A 
HETATM   23  C   UNL     1       6.306  25.573  51.738  1.00  0.00     0.017 A 
ENDBRANCH  12  19
ENDBRANCH  11  12
ENDBRANCH   8  11
ENDBRANCH   2   7
BRANCH   1  24
HETATM   24  S   UNL     1       6.765  30.098  58.423  1.00  0.00    -0.120 SA
BRANCH  24  25
HETATM   25  C   UNL     1       6.295  31.864  58.310  1.00  0.00     0.182 C 
BRANCH  25  26
HETATM   26  C   UNL     1       5.846  32.417  59.651  1.00  0.00     0.231 C 
HETATM   27  N   UNL     1       6.463  31.786  60.722  1.00  0.00    -0.327 N 
HETATM   28  H   UNL     1       6.950  30.920  60.543  1.00  0.00     0.169 HD
HETATM   29  O   UNL     1       5.047  33.345  59.723  1.00  0.00    -0.272 OA
BRANCH  27  30
HETATM   30  C   UNL     1       6.515  32.237  62.057  1.00  0.00     0.034 A 
HETATM   31  C   UNL     1       5.390  32.522  62.829  1.00  0.00     0.030 A 
HETATM   32  C   UNL     1       5.529  33.046  64.119  1.00  0.00     0.009 A 
HETATM   33  C   UNL     1       6.796  33.293  64.655  1.00  0.00    -0.062 A 
HETATM   34  C   UNL     1       6.933  33.842  66.044  1.00  0.00     0.048 C 
HETATM   35  C   UNL     1       7.925  32.979  63.895  1.00  0.00     0.009 A 
HETATM   36  C   UNL     1       7.785  32.462  62.605  1.00  0.00     0.030 A 
ENDBRANCH  27  30
ENDBRANCH  25  26
ENDBRANCH  24  25
ENDBRANCH   1  24
TORSDOF 9
ENDMDL
MODEL 8
REMARK VINA RESULT:      -9.1      2.435     10.727
REMARK  9 active torsions:
REMARK  status: ('A' for Active; 'I' for Inactive)
REMARK    1  A    between atoms: C_5  and  N_6 
REMARK       I    between atoms: N_6  and  C_7 
REMARK    2  A    between atoms: C_7  and  C_8 
REMARK    3  A    between atoms: C_8  and  S_9 
REMARK    4  A    between atoms: S_9  and  C_10 
REMARK    5  A    between atoms: C_11  and  C_12 
REMARK       I    between atoms: C_12  and  N_13 
REMARK    6  A    between atoms: N_13  and  C_14 
REMARK    7  A    between atoms: C_14  and  C_15 
REMARK    8  A    between atoms: C_15  and  N_16 
REMARK    9  A    between atoms: C_15  and  C_22 
ROOT
HETATM    1  C   UNL     1       8.356  29.409  57.384  1.00  0.00     0.016 A 
HETATM    2  C   UNL     1       8.795  30.252  58.417  1.00  0.00     0.048 A 
HETATM    3  C   UNL     1      10.055  30.873  58.356  1.00  0.00     0.018 A 
HETATM    4  C   UNL     1      10.889  30.655  57.263  1.00  0.00     0.001 A 
HETATM    5  C   UNL     1      10.485  29.789  56.252  1.00  0.00     0.001 A 
HETATM    6  C   UNL     1       9.241  29.158  56.326  1.00  0.00     0.019 A 
ENDROOT
BRANCH   2   7
HETATM    7  C   UNL     1       8.022  30.501  59.650  1.00  0.00     0.253 C 
HETATM    8  N   UNL     1       6.842  31.210  59.497  1.00  0.00    -0.354 N 
HETATM    9  H   UNL     1       6.664  31.555  58.558  1.00  0.00     0.162 HD
HETATM   10  O   UNL     1       8.478  30.184  60.740  1.00  0.00    -0.268 OA
BRANCH   8  11
HETATM   11  C   UNL     1       6.343  32.013  60.615  1.00  0.00     0.161 C 
BRANCH  11  12
HETATM   12  C   UNL     1       5.450  33.224  60.222  1.00  0.00     0.245 C 
BRANCH  12  13
HETATM   13  N   UNL     1       4.067  32.912  59.634  1.00  0.00    -0.061 N 
HETATM   14  H   UNL     1       3.428  33.522  60.161  1.00  0.00     0.280 HD
HETATM   15  C   UNL     1       3.481  31.521  59.750  1.00  0.00     0.236 C 
HETATM   16  C   UNL     1       3.484  30.951  58.340  1.00  0.00     0.029 C 
HETATM   17  C   UNL     1       4.209  31.970  57.479  1.00  0.00     0.029 C 
HETATM   18  C   UNL     1       3.927  33.277  58.179  1.00  0.00     0.236 C 
ENDBRANCH  12  13
BRANCH  12  19
HETATM   19  C   UNL     1       5.310  34.160  61.407  1.00  0.00     0.015 A 
HETATM   20  S   UNL     1       3.840  35.011  61.673  1.00  0.00    -0.104 SA
HETATM   21  C   UNL     1       4.445  35.749  63.088  1.00  0.00     0.050 A 
HETATM   22  C   UNL     1       5.735  35.358  63.362  1.00  0.00     0.008 A 
HETATM   23  C   UNL     1       6.239  34.445  62.391  1.00  0.00     0.017 A 
ENDBRANCH  12  19
ENDBRANCH  11  12
ENDBRANCH   8  11
ENDBRANCH   2   7
BRANCH   1  24
HETATM   24  S   UNL     1       6.775  28.572  57.419  1.00  0.00    -0.120 SA
BRANCH  24  25
HETATM   25  C   UNL     1       7.276  26.841  57.742  1.00  0.00     0.182 C 
BRANCH  25  26
HETATM   26  C   UNL     1       6.948  25.929  56.572  1.00  0.00     0.231 C 
HETATM   27  N   UNL     1       8.063  25.260  56.087  1.00  0.00    -0.327 N 
HETATM   28  H   UNL     1       8.974  25.584  56.382  1.00  0.00     0.169 HD
HETATM   29  O   UNL     1       5.799  25.809  56.160  1.00  0.00    -0.272 OA
BRANCH  27  30
HETATM   30  C   UNL     1       8.076  24.137  55.236  1.00  0.00     0.034 A 
HETATM   31  C   UNL     1       7.933  24.206  53.850  1.00  0.00     0.030 A 
HETATM   32  C   UNL     1       7.871  23.036  53.085  1.00  0.00     0.009 A 
HETATM   33  C   UNL     1       7.950  21.781  53.693  1.00  0.00    -0.062 A 
HETATM   34  C   UNL     1       7.896  20.534  52.861  1.00  0.00     0.048 C 
HETATM   35  C   UNL     1       8.124  21.710  55.078  1.00  0.00     0.009 A 
HETATM   36  C   UNL     1       8.179  22.878  55.843  1.00  0.00     0.030 A 
ENDBRANCH  27  30
ENDBRANCH  25  26
ENDBRANCH  24  25
ENDBRANCH   1  24
TORSDOF 9
ENDMDL
MODEL 9
REMARK VINA RESULT:      -9.0      3.545      7.711
REMARK  9 active torsions:
REMARK  status: ('A' for Active; 'I' for Inactive)
REMARK    1  A    between atoms: C_5  and  N_6 
REMARK       I    between atoms: N_6  and  C_7 
REMARK    2  A    between atoms: C_7  and  C_8 
REMARK    3  A    between atoms: C_8  and  S_9 
REMARK    4  A    between atoms: S_9  and  C_10 
REMARK    5  A    between atoms: C_11  and  C_12 
REMARK       I    between atoms: C_12  and  N_13 
REMARK    6  A    between atoms: N_13  and  C_14 
REMARK    7  A    between atoms: C_14  and  C_15 
REMARK    8  A    between atoms: C_15  and  N_16 
REMARK    9  A    between atoms: C_15  and  C_22 
ROOT
HETATM    1  C   UNL     1       6.304  29.117  56.686  1.00  0.00     0.016 A 
HETATM    2  C   UNL     1       7.460  28.397  56.346  1.00  0.00     0.048 A 
HETATM    3  C   UNL     1       8.662  28.587  57.049  1.00  0.00     0.018 A 
HETATM    4  C   UNL     1       8.722  29.501  58.097  1.00  0.00     0.001 A 
HETATM    5  C   UNL     1       7.596  30.253  58.418  1.00  0.00     0.001 A 
HETATM    6  C   UNL     1       6.409  30.077  57.704  1.00  0.00     0.019 A 
ENDROOT
BRANCH   2   7
HETATM    7  C   UNL     1       7.527  27.452  55.214  1.00  0.00     0.253 C 
HETATM    8  N   UNL     1       7.231  26.131  55.504  1.00  0.00    -0.354 N 
HETATM    9  H   UNL     1       7.070  25.929  56.486  1.00  0.00     0.162 HD
HETATM   10  O   UNL     1       7.932  27.825  54.121  1.00  0.00    -0.268 OA
BRANCH   8  11
HETATM   11  C   UNL     1       7.829  25.071  54.689  1.00  0.00     0.161 C 
BRANCH  11  12
HETATM   12  C   UNL     1       6.835  24.008  54.143  1.00  0.00     0.245 C 
BRANCH  12  13
HETATM   13  N   UNL     1       6.182  24.292  52.782  1.00  0.00    -0.061 N 
HETATM   14  H   UNL     1       6.195  23.381  52.304  1.00  0.00     0.280 HD
HETATM   15  C   UNL     1       6.822  25.263  51.814  1.00  0.00     0.236 C 
HETATM   16  C   UNL     1       5.901  26.472  51.771  1.00  0.00     0.029 C 
HETATM   17  C   UNL     1       4.839  26.227  52.827  1.00  0.00     0.029 C 
HETATM   18  C   UNL     1       4.741  24.722  52.876  1.00  0.00     0.236 C 
ENDBRANCH  12  13
BRANCH  12  19
HETATM   19  C   UNL     1       7.504  22.647  54.122  1.00  0.00     0.015 A 
HETATM   20  S   UNL     1       7.845  21.823  55.591  1.00  0.00    -0.104 SA
HETATM   21  C   UNL     1       8.507  20.484  54.765  1.00  0.00     0.050 A 
HETATM   22  C   UNL     1       8.469  20.650  53.400  1.00  0.00     0.008 A 
HETATM   23  C   UNL     1       7.894  21.899  53.026  1.00  0.00     0.017 A 
ENDBRANCH  12  19
ENDBRANCH  11  12
ENDBRANCH   8  11
ENDBRANCH   2   7
BRANCH   1  24
HETATM   24  S   UNL     1       4.754  28.937  55.812  1.00  0.00    -0.120 SA
BRANCH  24  25
HETATM   25  C   UNL     1       4.312  30.681  55.471  1.00  0.00     0.182 C 
BRANCH  25  26
HETATM   26  C   UNL     1       4.001  30.909  54.001  1.00  0.00     0.231 C 
HETATM   27  N   UNL     1       4.699  30.046  53.168  1.00  0.00    -0.327 N 
HETATM   28  H   UNL     1       5.472  29.529  53.564  1.00  0.00     0.169 HD
HETATM   29  O   UNL     1       3.188  31.756  53.645  1.00  0.00    -0.272 OA
BRANCH  27  30
HETATM   30  C   UNL     1       4.432  29.775  51.811  1.00  0.00     0.034 A 
HETATM   31  C   UNL     1       3.248  29.202  51.347  1.00  0.00     0.030 A 
HETATM   32  C   UNL     1       3.096  28.888  49.993  1.00  0.00     0.009 A 
HETATM   33  C   UNL     1       4.125  29.141  49.081  1.00  0.00    -0.062 A 
HETATM   34  C   UNL     1       3.945  28.812  47.629  1.00  0.00     0.048 C 
HETATM   35  C   UNL     1       5.300  29.743  49.539  1.00  0.00     0.009 A 
HETATM   36  C   UNL     1       5.454  30.051  50.893  1.00  0.00     0.030 A 
ENDBRANCH  27  30
ENDBRANCH  25  26
ENDBRANCH  24  25
ENDBRANCH   1  24
TORSDOF 9
ENDMDL
MODEL 10
REMARK VINA RESULT:      -8.9      4.133      8.740
REMARK  9 active torsions:
REMARK  status: ('A' for Active; 'I' for Inactive)
REMARK    1  A    between atoms: C_5  and  N_6 
REMARK       I    between atoms: N_6  and  C_7 
REMARK    2  A    between atoms: C_7  and  C_8 
REMARK    3  A    between atoms: C_8  and  S_9 
REMARK    4  A    between atoms: S_9  and  C_10 
REMARK    5  A    between atoms: C_11  and  C_12 
REMARK       I    between atoms: C_12  and  N_13 
REMARK    6  A    between atoms: N_13  and  C_14 
REMARK    7  A    between atoms: C_14  and  C_15 
REMARK    8  A    between atoms: C_15  and  N_16 
REMARK    9  A    between atoms: C_15  and  C_22 
ROOT
HETATM    1  C   UNL     1       6.221  29.280  55.811  1.00  0.00     0.016 A 
HETATM    2  C   UNL     1       5.282  29.103  54.783  1.00  0.00     0.048 A 
HETATM    3  C   UNL     1       3.979  29.616  54.898  1.00  0.00     0.018 A 
HETATM    4  C   UNL     1       3.600  30.310  56.044  1.00  0.00     0.001 A 
HETATM    5  C   UNL     1       4.506  30.457  57.089  1.00  0.00     0.001 A 
HETATM    6  C   UNL     1       5.794  29.927  56.980  1.00  0.00     0.019 A 
ENDROOT
BRANCH   2   7
HETATM    7  C   UNL     1       5.556  28.329  53.555  1.00  0.00     0.253 C 
HETATM    8  N   UNL     1       5.797  29.069  52.410  1.00  0.00    -0.354 N 
HETATM    9  H   UNL     1       5.688  30.074  52.512  1.00  0.00     0.162 HD
HETATM   10  O   UNL     1       5.457  27.109  53.558  1.00  0.00    -0.268 OA
BRANCH   8  11
HETATM   11  C   UNL     1       5.477  28.487  51.104  1.00  0.00     0.161 C 
BRANCH  11  12
HETATM   12  C   UNL     1       4.212  29.064  50.408  1.00  0.00     0.245 C 
BRANCH  12  13
HETATM   13  N   UNL     1       4.374  30.387  49.647  1.00  0.00    -0.061 N 
HETATM   14  H   UNL     1       3.994  30.186  48.713  1.00  0.00     0.280 HD
HETATM   15  C   UNL     1       5.751  30.969  49.405  1.00  0.00     0.236 C 
HETATM   16  C   UNL     1       5.832  32.215  50.272  1.00  0.00     0.029 C 
HETATM   17  C   UNL     1       4.561  32.232  51.101  1.00  0.00     0.029 C 
HETATM   18  C   UNL     1       3.563  31.523  50.218  1.00  0.00     0.236 C 
ENDBRANCH  12  13
BRANCH  12  19
HETATM   19  C   UNL     1       3.607  28.014  49.497  1.00  0.00     0.015 A 
HETATM   20  S   UNL     1       4.465  26.564  49.151  1.00  0.00    -0.104 SA
HETATM   21  C   UNL     1       3.200  25.970  48.172  1.00  0.00     0.050 A 
HETATM   22  C   UNL     1       2.141  26.846  48.108  1.00  0.00     0.008 A 
HETATM   23  C   UNL     1       2.376  28.029  48.868  1.00  0.00     0.017 A 
ENDBRANCH  12  19
ENDBRANCH  11  12
ENDBRANCH   8  11
ENDBRANCH   2   7
BRANCH   1  24
HETATM   24  S   UNL     1       7.885  28.627  55.731  1.00  0.00    -0.120 SA
BRANCH  24  25
HETATM   25  C   UNL     1       7.971  27.634  57.267  1.00  0.00     0.182 C 
BRANCH  25  26
HETATM   26  C   UNL     1       8.050  26.145  56.974  1.00  0.00     0.231 C 
HETATM   27  N   UNL     1       7.505  25.814  55.741  1.00  0.00    -0.327 N 
HETATM   28  H   UNL     1       6.936  26.507  55.275  1.00  0.00     0.169 HD
HETATM   29  O   UNL     1       8.578  25.367  57.762  1.00  0.00    -0.272 OA
BRANCH  27  30
HETATM   30  C   UNL     1       7.681  24.609  55.032  1.00  0.00     0.034 A 
HETATM   31  C   UNL     1       7.949  24.540  53.665  1.00  0.00     0.030 A 
HETATM   32  C   UNL     1       8.025  23.301  53.019  1.00  0.00     0.009 A 
HETATM   33  C   UNL     1       7.833  22.113  53.730  1.00  0.00    -0.062 A 
HETATM   34  C   UNL     1       7.931  20.791  53.029  1.00  0.00     0.048 C 
HETATM   35  C   UNL     1       7.595  22.179  55.105  1.00  0.00     0.009 A 
HETATM   36  C   UNL     1       7.512  23.417  55.748  1.00  0.00     0.030 A 
ENDBRANCH  27  30
ENDBRANCH  25  26
ENDBRANCH  24  25
ENDBRANCH   1  24
TORSDOF 9
ENDMDL
