MODEL 1
REMARK VINA RESULT:     -10.0      0.000      0.000
REMARK  6 active torsions:
REMARK  status: ('A' for Active; 'I' for Inactive)
REMARK    1  A    between atoms: C_2  and  O_3 
REMARK    2  A    between atoms: O_3  and  C_4 
REMARK    3  A    between atoms: C_13  and  C_14 
REMARK       I    between atoms: C_14  and  N_15 
REMARK    4  A    between atoms: N_15  and  N_16 
REMARK       I    between atoms: N_16  and  C_17 
REMARK    5  A    between atoms: C_17  and  C_18 
REMARK    6  A    between atoms: C_18  and  C_19 
ROOT
HETATM    1  C   UNL     1       5.829  34.447  67.290  1.00  0.00     0.069 A 
HETATM    2  C   UNL     1       6.845  33.993  66.449  1.00  0.00     0.050 A 
HETATM    3  C   UNL     1       6.568  33.589  65.131  1.00  0.00    -0.004 A 
HETATM    4  C   UNL     1       5.251  33.635  64.635  1.00  0.00     0.068 A 
HETATM    5  N   UNL     1       4.910  33.280  63.392  1.00  0.00    -0.240 NA
HETATM    6  C   UNL     1       5.921  32.862  62.606  1.00  0.00     0.111 A 
HETATM    7  C   UNL     1       7.257  32.756  62.962  1.00  0.00     0.028 A 
HETATM    8  C   UNL     1       7.586  33.139  64.279  1.00  0.00     0.030 A 
HETATM    9  S   UNL     1       5.630  32.398  60.996  1.00  0.00    -0.062 SA
HETATM   10  C   UNL     1       7.283  32.022  60.724  1.00  0.00     0.103 A 
HETATM   11  C   UNL     1       8.034  32.260  61.862  1.00  0.00     0.062 A 
HETATM   12  N   UNL     1       9.368  32.051  61.932  1.00  0.00    -0.397 N 
HETATM   13  C   UNL     1       4.255  34.076  65.494  1.00  0.00     0.035 A 
HETATM   14  C   UNL     1       4.526  34.481  66.809  1.00  0.00     0.039 A 
HETATM   15  H   UNL     1       9.863  31.594  61.162  1.00  0.00     0.156 HD
HETATM   16  H   UNL     1       9.891  32.070  62.801  1.00  0.00     0.156 HD
ENDROOT
BRANCH  10  17
HETATM   17  C   UNL     1       7.745  31.502  59.443  1.00  0.00     0.279 C 
HETATM   18  N   UNL     1       7.042  30.429  58.922  1.00  0.00    -0.263 N 
HETATM   19  H   UNL     1       6.261  29.991  59.407  1.00  0.00     0.190 HD
HETATM   20  O   UNL     1       8.709  31.969  58.828  1.00  0.00    -0.265 OA
BRANCH  18  21
HETATM   21  N   UNL     1       7.501  29.811  57.755  1.00  0.00    -0.267 N 
HETATM   22  C   UNL     1       6.669  28.917  57.114  1.00  0.00     0.240 C 
HETATM   23  O   UNL     1       5.557  28.616  57.546  1.00  0.00    -0.272 OA
HETATM   24  H   UNL     1       8.342  30.196  57.329  1.00  0.00     0.190 HD
BRANCH  22  25
HETATM   25  C   UNL     1       7.268  28.286  55.873  1.00  0.00     0.143 C 
BRANCH  25  26
HETATM   26  C   UNL     1       7.609  26.826  56.041  1.00  0.00    -0.049 A 
HETATM   27  C   UNL     1       8.229  26.366  57.212  1.00  0.00     0.007 A 
HETATM   28  C   UNL     1       8.521  25.010  57.370  1.00  0.00     0.001 A 
HETATM   29  C   UNL     1       8.197  24.102  56.364  1.00  0.00     0.000 A 
HETATM   30  C   UNL     1       7.581  24.549  55.196  1.00  0.00     0.001 A 
HETATM   31  C   UNL     1       7.288  25.904  55.034  1.00  0.00     0.007 A 
ENDBRANCH  25  26
ENDBRANCH  22  25
ENDBRANCH  18  21
ENDBRANCH  10  17
BRANCH   1  32
HETATM   32  O   UNL     1       6.240  34.819  68.538  1.00  0.00    -0.351 OA
BRANCH  32  33
HETATM   33  C   UNL     1       7.631  34.687  68.831  1.00  0.00     0.171 C 
HETATM   34  C   UNL     1       7.958  35.625  69.978  1.00  0.00     0.034 C 
ENDBRANCH  32  33
ENDBRANCH   1  32
TORSDOF 6
ENDMDL
MODEL 2
REMARK VINA RESULT:      -9.7      3.115      5.279
REMARK  6 active torsions:
REMARK  status: ('A' for Active; 'I' for Inactive)
REMARK    1  A    between atoms: C_2  and  O_3 
REMARK    2  A    between atoms: O_3  and  C_4 
REMARK    3  A    between atoms: C_13  and  C_14 
REMARK       I    between atoms: C_14  and  N_15 
REMARK    4  A    between atoms: N_15  and  N_16 
REMARK       I    between atoms: N_16  and  C_17 
REMARK    5  A    between atoms: C_17  and  C_18 
REMARK    6  A    between atoms: C_18  and  C_19 
ROOT
HETATM    1  C   UNL     1       5.988  33.604  61.670  1.00  0.00     0.069 A 
HETATM    2  C   UNL     1       6.914  32.724  61.111  1.00  0.00     0.050 A 
HETATM    3  C   UNL     1       6.631  32.036  59.918  1.00  0.00    -0.004 A 
HETATM    4  C   UNL     1       5.397  32.223  59.265  1.00  0.00     0.068 A 
HETATM    5  N   UNL     1       5.058  31.616  58.123  1.00  0.00    -0.240 NA
HETATM    6  C   UNL     1       5.985  30.786  57.606  1.00  0.00     0.111 A 
HETATM    7  C   UNL     1       7.231  30.498  58.143  1.00  0.00     0.028 A 
HETATM    8  C   UNL     1       7.560  31.156  59.347  1.00  0.00     0.030 A 
HETATM    9  S   UNL     1       5.692  29.962  56.148  1.00  0.00    -0.062 SA
HETATM   10  C   UNL     1       7.219  29.177  56.193  1.00  0.00     0.103 A 
HETATM   11  C   UNL     1       7.932  29.559  57.317  1.00  0.00     0.062 A 
HETATM   12  N   UNL     1       9.169  29.095  57.606  1.00  0.00    -0.397 N 
HETATM   13  C   UNL     1       4.486  33.092  59.847  1.00  0.00     0.035 A 
HETATM   14  C   UNL     1       4.764  33.781  61.036  1.00  0.00     0.039 A 
HETATM   15  H   UNL     1       9.586  28.345  57.049  1.00  0.00     0.156 HD
HETATM   16  H   UNL     1       9.626  29.244  58.499  1.00  0.00     0.156 HD
ENDROOT
BRANCH  10  17
HETATM   17  C   UNL     1       7.620  28.232  55.160  1.00  0.00     0.279 C 
HETATM   18  N   UNL     1       7.122  26.945  55.272  1.00  0.00    -0.263 N 
HETATM   19  H   UNL     1       6.531  26.646  56.046  1.00  0.00     0.190 HD
HETATM   20  O   UNL     1       8.364  28.527  54.219  1.00  0.00    -0.265 OA
BRANCH  18  21
HETATM   21  N   UNL     1       7.557  25.961  54.381  1.00  0.00    -0.267 N 
HETATM   22  C   UNL     1       6.638  25.047  53.909  1.00  0.00     0.240 C 
HETATM   23  O   UNL     1       5.461  25.041  54.269  1.00  0.00    -0.272 OA
HETATM   24  H   UNL     1       8.481  26.086  53.970  1.00  0.00     0.190 HD
BRANCH  22  25
HETATM   25  C   UNL     1       7.215  24.009  52.967  1.00  0.00     0.143 C 
BRANCH  25  26
HETATM   26  C   UNL     1       7.565  22.707  53.642  1.00  0.00    -0.049 A 
HETATM   27  C   UNL     1       7.930  21.584  52.886  1.00  0.00     0.007 A 
HETATM   28  C   UNL     1       8.275  20.389  53.518  1.00  0.00     0.001 A 
HETATM   29  C   UNL     1       8.260  20.303  54.909  1.00  0.00     0.000 A 
HETATM   30  C   UNL     1       7.898  21.413  55.671  1.00  0.00     0.001 A 
HETATM   31  C   UNL     1       7.552  22.610  55.042  1.00  0.00     0.007 A 
ENDBRANCH  25  26
ENDBRANCH  22  25
ENDBRANCH  18  21
ENDBRANCH  10  17
BRANCH   1  32
HETATM   32  O   UNL     1       6.398  34.214  62.821  1.00  0.00    -0.351 OA
BRANCH  32  33
HETATM   33  C   UNL     1       6.066  33.573  64.052  1.00  0.00     0.171 C 
HETATM   34  C   UNL     1       7.250  33.720  64.990  1.00  0.00     0.034 C 
ENDBRANCH  32  33
ENDBRANCH   1  32
TORSDOF 6
ENDMDL
MODEL 3
REMARK VINA RESULT:      -9.5      3.692      5.622
REMARK  6 active torsions:
REMARK  status: ('A' for Active; 'I' for Inactive)
REMARK    1  A    between atoms: C_2  and  O_3 
REMARK    2  A    between atoms: O_3  and  C_4 
REMARK    3  A    between atoms: C_13  and  C_14 
REMARK       I    between atoms: C_14  and  N_15 
REMARK    4  A    between atoms: N_15  and  N_16 
REMARK       I    between atoms: N_16  and  C_17 
REMARK    5  A    between atoms: C_17  and  C_18 
REMARK    6  A    between atoms: C_18  and  C_19 
ROOT
HETATM    1  C   UNL     1       5.276  33.966  61.284  1.00  0.00     0.069 A 
HETATM    2  C   UNL     1       5.000  33.418  60.032  1.00  0.00     0.050 A 
HETATM    3  C   UNL     1       5.820  32.416  59.483  1.00  0.00    -0.004 A 
HETATM    4  C   UNL     1       6.942  31.949  60.192  1.00  0.00     0.068 A 
HETATM    5  N   UNL     1       7.762  30.992  59.744  1.00  0.00    -0.240 NA
HETATM    6  C   UNL     1       7.453  30.477  58.538  1.00  0.00     0.111 A 
HETATM    7  C   UNL     1       6.391  30.847  57.727  1.00  0.00     0.028 A 
HETATM    8  C   UNL     1       5.543  31.857  58.228  1.00  0.00     0.030 A 
HETATM    9  S   UNL     1       8.402  29.241  57.856  1.00  0.00    -0.062 SA
HETATM   10  C   UNL     1       7.431  29.169  56.442  1.00  0.00     0.103 A 
HETATM   11  C   UNL     1       6.395  30.085  56.512  1.00  0.00     0.062 A 
HETATM   12  N   UNL     1       5.475  30.244  55.534  1.00  0.00    -0.397 N 
HETATM   13  C   UNL     1       7.206  32.518  61.429  1.00  0.00     0.035 A 
HETATM   14  C   UNL     1       6.391  33.517  61.982  1.00  0.00     0.039 A 
HETATM   15  H   UNL     1       5.578  29.759  54.639  1.00  0.00     0.156 HD
HETATM   16  H   UNL     1       4.816  31.015  55.507  1.00  0.00     0.156 HD
ENDROOT
BRANCH  10  17
HETATM   17  C   UNL     1       7.742  28.255  55.350  1.00  0.00     0.279 C 
HETATM   18  N   UNL     1       7.253  26.964  55.467  1.00  0.00    -0.263 N 
HETATM   19  H   UNL     1       6.729  26.643  56.279  1.00  0.00     0.190 HD
HETATM   20  O   UNL     1       8.404  28.579  54.359  1.00  0.00    -0.265 OA
BRANCH  18  21
HETATM   21  N   UNL     1       7.609  26.008  54.513  1.00  0.00    -0.267 N 
HETATM   22  C   UNL     1       6.651  25.108  54.095  1.00  0.00     0.240 C 
HETATM   23  O   UNL     1       5.510  25.090  54.554  1.00  0.00    -0.272 OA
HETATM   24  H   UNL     1       8.495  26.146  54.028  1.00  0.00     0.190 HD
BRANCH  22  25
HETATM   25  C   UNL     1       7.145  24.098  53.077  1.00  0.00     0.143 C 
BRANCH  25  26
HETATM   26  C   UNL     1       7.544  22.775  53.680  1.00  0.00    -0.049 A 
HETATM   27  C   UNL     1       7.517  22.585  55.069  1.00  0.00     0.007 A 
HETATM   28  C   UNL     1       7.867  21.351  55.620  1.00  0.00     0.001 A 
HETATM   29  C   UNL     1       8.245  20.297  54.790  1.00  0.00     0.000 A 
HETATM   30  C   UNL     1       8.276  20.475  53.408  1.00  0.00     0.001 A 
HETATM   31  C   UNL     1       7.927  21.708  52.855  1.00  0.00     0.007 A 
ENDBRANCH  25  26
ENDBRANCH  22  25
ENDBRANCH  18  21
ENDBRANCH  10  17
BRANCH   1  32
HETATM   32  O   UNL     1       4.391  34.919  61.702  1.00  0.00    -0.351 OA
BRANCH  32  33
HETATM   33  C   UNL     1       3.857  34.779  63.018  1.00  0.00     0.171 C 
HETATM   34  C   UNL     1       2.463  34.193  62.897  1.00  0.00     0.034 C 
ENDBRANCH  32  33
ENDBRANCH   1  32
TORSDOF 6
ENDMDL
MODEL 4
REMARK VINA RESULT:      -9.5      2.810     11.684
REMARK  6 active torsions:
REMARK  status: ('A' for Active; 'I' for Inactive)
REMARK    1  A    between atoms: C_2  and  O_3 
REMARK    2  A    between atoms: O_3  and  C_4 
REMARK    3  A    between atoms: C_13  and  C_14 
REMARK       I    between atoms: C_14  and  N_15 
REMARK    4  A    between atoms: N_15  and  N_16 
REMARK       I    between atoms: N_16  and  C_17 
REMARK    5  A    between atoms: C_17  and  C_18 
REMARK    6  A    between atoms: C_18  and  C_19 
ROOT
HETATM    1  C   UNL     1       6.872  24.059  53.264  1.00  0.00     0.069 A 
HETATM    2  C   UNL     1       7.626  24.825  54.152  1.00  0.00     0.050 A 
HETATM    3  C   UNL     1       7.093  25.987  54.739  1.00  0.00    -0.004 A 
HETATM    4  C   UNL     1       5.782  26.400  54.435  1.00  0.00     0.068 A 
HETATM    5  N   UNL     1       5.201  27.483  54.960  1.00  0.00    -0.240 NA
HETATM    6  C   UNL     1       5.956  28.189  55.825  1.00  0.00     0.111 A 
HETATM    7  C   UNL     1       7.260  27.908  56.207  1.00  0.00     0.028 A 
HETATM    8  C   UNL     1       7.844  26.757  55.637  1.00  0.00     0.030 A 
HETATM    9  S   UNL     1       5.335  29.581  56.580  1.00  0.00    -0.062 SA
HETATM   10  C   UNL     1       6.798  29.866  57.433  1.00  0.00     0.103 A 
HETATM   11  C   UNL     1       7.737  28.893  57.134  1.00  0.00     0.062 A 
HETATM   12  N   UNL     1       8.980  28.870  57.665  1.00  0.00    -0.397 N 
HETATM   13  C   UNL     1       5.056  25.630  53.538  1.00  0.00     0.035 A 
HETATM   14  C   UNL     1       5.582  24.470  52.951  1.00  0.00     0.039 A 
HETATM   15  H   UNL     1       9.316  29.650  58.236  1.00  0.00     0.156 HD
HETATM   16  H   UNL     1       9.718  28.259  57.331  1.00  0.00     0.156 HD
ENDROOT
BRANCH  10  17
HETATM   17  C   UNL     1       6.954  31.015  58.314  1.00  0.00     0.279 C 
HETATM   18  N   UNL     1       5.811  31.460  58.958  1.00  0.00    -0.263 N 
HETATM   19  H   UNL     1       4.895  31.040  58.812  1.00  0.00     0.190 HD
HETATM   20  O   UNL     1       8.033  31.588  58.501  1.00  0.00    -0.265 OA
BRANCH  18  21
HETATM   21  N   UNL     1       5.868  32.625  59.727  1.00  0.00    -0.267 N 
HETATM   22  C   UNL     1       4.981  32.766  60.774  1.00  0.00     0.240 C 
HETATM   23  O   UNL     1       4.120  31.926  61.033  1.00  0.00    -0.272 OA
HETATM   24  H   UNL     1       6.686  33.221  59.605  1.00  0.00     0.190 HD
BRANCH  22  25
HETATM   25  C   UNL     1       5.109  34.073  61.530  1.00  0.00     0.143 C 
BRANCH  25  26
HETATM   26  C   UNL     1       5.836  33.944  62.845  1.00  0.00    -0.049 A 
HETATM   27  C   UNL     1       5.303  34.501  64.016  1.00  0.00     0.007 A 
HETATM   28  C   UNL     1       5.970  34.358  65.234  1.00  0.00     0.001 A 
HETATM   29  C   UNL     1       7.173  33.658  65.294  1.00  0.00     0.000 A 
HETATM   30  C   UNL     1       7.713  33.100  64.136  1.00  0.00     0.001 A 
HETATM   31  C   UNL     1       7.048  33.242  62.917  1.00  0.00     0.007 A 
ENDBRANCH  25  26
ENDBRANCH  22  25
ENDBRANCH  18  21
ENDBRANCH  10  17
BRANCH   1  32
HETATM   32  O   UNL     1       7.506  22.951  52.780  1.00  0.00    -0.351 OA
BRANCH  32  33
HETATM   33  C   UNL     1       7.841  21.930  53.720  1.00  0.00     0.171 C 
HETATM   34  C   UNL     1       8.216  20.682  52.942  1.00  0.00     0.034 C 
ENDBRANCH  32  33
ENDBRANCH   1  32
TORSDOF 6
ENDMDL
MODEL 5
REMARK VINA RESULT:      -9.4      2.413      3.710
REMARK  6 active torsions:
REMARK  status: ('A' for Active; 'I' for Inactive)
REMARK    1  A    between atoms: C_2  and  O_3 
REMARK    2  A    between atoms: O_3  and  C_4 
REMARK    3  A    between atoms: C_13  and  C_14 
REMARK       I    between atoms: C_14  and  N_15 
REMARK    4  A    between atoms: N_15  and  N_16 
REMARK       I    between atoms: N_16  and  C_17 
REMARK    5  A    between atoms: C_17  and  C_18 
REMARK    6  A    between atoms: C_18  and  C_19 
ROOT
HETATM    1  C   UNL     1       5.891  33.985  63.986  1.00  0.00     0.069 A 
HETATM    2  C   UNL     1       5.575  33.652  62.669  1.00  0.00     0.050 A 
HETATM    3  C   UNL     1       6.444  32.864  61.893  1.00  0.00    -0.004 A 
HETATM    4  C   UNL     1       7.657  32.399  62.436  1.00  0.00     0.068 A 
HETATM    5  N   UNL     1       8.530  31.638  61.768  1.00  0.00    -0.240 NA
HETATM    6  C   UNL     1       8.182  31.324  60.504  1.00  0.00     0.111 A 
HETATM    7  C   UNL     1       7.030  31.719  59.839  1.00  0.00     0.028 A 
HETATM    8  C   UNL     1       6.129  32.520  60.572  1.00  0.00     0.030 A 
HETATM    9  S   UNL     1       9.192  30.347  59.546  1.00  0.00    -0.062 SA
HETATM   10  C   UNL     1       8.129  30.433  58.200  1.00  0.00     0.103 A 
HETATM   11  C   UNL     1       7.017  31.200  58.502  1.00  0.00     0.062 A 
HETATM   12  N   UNL     1       6.015  31.437  57.626  1.00  0.00    -0.397 N 
HETATM   13  C   UNL     1       7.957  32.755  63.743  1.00  0.00     0.035 A 
HETATM   14  C   UNL     1       7.093  33.539  64.521  1.00  0.00     0.039 A 
HETATM   15  H   UNL     1       6.097  31.140  56.650  1.00  0.00     0.156 HD
HETATM   16  H   UNL     1       5.284  32.122  57.785  1.00  0.00     0.156 HD
ENDROOT
BRANCH  10  17
HETATM   17  C   UNL     1       8.443  29.776  56.938  1.00  0.00     0.279 C 
HETATM   18  N   UNL     1       7.637  28.709  56.579  1.00  0.00    -0.263 N 
HETATM   19  H   UNL     1       6.879  28.365  57.167  1.00  0.00     0.190 HD
HETATM   20  O   UNL     1       9.373  30.125  56.202  1.00  0.00    -0.265 OA
BRANCH  18  21
HETATM   21  N   UNL     1       7.953  27.965  55.439  1.00  0.00    -0.267 N 
HETATM   22  C   UNL     1       6.940  27.282  54.798  1.00  0.00     0.240 C 
HETATM   23  O   UNL     1       5.780  27.273  55.209  1.00  0.00    -0.272 OA
HETATM   24  H   UNL     1       8.870  28.121  55.024  1.00  0.00     0.190 HD
BRANCH  22  25
HETATM   25  C   UNL     1       7.390  26.488  53.588  1.00  0.00     0.143 C 
BRANCH  25  26
HETATM   26  C   UNL     1       7.486  25.004  53.839  1.00  0.00    -0.049 A 
HETATM   27  C   UNL     1       7.680  24.109  52.777  1.00  0.00     0.007 A 
HETATM   28  C   UNL     1       7.790  22.739  53.019  1.00  0.00     0.001 A 
HETATM   29  C   UNL     1       7.708  22.250  54.321  1.00  0.00     0.000 A 
HETATM   30  C   UNL     1       7.515  23.130  55.384  1.00  0.00     0.001 A 
HETATM   31  C   UNL     1       7.404  24.501  55.146  1.00  0.00     0.007 A 
ENDBRANCH  25  26
ENDBRANCH  22  25
ENDBRANCH  18  21
ENDBRANCH  10  17
BRANCH   1  32
HETATM   32  O   UNL     1       4.952  34.741  64.627  1.00  0.00    -0.351 OA
BRANCH  32  33
HETATM   33  C   UNL     1       4.367  34.191  65.807  1.00  0.00     0.171 C 
HETATM   34  C   UNL     1       3.486  35.256  66.434  1.00  0.00     0.034 C 
ENDBRANCH  32  33
ENDBRANCH   1  32
TORSDOF 6
ENDMDL
MODEL 6
REMARK VINA RESULT:      -9.1      3.487     12.005
REMARK  6 active torsions:
REMARK  status: ('A' for Active; 'I' for Inactive)
REMARK    1  A    between atoms: C_2  and  O_3 
REMARK    2  A    between atoms: O_3  and  C_4 
REMARK    3  A    between atoms: C_13  and  C_14 
REMARK       I    between atoms: C_14  and  N_15 
REMARK    4  A    between atoms: N_15  and  N_16 
REMARK       I    between atoms: N_16  and  C_17 
REMARK    5  A    between atoms: C_17  and  C_18 
REMARK    6  A    between atoms: C_18  and  C_19 
ROOT
HETATM    1  C   UNL     1       4.945  26.250  50.978  1.00  0.00     0.069 A 
HETATM    2  C   UNL     1       4.950  27.458  51.676  1.00  0.00     0.050 A 
HETATM    3  C   UNL     1       5.427  27.530  52.997  1.00  0.00    -0.004 A 
HETATM    4  C   UNL     1       5.908  26.375  53.642  1.00  0.00     0.068 A 
HETATM    5  N   UNL     1       6.388  26.363  54.890  1.00  0.00    -0.240 NA
HETATM    6  C   UNL     1       6.390  27.552  55.525  1.00  0.00     0.111 A 
HETATM    7  C   UNL     1       5.940  28.762  55.019  1.00  0.00     0.028 A 
HETATM    8  C   UNL     1       5.441  28.742  53.700  1.00  0.00     0.030 A 
HETATM    9  S   UNL     1       6.990  27.684  57.111  1.00  0.00    -0.062 SA
HETATM   10  C   UNL     1       6.651  29.366  57.182  1.00  0.00     0.103 A 
HETATM   11  C   UNL     1       6.091  29.804  55.994  1.00  0.00     0.062 A 
HETATM   12  N   UNL     1       5.724  31.086  55.772  1.00  0.00    -0.397 N 
HETATM   13  C   UNL     1       5.880  25.182  52.935  1.00  0.00     0.035 A 
HETATM   14  C   UNL     1       5.407  25.105  51.616  1.00  0.00     0.039 A 
HETATM   15  H   UNL     1       5.747  31.772  56.530  1.00  0.00     0.156 HD
HETATM   16  H   UNL     1       5.171  31.377  54.973  1.00  0.00     0.156 HD
ENDROOT
BRANCH  10  17
HETATM   17  C   UNL     1       6.925  30.148  58.381  1.00  0.00     0.279 C 
HETATM   18  N   UNL     1       8.009  29.749  59.145  1.00  0.00    -0.263 N 
HETATM   19  H   UNL     1       8.578  28.936  58.916  1.00  0.00     0.190 HD
HETATM   20  O   UNL     1       6.247  31.121  58.728  1.00  0.00    -0.265 OA
BRANCH  18  21
HETATM   21  N   UNL     1       8.259  30.384  60.364  1.00  0.00    -0.267 N 
HETATM   22  C   UNL     1       9.092  31.483  60.375  1.00  0.00     0.240 C 
HETATM   23  O   UNL     1       9.652  31.903  59.363  1.00  0.00    -0.272 OA
HETATM   24  H   UNL     1       7.661  30.129  61.149  1.00  0.00     0.190 HD
BRANCH  22  25
HETATM   25  C   UNL     1       9.316  32.084  61.748  1.00  0.00     0.143 C 
BRANCH  25  26
HETATM   26  C   UNL     1       8.067  32.657  62.370  1.00  0.00    -0.049 A 
HETATM   27  C   UNL     1       7.912  32.690  63.763  1.00  0.00     0.007 A 
HETATM   28  C   UNL     1       6.763  33.241  64.332  1.00  0.00     0.001 A 
HETATM   29  C   UNL     1       5.760  33.764  63.518  1.00  0.00     0.000 A 
HETATM   30  C   UNL     1       5.904  33.736  62.132  1.00  0.00     0.001 A 
HETATM   31  C   UNL     1       7.051  33.185  61.559  1.00  0.00     0.007 A 
ENDBRANCH  25  26
ENDBRANCH  22  25
ENDBRANCH  18  21
ENDBRANCH  10  17
BRANCH   1  32
HETATM   32  O   UNL     1       4.469  26.327  49.701  1.00  0.00    -0.351 OA
BRANCH  32  33
HETATM   33  C   UNL     1       4.414  27.622  49.104  1.00  0.00     0.171 C 
HETATM   34  C   UNL     1       5.030  27.527  47.721  1.00  0.00     0.034 C 
ENDBRANCH  32  33
ENDBRANCH   1  32
TORSDOF 6
ENDMDL
MODEL 7
REMARK VINA RESULT:      -9.1      2.103      3.235
REMARK  6 active torsions:
REMARK  status: ('A' for Active; 'I' for Inactive)
REMARK    1  A    between atoms: C_2  and  O_3 
REMARK    2  A    between atoms: O_3  and  C_4 
REMARK    3  A    between atoms: C_13  and  C_14 
REMARK       I    between atoms: C_14  and  N_15 
REMARK    4  A    between atoms: N_15  and  N_16 
REMARK       I    between atoms: N_16  and  C_17 
REMARK    5  A    between atoms: C_17  and  C_18 
REMARK    6  A    between atoms: C_18  and  C_19 
ROOT
HETATM    1  C   UNL     1       6.006  34.463  64.832  1.00  0.00     0.069 A 
HETATM    2  C   UNL     1       5.294  34.294  63.645  1.00  0.00     0.050 A 
HETATM    3  C   UNL     1       5.810  33.510  62.597  1.00  0.00    -0.004 A 
HETATM    4  C   UNL     1       7.062  32.882  62.729  1.00  0.00     0.068 A 
HETATM    5  N   UNL     1       7.614  32.113  61.785  1.00  0.00    -0.240 NA
HETATM    6  C   UNL     1       6.889  31.960  60.659  1.00  0.00     0.111 A 
HETATM    7  C   UNL     1       5.652  32.525  60.388  1.00  0.00     0.028 A 
HETATM    8  C   UNL     1       5.096  33.330  61.404  1.00  0.00     0.030 A 
HETATM    9  S   UNL     1       7.464  30.993  59.384  1.00  0.00    -0.062 SA
HETATM   10  C   UNL     1       6.082  31.311  58.416  1.00  0.00     0.103 A 
HETATM   11  C   UNL     1       5.200  32.146  59.081  1.00  0.00     0.062 A 
HETATM   12  N   UNL     1       4.026  32.561  58.553  1.00  0.00    -0.397 N 
HETATM   13  C   UNL     1       7.759  33.076  63.913  1.00  0.00     0.035 A 
HETATM   14  C   UNL     1       7.249  33.856  64.961  1.00  0.00     0.039 A 
HETATM   15  H   UNL     1       3.794  32.356  57.578  1.00  0.00     0.156 HD
HETATM   16  H   UNL     1       3.457  33.293  58.965  1.00  0.00     0.156 HD
ENDROOT
BRANCH  10  17
HETATM   17  C   UNL     1       5.947  30.757  57.075  1.00  0.00     0.279 C 
HETATM   18  N   UNL     1       6.259  29.416  56.926  1.00  0.00    -0.263 N 
HETATM   19  H   UNL     1       6.597  28.838  57.694  1.00  0.00     0.190 HD
HETATM   20  O   UNL     1       5.578  31.419  56.099  1.00  0.00    -0.265 OA
BRANCH  18  21
HETATM   21  N   UNL     1       6.261  28.850  55.649  1.00  0.00    -0.267 N 
HETATM   22  C   UNL     1       7.403  28.211  55.214  1.00  0.00     0.240 C 
HETATM   23  O   UNL     1       8.429  28.151  55.890  1.00  0.00    -0.272 OA
HETATM   24  H   UNL     1       5.360  28.764  55.180  1.00  0.00     0.190 HD
BRANCH  22  25
HETATM   25  C   UNL     1       7.310  27.653  53.808  1.00  0.00     0.143 C 
BRANCH  25  26
HETATM   26  C   UNL     1       7.379  26.147  53.748  1.00  0.00    -0.049 A 
HETATM   27  C   UNL     1       6.875  25.365  54.796  1.00  0.00     0.007 A 
HETATM   28  C   UNL     1       6.922  23.972  54.724  1.00  0.00     0.001 A 
HETATM   29  C   UNL     1       7.471  23.347  53.606  1.00  0.00     0.000 A 
HETATM   30  C   UNL     1       7.976  24.115  52.558  1.00  0.00     0.001 A 
HETATM   31  C   UNL     1       7.931  25.508  52.627  1.00  0.00     0.007 A 
ENDBRANCH  25  26
ENDBRANCH  22  25
ENDBRANCH  18  21
ENDBRANCH  10  17
BRANCH   1  32
HETATM   32  O   UNL     1       5.383  35.237  65.769  1.00  0.00    -0.351 OA
BRANCH  32  33
HETATM   33  C   UNL     1       5.570  34.877  67.138  1.00  0.00     0.171 C 
HETATM   34  C   UNL     1       4.439  33.946  67.535  1.00  0.00     0.034 C 
ENDBRANCH  32  33
ENDBRANCH   1  32
TORSDOF 6
ENDMDL
MODEL 8
REMARK VINA RESULT:      -9.0      2.369     11.327
REMARK  6 active torsions:
REMARK  status: ('A' for Active; 'I' for Inactive)
REMARK    1  A    between atoms: C_2  and  O_3 
REMARK    2  A    between atoms: O_3  and  C_4 
REMARK    3  A    between atoms: C_13  and  C_14 
REMARK       I    between atoms: C_14  and  N_15 
REMARK    4  A    between atoms: N_15  and  N_16 
REMARK       I    between atoms: N_16  and  C_17 
REMARK    5  A    between atoms: C_17  and  C_18 
REMARK    6  A    between atoms: C_18  and  C_19 
ROOT
HETATM    1  C   UNL     1       7.847  23.851  55.237  1.00  0.00     0.069 A 
HETATM    2  C   UNL     1       8.379  24.886  56.005  1.00  0.00     0.050 A 
HETATM    3  C   UNL     1       7.624  26.040  56.286  1.00  0.00    -0.004 A 
HETATM    4  C   UNL     1       6.312  26.169  55.792  1.00  0.00     0.068 A 
HETATM    5  N   UNL     1       5.529  27.227  56.025  1.00  0.00    -0.240 NA
HETATM    6  C   UNL     1       6.072  28.199  56.784  1.00  0.00     0.111 A 
HETATM    7  C   UNL     1       7.349  28.211  57.326  1.00  0.00     0.028 A 
HETATM    8  C   UNL     1       8.150  27.081  57.063  1.00  0.00     0.030 A 
HETATM    9  S   UNL     1       5.179  29.593  57.173  1.00  0.00    -0.062 SA
HETATM   10  C   UNL     1       6.478  30.270  58.069  1.00  0.00     0.103 A 
HETATM   11  C   UNL     1       7.572  29.421  58.062  1.00  0.00     0.062 A 
HETATM   12  N   UNL     1       8.736  29.703  58.690  1.00  0.00    -0.397 N 
HETATM   13  C   UNL     1       5.810  25.133  55.018  1.00  0.00     0.035 A 
HETATM   14  C   UNL     1       6.558  23.980  54.735  1.00  0.00     0.039 A 
HETATM   15  H   UNL     1       8.891  30.623  59.111  1.00  0.00     0.156 HD
HETATM   16  H   UNL     1       9.586  29.165  58.557  1.00  0.00     0.156 HD
ENDROOT
BRANCH  10  17
HETATM   17  C   UNL     1       6.369  31.579  58.698  1.00  0.00     0.279 C 
HETATM   18  N   UNL     1       6.413  31.605  60.082  1.00  0.00    -0.263 N 
HETATM   19  H   UNL     1       6.486  30.762  60.649  1.00  0.00     0.190 HD
HETATM   20  O   UNL     1       6.241  32.632  58.063  1.00  0.00    -0.265 OA
BRANCH  18  21
HETATM   21  N   UNL     1       6.200  32.813  60.752  1.00  0.00    -0.267 N 
HETATM   22  C   UNL     1       6.283  32.825  62.129  1.00  0.00     0.240 C 
HETATM   23  O   UNL     1       6.501  31.810  62.791  1.00  0.00    -0.272 OA
HETATM   24  H   UNL     1       6.190  33.660  60.186  1.00  0.00     0.190 HD
BRANCH  22  25
HETATM   25  C   UNL     1       6.013  34.176  62.760  1.00  0.00     0.143 C 
BRANCH  25  26
HETATM   26  C   UNL     1       5.841  34.122  64.257  1.00  0.00    -0.049 A 
HETATM   27  C   UNL     1       6.957  34.064  65.104  1.00  0.00     0.007 A 
HETATM   28  C   UNL     1       6.792  34.036  66.490  1.00  0.00     0.001 A 
HETATM   29  C   UNL     1       5.513  34.068  67.043  1.00  0.00     0.000 A 
HETATM   30  C   UNL     1       4.397  34.126  66.210  1.00  0.00     0.001 A 
HETATM   31  C   UNL     1       4.559  34.153  64.824  1.00  0.00     0.007 A 
ENDBRANCH  25  26
ENDBRANCH  22  25
ENDBRANCH  18  21
ENDBRANCH  10  17
BRANCH   1  32
HETATM   32  O   UNL     1       8.683  22.786  55.053  1.00  0.00    -0.351 OA
BRANCH  32  33
HETATM   33  C   UNL     1       8.128  21.484  55.240  1.00  0.00     0.171 C 
HETATM   34  C   UNL     1       8.486  21.020  56.640  1.00  0.00     0.034 C 
ENDBRANCH  32  33
ENDBRANCH   1  32
TORSDOF 6
ENDMDL
MODEL 9
REMARK VINA RESULT:      -8.8      4.288     12.455
REMARK  6 active torsions:
REMARK  status: ('A' for Active; 'I' for Inactive)
REMARK    1  A    between atoms: C_2  and  O_3 
REMARK    2  A    between atoms: O_3  and  C_4 
REMARK    3  A    between atoms: C_13  and  C_14 
REMARK       I    between atoms: C_14  and  N_15 
REMARK    4  A    between atoms: N_15  and  N_16 
REMARK       I    between atoms: N_16  and  C_17 
REMARK    5  A    between atoms: C_17  and  C_18 
REMARK    6  A    between atoms: C_18  and  C_19 
ROOT
HETATM    1  C   UNL     1       3.996  27.815  49.710  1.00  0.00     0.069 A 
HETATM    2  C   UNL     1       4.931  27.411  50.663  1.00  0.00     0.050 A 
HETATM    3  C   UNL     1       4.975  28.011  51.934  1.00  0.00    -0.004 A 
HETATM    4  C   UNL     1       4.072  29.039  52.267  1.00  0.00     0.068 A 
HETATM    5  N   UNL     1       4.043  29.649  53.455  1.00  0.00    -0.240 NA
HETATM    6  C   UNL     1       4.951  29.221  54.354  1.00  0.00     0.111 A 
HETATM    7  C   UNL     1       5.903  28.231  54.162  1.00  0.00     0.028 A 
HETATM    8  C   UNL     1       5.907  27.604  52.898  1.00  0.00     0.030 A 
HETATM    9  S   UNL     1       5.013  29.899  55.912  1.00  0.00    -0.062 SA
HETATM   10  C   UNL     1       6.330  28.901  56.380  1.00  0.00     0.103 A 
HETATM   11  C   UNL     1       6.700  28.061  55.342  1.00  0.00     0.062 A 
HETATM   12  N   UNL     1       7.710  27.168  55.433  1.00  0.00    -0.397 N 
HETATM   13  C   UNL     1       3.161  29.434  51.298  1.00  0.00     0.035 A 
HETATM   14  C   UNL     1       3.112  28.838  50.029  1.00  0.00     0.039 A 
HETATM   15  H   UNL     1       8.322  27.156  56.253  1.00  0.00     0.156 HD
HETATM   16  H   UNL     1       8.087  26.668  54.634  1.00  0.00     0.156 HD
ENDROOT
BRANCH  10  17
HETATM   17  C   UNL     1       6.934  29.006  57.701  1.00  0.00     0.279 C 
HETATM   18  N   UNL     1       6.661  30.161  58.416  1.00  0.00    -0.263 N 
HETATM   19  H   UNL     1       6.096  30.922  58.042  1.00  0.00     0.190 HD
HETATM   20  O   UNL     1       7.657  28.132  58.190  1.00  0.00    -0.265 OA
BRANCH  18  21
HETATM   21  N   UNL     1       7.299  30.376  59.640  1.00  0.00    -0.267 N 
HETATM   22  C   UNL     1       8.042  31.527  59.801  1.00  0.00     0.240 C 
HETATM   23  O   UNL     1       8.196  32.350  58.900  1.00  0.00    -0.272 OA
HETATM   24  H   UNL     1       7.023  29.776  60.416  1.00  0.00     0.190 HD
BRANCH  22  25
HETATM   25  C   UNL     1       8.711  31.654  61.155  1.00  0.00     0.143 C 
BRANCH  25  26
HETATM   26  C   UNL     1       7.942  32.505  62.134  1.00  0.00    -0.049 A 
HETATM   27  C   UNL     1       6.882  33.313  61.700  1.00  0.00     0.007 A 
HETATM   28  C   UNL     1       6.159  34.082  62.614  1.00  0.00     0.001 A 
HETATM   29  C   UNL     1       6.487  34.050  63.968  1.00  0.00     0.000 A 
HETATM   30  C   UNL     1       7.540  33.250  64.410  1.00  0.00     0.001 A 
HETATM   31  C   UNL     1       8.264  32.481  63.499  1.00  0.00     0.007 A 
ENDBRANCH  25  26
ENDBRANCH  22  25
ENDBRANCH  18  21
ENDBRANCH  10  17
BRANCH   1  32
HETATM   32  O   UNL     1       4.056  27.139  48.525  1.00  0.00    -0.351 OA
BRANCH  32  33
HETATM   33  C   UNL     1       2.816  26.767  47.925  1.00  0.00     0.171 C 
HETATM   34  C   UNL     1       2.938  25.331  47.449  1.00  0.00     0.034 C 
ENDBRANCH  32  33
ENDBRANCH   1  32
TORSDOF 6
ENDMDL
MODEL 10
REMARK VINA RESULT:      -8.5      4.592     12.596
REMARK  6 active torsions:
REMARK  status: ('A' for Active; 'I' for Inactive)
REMARK    1  A    between atoms: C_2  and  O_3 
REMARK    2  A    between atoms: O_3  and  C_4 
REMARK    3  A    between atoms: C_13  and  C_14 
REMARK       I    between atoms: C_14  and  N_15 
REMARK    4  A    between atoms: N_15  and  N_16 
REMARK       I    between atoms: N_16  and  C_17 
REMARK    5  A    between atoms: C_17  and  C_18 
REMARK    6  A    between atoms: C_18  and  C_19 
ROOT
HETATM    1  C   UNL     1       3.941  27.663  49.286  1.00  0.00     0.069 A 
HETATM    2  C   UNL     1       3.902  28.624  50.297  1.00  0.00     0.050 A 
HETATM    3  C   UNL     1       4.519  28.394  51.539  1.00  0.00    -0.004 A 
HETATM    4  C   UNL     1       5.189  27.180  51.786  1.00  0.00     0.068 A 
HETATM    5  N   UNL     1       5.810  26.892  52.934  1.00  0.00    -0.240 NA
HETATM    6  C   UNL     1       5.763  27.851  53.880  1.00  0.00     0.111 A 
HETATM    7  C   UNL     1       5.134  29.082  53.780  1.00  0.00     0.028 A 
HETATM    8  C   UNL     1       4.489  29.358  52.556  1.00  0.00     0.030 A 
HETATM    9  S   UNL     1       6.527  27.622  55.382  1.00  0.00    -0.062 SA
HETATM   10  C   UNL     1       6.026  29.160  55.959  1.00  0.00     0.103 A 
HETATM   11  C   UNL     1       5.288  29.828  54.996  1.00  0.00     0.062 A 
HETATM   12  N   UNL     1       4.767  31.061  55.180  1.00  0.00    -0.397 N 
HETATM   13  C   UNL     1       5.203  26.234  50.772  1.00  0.00     0.035 A 
HETATM   14  C   UNL     1       4.590  26.459  49.530  1.00  0.00     0.039 A 
HETATM   15  H   UNL     1       4.808  31.511  56.099  1.00  0.00     0.156 HD
HETATM   16  H   UNL     1       4.098  31.485  54.546  1.00  0.00     0.156 HD
ENDROOT
BRANCH  10  17
HETATM   17  C   UNL     1       6.355  29.613  57.304  1.00  0.00     0.279 C 
HETATM   18  N   UNL     1       7.599  29.249  57.792  1.00  0.00    -0.263 N 
HETATM   19  H   UNL     1       8.251  28.668  57.267  1.00  0.00     0.190 HD
HETATM   20  O   UNL     1       5.590  30.288  58.001  1.00  0.00    -0.265 OA
BRANCH  18  21
HETATM   21  N   UNL     1       7.932  29.554  59.114  1.00  0.00    -0.267 N 
HETATM   22  C   UNL     1       8.845  30.562  59.347  1.00  0.00     0.240 C 
HETATM   23  O   UNL     1       9.402  31.176  58.438  1.00  0.00    -0.272 OA
HETATM   24  H   UNL     1       7.342  29.156  59.843  1.00  0.00     0.190 HD
BRANCH  22  25
HETATM   25  C   UNL     1       9.155  30.798  60.812  1.00  0.00     0.143 C 
BRANCH  25  26
HETATM   26  C   UNL     1       8.207  31.759  61.484  1.00  0.00    -0.049 A 
HETATM   27  C   UNL     1       8.363  32.089  62.838  1.00  0.00     0.007 A 
HETATM   28  C   UNL     1       7.496  32.996  63.448  1.00  0.00     0.001 A 
HETATM   29  C   UNL     1       6.467  33.583  62.714  1.00  0.00     0.000 A 
HETATM   30  C   UNL     1       6.302  33.262  61.368  1.00  0.00     0.001 A 
HETATM   31  C   UNL     1       7.167  32.355  60.754  1.00  0.00     0.007 A 
ENDBRANCH  25  26
ENDBRANCH  22  25
ENDBRANCH  18  21
ENDBRANCH  10  17
BRANCH   1  32
HETATM   32  O   UNL     1       3.313  28.023  48.128  1.00  0.00    -0.351 OA
BRANCH  32  33
HETATM   33  C   UNL     1       2.805  26.971  47.309  1.00  0.00     0.171 C 
HETATM   34  C   UNL     1       1.294  27.102  47.262  1.00  0.00     0.034 C 
ENDBRANCH  32  33
ENDBRANCH   1  32
TORSDOF 6
ENDMDL
