MODEL 1
REMARK VINA RESULT:      -9.2      0.000      0.000
REMARK  8 active torsions:
REMARK  status: ('A' for Active; 'I' for Inactive)
REMARK    1  A    between atoms: C_2  and  C_3 
REMARK    2  A    between atoms: C_3  and  C_4 
REMARK       I    between atoms: C_4  and  N_5 
REMARK    3  A    between atoms: N_8  and  C_9 
REMARK    4  A    between atoms: C_12  and  N_13 
REMARK    5  A    between atoms: N_13  and  C_14 
REMARK    6  A    between atoms: C_14  and  N_15 
REMARK       I    between atoms: N_15  and  C_16 
REMARK    7  A    between atoms: C_16  and  C_17 
REMARK    8  A    between atoms: C_18  and  O_19 
ROOT
HETATM    1  C   UNL     1       7.169  28.640  57.383  1.00  0.00     0.030 A 
HETATM    2  C   UNL     1       6.024  29.405  57.118  1.00  0.00     0.031 A 
HETATM    3  C   UNL     1       5.791  30.635  57.744  1.00  0.00     0.032 A 
HETATM    4  C   UNL     1       6.702  31.145  58.665  1.00  0.00     0.034 A 
HETATM    5  C   UNL     1       7.886  30.449  58.888  1.00  0.00     0.032 A 
HETATM    6  C   UNL     1       8.099  29.205  58.273  1.00  0.00     0.031 A 
ENDROOT
BRANCH   4   7
HETATM    7  N   UNL     1       6.481  32.369  59.332  1.00  0.00    -0.333 N 
HETATM    8  H   UNL     1       7.305  32.822  59.708  1.00  0.00     0.168 HD
BRANCH   7   9
HETATM    9  C   UNL     1       5.259  32.820  59.839  1.00  0.00     0.179 C 
HETATM   10  S   UNL     1       4.550  34.286  59.441  1.00  0.00    -0.040 SA
BRANCH   9  11
HETATM   11  N   UNL     1       4.707  31.854  60.697  1.00  0.00    -0.299 N 
HETATM   12  C   UNL     1       4.475  31.811  62.073  1.00  0.00     0.260 C 
HETATM   13  O   UNL     1       3.585  31.095  62.524  1.00  0.00    -0.267 OA
HETATM   14  H   UNL     1       4.168  31.138  60.233  1.00  0.00     0.171 HD
BRANCH  12  15
HETATM   15  C   UNL     1       5.380  32.551  62.978  1.00  0.00     0.067 A 
HETATM   16  C   UNL     1       6.744  32.234  63.054  1.00  0.00     0.084 A 
HETATM   17  C   UNL     1       7.558  32.943  63.945  1.00  0.00     0.039 A 
HETATM   18  C   UNL     1       7.025  33.979  64.718  1.00  0.00     0.026 A 
HETATM   19  C   UNL     1       5.676  34.311  64.602  1.00  0.00     0.035 A 
HETATM   20 CL   UNL     1       5.024  35.585  65.556  1.00  0.00    -0.084 Cl
HETATM   21  C   UNL     1       4.849  33.609  63.731  1.00  0.00     0.043 A 
BRANCH  16  22
HETATM   22  O   UNL     1       7.206  31.174  62.322  1.00  0.00    -0.355 OA
HETATM   23  C   UNL     1       8.625  31.112  62.209  1.00  0.00     0.210 C 
ENDBRANCH  16  22
ENDBRANCH  12  15
ENDBRANCH   9  11
ENDBRANCH   7   9
ENDBRANCH   4   7
BRANCH   1  24
HETATM   24  N   UNL     1       7.350  27.349  56.873  1.00  0.00    -0.378 N 
HETATM   25  C   UNL     1       6.533  26.951  55.707  1.00  0.00     0.143 C 
HETATM   26  C   UNL     1       7.173  25.747  54.983  1.00  0.00     0.145 C 
HETATM   27  N   UNL     1       7.515  24.634  55.880  1.00  0.00    -0.349 N 
HETATM   28  C   UNL     1       7.742  23.332  55.439  1.00  0.00     0.219 C 
HETATM   29  C   UNL     1       8.189  25.025  57.121  1.00  0.00     0.145 C 
HETATM   30  O   UNL     1       8.257  22.481  56.166  1.00  0.00    -0.273 OA
HETATM   31  C   UNL     1       7.555  26.234  57.822  1.00  0.00     0.143 C 
BRANCH  28  32
HETATM   32  C   UNL     1       7.319  23.002  54.017  1.00  0.00     0.103 C 
BRANCH  32  33
HETATM   33  C   UNL     1       8.384  22.190  53.277  1.00  0.00     0.005 C 
HETATM   34  C   UNL     1       7.972  20.737  53.116  1.00  0.00     0.005 C 
ENDBRANCH  32  33
ENDBRANCH  28  32
ENDBRANCH   1  24
TORSDOF 8
ENDMDL
MODEL 2
REMARK VINA RESULT:      -8.9      1.752      2.482
REMARK  8 active torsions:
REMARK  status: ('A' for Active; 'I' for Inactive)
REMARK    1  A    between atoms: C_2  and  C_3 
REMARK    2  A    between atoms: C_3  and  C_4 
REMARK       I    between atoms: C_4  and  N_5 
REMARK    3  A    between atoms: N_8  and  C_9 
REMARK    4  A    between atoms: C_12  and  N_13 
REMARK    5  A    between atoms: N_13  and  C_14 
REMARK    6  A    between atoms: C_14  and  N_15 
REMARK       I    between atoms: N_15  and  C_16 
REMARK    7  A    between atoms: C_16  and  C_17 
REMARK    8  A    between atoms: C_18  and  O_19 
ROOT
HETATM    1  C   UNL     1       6.220  29.135  57.447  1.00  0.00     0.030 A 
HETATM    2  C   UNL     1       7.109  30.025  58.066  1.00  0.00     0.031 A 
HETATM    3  C   UNL     1       6.706  31.290  58.511  1.00  0.00     0.032 A 
HETATM    4  C   UNL     1       5.390  31.711  58.347  1.00  0.00     0.034 A 
HETATM    5  C   UNL     1       4.465  30.821  57.810  1.00  0.00     0.032 A 
HETATM    6  C   UNL     1       4.885  29.563  57.347  1.00  0.00     0.031 A 
ENDROOT
BRANCH   4   7
HETATM    7  N   UNL     1       4.961  32.991  58.760  1.00  0.00    -0.333 N 
HETATM    8  H   UNL     1       5.315  33.771  58.220  1.00  0.00     0.168 HD
BRANCH   7   9
HETATM    9  C   UNL     1       4.423  33.315  60.009  1.00  0.00     0.179 C 
HETATM   10  S   UNL     1       4.176  34.880  60.558  1.00  0.00    -0.040 SA
BRANCH   9  11
HETATM   11  N   UNL     1       4.097  32.143  60.712  1.00  0.00    -0.299 N 
HETATM   12  C   UNL     1       4.362  31.694  62.007  1.00  0.00     0.260 C 
HETATM   13  O   UNL     1       3.610  30.885  62.543  1.00  0.00    -0.267 OA
HETATM   14  H   UNL     1       3.346  31.604  60.306  1.00  0.00     0.171 HD
BRANCH  12  15
HETATM   15  C   UNL     1       5.612  32.119  62.674  1.00  0.00     0.067 A 
HETATM   16  C   UNL     1       5.582  32.792  63.903  1.00  0.00     0.084 A 
HETATM   17  C   UNL     1       6.788  33.200  64.485  1.00  0.00     0.039 A 
HETATM   18  C   UNL     1       8.006  32.902  63.867  1.00  0.00     0.026 A 
HETATM   19  C   UNL     1       8.023  32.196  62.665  1.00  0.00     0.035 A 
HETATM   20 CL   UNL     1       9.525  31.833  61.908  1.00  0.00    -0.084 Cl
HETATM   21  C   UNL     1       6.834  31.793  62.067  1.00  0.00     0.043 A 
BRANCH  16  22
HETATM   22  O   UNL     1       4.364  33.113  64.439  1.00  0.00    -0.355 OA
HETATM   23  C   UNL     1       4.396  34.192  65.369  1.00  0.00     0.210 C 
ENDBRANCH  16  22
ENDBRANCH  12  15
ENDBRANCH   9  11
ENDBRANCH   7   9
ENDBRANCH   4   7
BRANCH   1  24
HETATM   24  N   UNL     1       6.635  27.927  56.875  1.00  0.00    -0.378 N 
HETATM   25  C   UNL     1       5.631  27.139  56.131  1.00  0.00     0.143 C 
HETATM   26  C   UNL     1       6.323  26.138  55.180  1.00  0.00     0.145 C 
HETATM   27  N   UNL     1       7.357  25.324  55.834  1.00  0.00    -0.349 N 
HETATM   28  C   UNL     1       7.843  24.129  55.307  1.00  0.00     0.219 C 
HETATM   29  C   UNL     1       8.272  26.067  56.704  1.00  0.00     0.145 C 
HETATM   30  O   UNL     1       8.865  23.596  55.741  1.00  0.00    -0.273 OA
HETATM   31  C   UNL     1       7.575  27.071  57.631  1.00  0.00     0.143 C 
BRANCH  28  32
HETATM   32  C   UNL     1       7.049  23.503  54.171  1.00  0.00     0.103 C 
BRANCH  32  33
HETATM   33  C   UNL     1       7.862  23.432  52.877  1.00  0.00     0.005 C 
HETATM   34  C   UNL     1       7.921  24.779  52.177  1.00  0.00     0.005 C 
ENDBRANCH  32  33
ENDBRANCH  28  32
ENDBRANCH   1  24
TORSDOF 8
ENDMDL
MODEL 3
REMARK VINA RESULT:      -8.7      2.102      2.573
REMARK  8 active torsions:
REMARK  status: ('A' for Active; 'I' for Inactive)
REMARK    1  A    between atoms: C_2  and  C_3 
REMARK    2  A    between atoms: C_3  and  C_4 
REMARK       I    between atoms: C_4  and  N_5 
REMARK    3  A    between atoms: N_8  and  C_9 
REMARK    4  A    between atoms: C_12  and  N_13 
REMARK    5  A    between atoms: N_13  and  C_14 
REMARK    6  A    between atoms: C_14  and  N_15 
REMARK       I    between atoms: N_15  and  C_16 
REMARK    7  A    between atoms: C_16  and  C_17 
REMARK    8  A    between atoms: C_18  and  O_19 
ROOT
HETATM    1  C   UNL     1       7.067  28.803  57.092  1.00  0.00     0.030 A 
HETATM    2  C   UNL     1       6.118  29.834  57.058  1.00  0.00     0.031 A 
HETATM    3  C   UNL     1       6.135  30.891  57.976  1.00  0.00     0.032 A 
HETATM    4  C   UNL     1       7.110  30.952  58.968  1.00  0.00     0.034 A 
HETATM    5  C   UNL     1       8.113  29.988  58.978  1.00  0.00     0.032 A 
HETATM    6  C   UNL     1       8.074  28.920  58.066  1.00  0.00     0.031 A 
ENDROOT
BRANCH   4   7
HETATM    7  N   UNL     1       7.136  31.990  59.924  1.00  0.00    -0.333 N 
HETATM    8  H   UNL     1       7.333  32.916  59.565  1.00  0.00     0.168 HD
BRANCH   7   9
HETATM    9  C   UNL     1       7.285  31.832  61.305  1.00  0.00     0.179 C 
HETATM   10  S   UNL     1       8.742  31.969  62.123  1.00  0.00    -0.040 SA
BRANCH   9  11
HETATM   11  N   UNL     1       6.037  31.575  61.898  1.00  0.00    -0.299 N 
HETATM   12  C   UNL     1       4.923  32.370  62.175  1.00  0.00     0.260 C 
HETATM   13  O   UNL     1       3.810  31.858  62.259  1.00  0.00    -0.267 OA
HETATM   14  H   UNL     1       5.786  30.599  61.942  1.00  0.00     0.171 HD
BRANCH  12  15
HETATM   15  C   UNL     1       5.119  33.805  62.470  1.00  0.00     0.067 A 
HETATM   16  C   UNL     1       5.720  34.222  63.667  1.00  0.00     0.084 A 
HETATM   17  C   UNL     1       5.860  35.592  63.917  1.00  0.00     0.039 A 
HETATM   18  C   UNL     1       5.443  36.529  62.966  1.00  0.00     0.026 A 
HETATM   19  C   UNL     1       4.885  36.100  61.763  1.00  0.00     0.035 A 
HETATM   20 CL   UNL     1       4.372  37.257  60.598  1.00  0.00    -0.084 Cl
HETATM   21  C   UNL     1       4.727  34.743  61.503  1.00  0.00     0.043 A 
BRANCH  16  22
HETATM   22  O   UNL     1       6.057  33.269  64.590  1.00  0.00    -0.355 OA
HETATM   23  C   UNL     1       6.931  33.730  65.618  1.00  0.00     0.210 C 
ENDBRANCH  16  22
ENDBRANCH  12  15
ENDBRANCH   9  11
ENDBRANCH   7   9
ENDBRANCH   4   7
BRANCH   1  24
HETATM   24  N   UNL     1       6.984  27.672  56.273  1.00  0.00    -0.378 N 
HETATM   25  C   UNL     1       7.897  26.546  56.561  1.00  0.00     0.143 C 
HETATM   26  C   UNL     1       7.368  25.242  55.927  1.00  0.00     0.145 C 
HETATM   27  N   UNL     1       7.018  25.378  54.506  1.00  0.00    -0.349 N 
HETATM   28  C   UNL     1       6.884  24.295  53.640  1.00  0.00     0.219 C 
HETATM   29  C   UNL     1       6.241  26.575  54.172  1.00  0.00     0.145 C 
HETATM   30  O   UNL     1       6.361  24.412  52.530  1.00  0.00    -0.273 OA
HETATM   31  C   UNL     1       6.766  27.861  54.822  1.00  0.00     0.143 C 
BRANCH  28  32
HETATM   32  C   UNL     1       7.421  22.956  54.121  1.00  0.00     0.103 C 
BRANCH  32  33
HETATM   33  C   UNL     1       7.849  22.060  52.956  1.00  0.00     0.005 C 
HETATM   34  C   UNL     1       7.982  20.609  53.384  1.00  0.00     0.005 C 
ENDBRANCH  32  33
ENDBRANCH  28  32
ENDBRANCH   1  24
TORSDOF 8
ENDMDL
MODEL 4
REMARK VINA RESULT:      -8.6      4.586     10.693
REMARK  8 active torsions:
REMARK  status: ('A' for Active; 'I' for Inactive)
REMARK    1  A    between atoms: C_2  and  C_3 
REMARK    2  A    between atoms: C_3  and  C_4 
REMARK       I    between atoms: C_4  and  N_5 
REMARK    3  A    between atoms: N_8  and  C_9 
REMARK    4  A    between atoms: C_12  and  N_13 
REMARK    5  A    between atoms: N_13  and  C_14 
REMARK    6  A    between atoms: C_14  and  N_15 
REMARK       I    between atoms: N_15  and  C_16 
REMARK    7  A    between atoms: C_16  and  C_17 
REMARK    8  A    between atoms: C_18  and  O_19 
ROOT
HETATM    1  C   UNL     1       6.162  29.504  56.946  1.00  0.00     0.030 A 
HETATM    2  C   UNL     1       6.919  29.293  55.786  1.00  0.00     0.031 A 
HETATM    3  C   UNL     1       6.432  28.548  54.705  1.00  0.00     0.032 A 
HETATM    4  C   UNL     1       5.161  27.983  54.751  1.00  0.00     0.034 A 
HETATM    5  C   UNL     1       4.354  28.242  55.854  1.00  0.00     0.032 A 
HETATM    6  C   UNL     1       4.861  28.971  56.942  1.00  0.00     0.031 A 
ENDROOT
BRANCH   4   7
HETATM    7  N   UNL     1       4.653  27.204  53.688  1.00  0.00    -0.333 N 
HETATM    8  H   UNL     1       3.665  27.309  53.497  1.00  0.00     0.168 HD
BRANCH   7   9
HETATM    9  C   UNL     1       5.259  26.071  53.137  1.00  0.00     0.179 C 
HETATM   10  S   UNL     1       4.453  24.649  52.768  1.00  0.00    -0.040 SA
BRANCH   9  11
HETATM   11  N   UNL     1       6.625  26.316  52.914  1.00  0.00    -0.299 N 
HETATM   12  C   UNL     1       7.750  25.492  52.842  1.00  0.00     0.260 C 
HETATM   13  O   UNL     1       8.730  25.846  52.193  1.00  0.00    -0.267 OA
HETATM   14  H   UNL     1       6.830  27.217  52.508  1.00  0.00     0.171 HD
BRANCH  12  15
HETATM   15  C   UNL     1       7.783  24.249  53.643  1.00  0.00     0.067 A 
HETATM   16  C   UNL     1       7.665  24.286  55.040  1.00  0.00     0.084 A 
HETATM   17  C   UNL     1       7.730  23.087  55.760  1.00  0.00     0.039 A 
HETATM   18  C   UNL     1       7.868  21.868  55.089  1.00  0.00     0.026 A 
HETATM   19  C   UNL     1       7.943  21.843  53.698  1.00  0.00     0.035 A 
HETATM   20 CL   UNL     1       8.115  20.340  52.878  1.00  0.00    -0.084 Cl
HETATM   21  C   UNL     1       7.893  23.025  52.967  1.00  0.00     0.043 A 
BRANCH  16  22
HETATM   22  O   UNL     1       7.591  25.507  55.654  1.00  0.00    -0.355 OA
HETATM   23  C   UNL     1       6.905  25.497  56.903  1.00  0.00     0.210 C 
ENDBRANCH  16  22
ENDBRANCH  12  15
ENDBRANCH   9  11
ENDBRANCH   7   9
ENDBRANCH   4   7
BRANCH   1  24
HETATM   24  N   UNL     1       6.683  30.126  58.086  1.00  0.00    -0.378 N 
HETATM   25  C   UNL     1       6.090  31.417  58.495  1.00  0.00     0.143 C 
HETATM   26  C   UNL     1       6.408  31.714  59.976  1.00  0.00     0.145 C 
HETATM   27  N   UNL     1       7.833  31.579  60.311  1.00  0.00    -0.349 N 
HETATM   28  C   UNL     1       8.414  32.142  61.445  1.00  0.00     0.219 C 
HETATM   29  C   UNL     1       8.482  30.377  59.780  1.00  0.00     0.145 C 
HETATM   30  O   UNL     1       9.539  31.818  61.828  1.00  0.00    -0.273 OA
HETATM   31  C   UNL     1       8.144  30.082  58.313  1.00  0.00     0.143 C 
BRANCH  28  32
HETATM   32  C   UNL     1       7.599  33.186  62.192  1.00  0.00     0.103 C 
BRANCH  32  33
HETATM   33  C   UNL     1       7.091  32.661  63.537  1.00  0.00     0.005 C 
HETATM   34  C   UNL     1       7.479  33.582  64.681  1.00  0.00     0.005 C 
ENDBRANCH  32  33
ENDBRANCH  28  32
ENDBRANCH   1  24
TORSDOF 8
ENDMDL
MODEL 5
REMARK VINA RESULT:      -8.5      3.976     10.934
REMARK  8 active torsions:
REMARK  status: ('A' for Active; 'I' for Inactive)
REMARK    1  A    between atoms: C_2  and  C_3 
REMARK    2  A    between atoms: C_3  and  C_4 
REMARK       I    between atoms: C_4  and  N_5 
REMARK    3  A    between atoms: N_8  and  C_9 
REMARK    4  A    between atoms: C_12  and  N_13 
REMARK    5  A    between atoms: N_13  and  C_14 
REMARK    6  A    between atoms: C_14  and  N_15 
REMARK       I    between atoms: N_15  and  C_16 
REMARK    7  A    between atoms: C_16  and  C_17 
REMARK    8  A    between atoms: C_18  and  O_19 
ROOT
HETATM    1  C   UNL     1       7.519  30.679  59.040  1.00  0.00     0.030 A 
HETATM    2  C   UNL     1       8.639  29.874  58.786  1.00  0.00     0.031 A 
HETATM    3  C   UNL     1       8.735  29.073  57.642  1.00  0.00     0.032 A 
HETATM    4  C   UNL     1       7.704  29.049  56.706  1.00  0.00     0.034 A 
HETATM    5  C   UNL     1       6.617  29.898  56.888  1.00  0.00     0.032 A 
HETATM    6  C   UNL     1       6.520  30.680  58.051  1.00  0.00     0.031 A 
ENDROOT
BRANCH   4   7
HETATM    7  N   UNL     1       7.760  28.231  55.557  1.00  0.00    -0.333 N 
HETATM    8  H   UNL     1       8.664  28.167  55.105  1.00  0.00     0.168 HD
BRANCH   7   9
HETATM    9  C   UNL     1       6.668  27.816  54.789  1.00  0.00     0.179 C 
HETATM   10  S   UNL     1       6.410  28.255  53.192  1.00  0.00    -0.040 SA
BRANCH   9  11
HETATM   11  N   UNL     1       5.847  26.959  55.543  1.00  0.00    -0.299 N 
HETATM   12  C   UNL     1       5.938  25.614  55.906  1.00  0.00     0.260 C 
HETATM   13  O   UNL     1       5.376  25.212  56.920  1.00  0.00    -0.267 OA
HETATM   14  H   UNL     1       5.172  27.431  56.127  1.00  0.00     0.171 HD
BRANCH  12  15
HETATM   15  C   UNL     1       6.623  24.670  54.998  1.00  0.00     0.067 A 
HETATM   16  C   UNL     1       6.168  24.467  53.687  1.00  0.00     0.084 A 
HETATM   17  C   UNL     1       6.831  23.542  52.872  1.00  0.00     0.039 A 
HETATM   18  C   UNL     1       7.957  22.863  53.347  1.00  0.00     0.026 A 
HETATM   19  C   UNL     1       8.424  23.104  54.638  1.00  0.00     0.035 A 
HETATM   20 CL   UNL     1       9.808  22.264  55.217  1.00  0.00    -0.084 Cl
HETATM   21  C   UNL     1       7.770  24.010  55.466  1.00  0.00     0.043 A 
BRANCH  16  22
HETATM   22  O   UNL     1       5.028  25.111  53.289  1.00  0.00    -0.355 OA
HETATM   23  C   UNL     1       4.755  25.014  51.893  1.00  0.00     0.210 C 
ENDBRANCH  16  22
ENDBRANCH  12  15
ENDBRANCH   9  11
ENDBRANCH   7   9
ENDBRANCH   4   7
BRANCH   1  24
HETATM   24  N   UNL     1       7.347  31.377  60.240  1.00  0.00    -0.378 N 
HETATM   25  C   UNL     1       6.286  32.404  60.291  1.00  0.00     0.143 C 
HETATM   26  C   UNL     1       5.901  32.715  61.754  1.00  0.00     0.145 C 
HETATM   27  N   UNL     1       7.055  33.005  62.617  1.00  0.00    -0.349 N 
HETATM   28  C   UNL     1       6.955  33.665  63.840  1.00  0.00     0.219 C 
HETATM   29  C   UNL     1       8.186  32.085  62.468  1.00  0.00     0.145 C 
HETATM   30  O   UNL     1       7.886  33.683  64.647  1.00  0.00    -0.273 OA
HETATM   31  C   UNL     1       8.547  31.770  61.011  1.00  0.00     0.143 C 
BRANCH  28  32
HETATM   32  C   UNL     1       5.643  34.374  64.135  1.00  0.00     0.103 C 
BRANCH  32  33
HETATM   33  C   UNL     1       4.817  33.633  65.189  1.00  0.00     0.005 C 
HETATM   34  C   UNL     1       4.691  34.438  66.472  1.00  0.00     0.005 C 
ENDBRANCH  32  33
ENDBRANCH  28  32
ENDBRANCH   1  24
TORSDOF 8
ENDMDL
MODEL 6
REMARK VINA RESULT:      -8.4      8.075     10.786
REMARK  8 active torsions:
REMARK  status: ('A' for Active; 'I' for Inactive)
REMARK    1  A    between atoms: C_2  and  C_3 
REMARK    2  A    between atoms: C_3  and  C_4 
REMARK       I    between atoms: C_4  and  N_5 
REMARK    3  A    between atoms: N_8  and  C_9 
REMARK    4  A    between atoms: C_12  and  N_13 
REMARK    5  A    between atoms: N_13  and  C_14 
REMARK    6  A    between atoms: C_14  and  N_15 
REMARK       I    between atoms: N_15  and  C_16 
REMARK    7  A    between atoms: C_16  and  C_17 
REMARK    8  A    between atoms: C_18  and  O_19 
ROOT
HETATM    1  C   UNL     1       5.400  26.784  53.369  1.00  0.00     0.030 A 
HETATM    2  C   UNL     1       5.282  26.943  51.981  1.00  0.00     0.031 A 
HETATM    3  C   UNL     1       4.397  27.867  51.411  1.00  0.00     0.032 A 
HETATM    4  C   UNL     1       3.593  28.667  52.218  1.00  0.00     0.034 A 
HETATM    5  C   UNL     1       3.745  28.590  53.598  1.00  0.00     0.032 A 
HETATM    6  C   UNL     1       4.619  27.644  54.160  1.00  0.00     0.031 A 
ENDROOT
BRANCH   4   7
HETATM    7  N   UNL     1       2.672  29.587  51.672  1.00  0.00    -0.333 N 
HETATM    8  H   UNL     1       1.712  29.270  51.617  1.00  0.00     0.168 HD
BRANCH   7   9
HETATM    9  C   UNL     1       2.989  30.699  50.886  1.00  0.00     0.179 C 
HETATM   10  S   UNL     1       4.214  31.789  51.233  1.00  0.00    -0.040 SA
BRANCH   9  11
HETATM   11  N   UNL     1       2.153  30.744  49.756  1.00  0.00    -0.299 N 
HETATM   12  C   UNL     1       1.838  29.821  48.757  1.00  0.00     0.260 C 
HETATM   13  O   UNL     1       0.767  29.903  48.162  1.00  0.00    -0.267 OA
HETATM   14  H   UNL     1       1.473  31.490  49.765  1.00  0.00     0.171 HD
BRANCH  12  15
HETATM   15  C   UNL     1       2.850  28.821  48.355  1.00  0.00     0.067 A 
HETATM   16  C   UNL     1       4.121  29.217  47.914  1.00  0.00     0.084 A 
HETATM   17  C   UNL     1       5.039  28.236  47.517  1.00  0.00     0.039 A 
HETATM   18  C   UNL     1       4.704  26.881  47.602  1.00  0.00     0.026 A 
HETATM   19  C   UNL     1       3.452  26.501  48.082  1.00  0.00     0.035 A 
HETATM   20 CL   UNL     1       3.046  24.833  48.182  1.00  0.00    -0.084 Cl
HETATM   21  C   UNL     1       2.524  27.461  48.468  1.00  0.00     0.043 A 
BRANCH  16  22
HETATM   22  O   UNL     1       4.380  30.555  47.793  1.00  0.00    -0.355 OA
HETATM   23  C   UNL     1       4.605  30.992  46.455  1.00  0.00     0.210 C 
ENDBRANCH  16  22
ENDBRANCH  12  15
ENDBRANCH   9  11
ENDBRANCH   7   9
ENDBRANCH   4   7
BRANCH   1  24
HETATM   24  N   UNL     1       6.175  25.774  53.951  1.00  0.00    -0.378 N 
HETATM   25  C   UNL     1       6.662  24.691  53.072  1.00  0.00     0.143 C 
HETATM   26  C   UNL     1       7.861  23.964  53.720  1.00  0.00     0.145 C 
HETATM   27  N   UNL     1       7.613  23.543  55.106  1.00  0.00    -0.349 N 
HETATM   28  C   UNL     1       8.365  22.569  55.760  1.00  0.00     0.219 C 
HETATM   29  C   UNL     1       6.983  24.555  55.958  1.00  0.00     0.145 C 
HETATM   30  O   UNL     1       8.298  22.407  56.980  1.00  0.00    -0.273 OA
HETATM   31  C   UNL     1       5.806  25.283  55.296  1.00  0.00     0.143 C 
BRANCH  28  32
HETATM   32  C   UNL     1       9.273  21.704  54.900  1.00  0.00     0.103 C 
BRANCH  32  33
HETATM   33  C   UNL     1       8.568  20.431  54.426  1.00  0.00     0.005 C 
HETATM   34  C   UNL     1       8.342  20.441  52.923  1.00  0.00     0.005 C 
ENDBRANCH  32  33
ENDBRANCH  28  32
ENDBRANCH   1  24
TORSDOF 8
ENDMDL
MODEL 7
REMARK VINA RESULT:      -8.3      2.514      3.400
REMARK  8 active torsions:
REMARK  status: ('A' for Active; 'I' for Inactive)
REMARK    1  A    between atoms: C_2  and  C_3 
REMARK    2  A    between atoms: C_3  and  C_4 
REMARK       I    between atoms: C_4  and  N_5 
REMARK    3  A    between atoms: N_8  and  C_9 
REMARK    4  A    between atoms: C_12  and  N_13 
REMARK    5  A    between atoms: N_13  and  C_14 
REMARK    6  A    between atoms: C_14  and  N_15 
REMARK       I    between atoms: N_15  and  C_16 
REMARK    7  A    between atoms: C_16  and  C_17 
REMARK    8  A    between atoms: C_18  and  O_19 
ROOT
HETATM    1  C   UNL     1       7.263  30.261  58.042  1.00  0.00     0.030 A 
HETATM    2  C   UNL     1       6.313  31.285  58.158  1.00  0.00     0.031 A 
HETATM    3  C   UNL     1       6.312  32.180  59.235  1.00  0.00     0.032 A 
HETATM    4  C   UNL     1       7.269  32.077  60.241  1.00  0.00     0.034 A 
HETATM    5  C   UNL     1       8.274  31.123  60.113  1.00  0.00     0.032 A 
HETATM    6  C   UNL     1       8.252  30.217  59.040  1.00  0.00     0.031 A 
ENDROOT
BRANCH   4   7
HETATM    7  N   UNL     1       7.277  32.947  61.353  1.00  0.00    -0.333 N 
HETATM    8  H   UNL     1       7.859  33.771  61.265  1.00  0.00     0.168 HD
BRANCH   7   9
HETATM    9  C   UNL     1       6.881  32.622  62.654  1.00  0.00     0.179 C 
HETATM   10  S   UNL     1       7.812  32.887  64.023  1.00  0.00    -0.040 SA
BRANCH   9  11
HETATM   11  N   UNL     1       5.587  32.075  62.641  1.00  0.00    -0.299 N 
HETATM   12  C   UNL     1       4.317  32.615  62.426  1.00  0.00     0.260 C 
HETATM   13  O   UNL     1       3.410  31.902  62.007  1.00  0.00    -0.267 OA
HETATM   14  H   UNL     1       5.556  31.070  62.548  1.00  0.00     0.171 HD
BRANCH  12  15
HETATM   15  C   UNL     1       4.058  34.018  62.812  1.00  0.00     0.067 A 
HETATM   16  C   UNL     1       4.079  34.414  64.157  1.00  0.00     0.084 A 
HETATM   17  C   UNL     1       3.801  35.748  64.477  1.00  0.00     0.039 A 
HETATM   18  C   UNL     1       3.547  36.679  63.465  1.00  0.00     0.026 A 
HETATM   19  C   UNL     1       3.570  36.281  62.130  1.00  0.00     0.035 A 
HETATM   20 CL   UNL     1       3.255  37.430  60.889  1.00  0.00    -0.084 Cl
HETATM   21  C   UNL     1       3.832  34.957  61.794  1.00  0.00     0.043 A 
BRANCH  16  22
HETATM   22  O   UNL     1       4.275  33.455  65.113  1.00  0.00    -0.355 OA
HETATM   23  C   UNL     1       4.813  33.947  66.338  1.00  0.00     0.210 C 
ENDBRANCH  16  22
ENDBRANCH  12  15
ENDBRANCH   9  11
ENDBRANCH   7   9
ENDBRANCH   4   7
BRANCH   1  24
HETATM   24  N   UNL     1       7.196  29.277  57.049  1.00  0.00    -0.378 N 
HETATM   25  C   UNL     1       6.586  27.980  57.408  1.00  0.00     0.143 C 
HETATM   26  C   UNL     1       6.146  27.218  56.139  1.00  0.00     0.145 C 
HETATM   27  N   UNL     1       7.198  27.121  55.117  1.00  0.00    -0.349 N 
HETATM   28  C   UNL     1       7.180  26.190  54.080  1.00  0.00     0.219 C 
HETATM   29  C   UNL     1       7.925  28.366  54.856  1.00  0.00     0.145 C 
HETATM   30  O   UNL     1       7.934  26.283  53.111  1.00  0.00    -0.273 OA
HETATM   31  C   UNL     1       8.340  29.124  56.124  1.00  0.00     0.143 C 
BRANCH  28  32
HETATM   32  C   UNL     1       6.190  25.042  54.200  1.00  0.00     0.103 C 
BRANCH  32  33
HETATM   33  C   UNL     1       6.055  24.264  52.890  1.00  0.00     0.005 C 
HETATM   34  C   UNL     1       4.846  24.717  52.090  1.00  0.00     0.005 C 
ENDBRANCH  32  33
ENDBRANCH  28  32
ENDBRANCH   1  24
TORSDOF 8
ENDMDL
MODEL 8
REMARK VINA RESULT:      -8.3      1.930      2.657
REMARK  8 active torsions:
REMARK  status: ('A' for Active; 'I' for Inactive)
REMARK    1  A    between atoms: C_2  and  C_3 
REMARK    2  A    between atoms: C_3  and  C_4 
REMARK       I    between atoms: C_4  and  N_5 
REMARK    3  A    between atoms: N_8  and  C_9 
REMARK    4  A    between atoms: C_12  and  N_13 
REMARK    5  A    between atoms: N_13  and  C_14 
REMARK    6  A    between atoms: C_14  and  N_15 
REMARK       I    between atoms: N_15  and  C_16 
REMARK    7  A    between atoms: C_16  and  C_17 
REMARK    8  A    between atoms: C_18  and  O_19 
ROOT
HETATM    1  C   UNL     1       7.172  28.799  57.143  1.00  0.00     0.030 A 
HETATM    2  C   UNL     1       6.128  29.732  57.070  1.00  0.00     0.031 A 
HETATM    3  C   UNL     1       6.033  30.811  57.958  1.00  0.00     0.032 A 
HETATM    4  C   UNL     1       6.985  30.992  58.957  1.00  0.00     0.034 A 
HETATM    5  C   UNL     1       8.076  30.130  59.005  1.00  0.00     0.032 A 
HETATM    6  C   UNL     1       8.150  29.038  58.124  1.00  0.00     0.031 A 
ENDROOT
BRANCH   4   7
HETATM    7  N   UNL     1       6.899  32.054  59.884  1.00  0.00    -0.333 N 
HETATM    8  H   UNL     1       6.972  32.986  59.494  1.00  0.00     0.168 HD
BRANCH   7   9
HETATM    9  C   UNL     1       7.095  31.958  61.264  1.00  0.00     0.179 C 
HETATM   10  S   UNL     1       8.547  32.269  62.041  1.00  0.00    -0.040 SA
BRANCH   9  11
HETATM   11  N   UNL     1       5.893  31.595  61.897  1.00  0.00    -0.299 N 
HETATM   12  C   UNL     1       4.652  32.219  62.031  1.00  0.00     0.260 C 
HETATM   13  O   UNL     1       3.641  31.544  62.207  1.00  0.00    -0.267 OA
HETATM   14  H   UNL     1       5.812  30.612  62.113  1.00  0.00     0.171 HD
BRANCH  12  15
HETATM   15  C   UNL     1       4.589  33.695  62.068  1.00  0.00     0.067 A 
HETATM   16  C   UNL     1       4.443  34.443  60.891  1.00  0.00     0.084 A 
HETATM   17  C   UNL     1       4.416  35.840  60.971  1.00  0.00     0.039 A 
HETATM   18  C   UNL     1       4.491  36.477  62.213  1.00  0.00     0.026 A 
HETATM   19  C   UNL     1       4.595  35.721  63.379  1.00  0.00     0.035 A 
HETATM   20 CL   UNL     1       4.689  36.511  64.905  1.00  0.00    -0.084 Cl
HETATM   21  C   UNL     1       4.635  34.332  63.318  1.00  0.00     0.043 A 
BRANCH  16  22
HETATM   22  O   UNL     1       4.432  33.776  59.695  1.00  0.00    -0.355 OA
HETATM   23  C   UNL     1       4.278  34.616  58.555  1.00  0.00     0.210 C 
ENDBRANCH  16  22
ENDBRANCH  12  15
ENDBRANCH   9  11
ENDBRANCH   7   9
ENDBRANCH   4   7
BRANCH   1  24
HETATM   24  N   UNL     1       7.207  27.642  56.356  1.00  0.00    -0.378 N 
HETATM   25  C   UNL     1       7.958  26.481  56.875  1.00  0.00     0.143 C 
HETATM   26  C   UNL     1       7.507  25.184  56.170  1.00  0.00     0.145 C 
HETATM   27  N   UNL     1       7.500  25.283  54.703  1.00  0.00    -0.349 N 
HETATM   28  C   UNL     1       7.501  24.176  53.857  1.00  0.00     0.219 C 
HETATM   29  C   UNL     1       6.897  26.507  54.168  1.00  0.00     0.145 C 
HETATM   30  O   UNL     1       7.253  24.278  52.654  1.00  0.00    -0.273 OA
HETATM   31  C   UNL     1       7.339  27.787  54.890  1.00  0.00     0.143 C 
BRANCH  28  32
HETATM   32  C   UNL     1       7.829  22.829  54.482  1.00  0.00     0.103 C 
BRANCH  32  33
HETATM   33  C   UNL     1       8.664  21.953  53.547  1.00  0.00     0.005 C 
HETATM   34  C   UNL     1       7.888  20.733  53.080  1.00  0.00     0.005 C 
ENDBRANCH  32  33
ENDBRANCH  28  32
ENDBRANCH   1  24
TORSDOF 8
ENDMDL
MODEL 9
REMARK VINA RESULT:      -8.1      7.166      9.834
REMARK  8 active torsions:
REMARK  status: ('A' for Active; 'I' for Inactive)
REMARK    1  A    between atoms: C_2  and  C_3 
REMARK    2  A    between atoms: C_3  and  C_4 
REMARK       I    between atoms: C_4  and  N_5 
REMARK    3  A    between atoms: N_8  and  C_9 
REMARK    4  A    between atoms: C_12  and  N_13 
REMARK    5  A    between atoms: N_13  and  C_14 
REMARK    6  A    between atoms: C_14  and  N_15 
REMARK       I    between atoms: N_15  and  C_16 
REMARK    7  A    between atoms: C_16  and  C_17 
REMARK    8  A    between atoms: C_18  and  O_19 
ROOT
HETATM    1  C   UNL     1       5.215  27.353  54.521  1.00  0.00     0.030 A 
HETATM    2  C   UNL     1       5.459  28.640  55.023  1.00  0.00     0.031 A 
HETATM    3  C   UNL     1       4.751  29.760  54.571  1.00  0.00     0.032 A 
HETATM    4  C   UNL     1       3.769  29.630  53.594  1.00  0.00     0.034 A 
HETATM    5  C   UNL     1       3.447  28.356  53.135  1.00  0.00     0.032 A 
HETATM    6  C   UNL     1       4.180  27.242  53.578  1.00  0.00     0.031 A 
ENDROOT
BRANCH   4   7
HETATM    7  N   UNL     1       3.058  30.744  53.098  1.00  0.00    -0.333 N 
HETATM    8  H   UNL     1       2.185  30.955  53.567  1.00  0.00     0.168 HD
BRANCH   7   9
HETATM    9  C   UNL     1       3.230  31.339  51.845  1.00  0.00     0.179 C 
HETATM   10  S   UNL     1       1.981  31.916  50.888  1.00  0.00    -0.040 SA
BRANCH   9  11
HETATM   11  N   UNL     1       4.598  31.407  51.528  1.00  0.00    -0.299 N 
HETATM   12  C   UNL     1       5.354  30.973  50.438  1.00  0.00     0.260 C 
HETATM   13  O   UNL     1       6.411  31.534  50.161  1.00  0.00    -0.267 OA
HETATM   14  H   UNL     1       5.121  32.083  52.065  1.00  0.00     0.171 HD
BRANCH  12  15
HETATM   15  C   UNL     1       4.923  29.768  49.697  1.00  0.00     0.067 A 
HETATM   16  C   UNL     1       4.322  29.873  48.434  1.00  0.00     0.084 A 
HETATM   17  C   UNL     1       3.904  28.707  47.781  1.00  0.00     0.039 A 
HETATM   18  C   UNL     1       4.122  27.455  48.364  1.00  0.00     0.026 A 
HETATM   19  C   UNL     1       4.758  27.363  49.600  1.00  0.00     0.035 A 
HETATM   20 CL   UNL     1       5.023  25.820  50.313  1.00  0.00    -0.084 Cl
HETATM   21  C   UNL     1       5.169  28.511  50.270  1.00  0.00     0.043 A 
BRANCH  16  22
HETATM   22  O   UNL     1       4.077  31.123  47.933  1.00  0.00    -0.355 OA
HETATM   23  C   UNL     1       4.701  31.386  46.680  1.00  0.00     0.210 C 
ENDBRANCH  16  22
ENDBRANCH  12  15
ENDBRANCH   9  11
ENDBRANCH   7   9
ENDBRANCH   4   7
BRANCH   1  24
HETATM   24  N   UNL     1       6.005  26.249  54.860  1.00  0.00    -0.378 N 
HETATM   25  C   UNL     1       6.257  25.238  53.812  1.00  0.00     0.143 C 
HETATM   26  C   UNL     1       7.494  24.385  54.169  1.00  0.00     0.145 C 
HETATM   27  N   UNL     1       7.458  23.835  55.531  1.00  0.00    -0.349 N 
HETATM   28  C   UNL     1       8.239  22.760  55.949  1.00  0.00     0.219 C 
HETATM   29  C   UNL     1       7.056  24.787  56.571  1.00  0.00     0.145 C 
HETATM   30  O   UNL     1       8.370  22.476  57.141  1.00  0.00    -0.273 OA
HETATM   31  C   UNL     1       5.837  25.641  56.198  1.00  0.00     0.143 C 
BRANCH  28  32
HETATM   32  C   UNL     1       8.923  21.942  54.865  1.00  0.00     0.103 C 
BRANCH  32  33
HETATM   33  C   UNL     1       8.113  20.699  54.491  1.00  0.00     0.005 C 
HETATM   34  C   UNL     1       7.955  20.563  52.986  1.00  0.00     0.005 C 
ENDBRANCH  32  33
ENDBRANCH  28  32
ENDBRANCH   1  24
TORSDOF 8
ENDMDL
MODEL 10
REMARK VINA RESULT:      -7.9      8.688     11.961
REMARK  8 active torsions:
REMARK  status: ('A' for Active; 'I' for Inactive)
REMARK    1  A    between atoms: C_2  and  C_3 
REMARK    2  A    between atoms: C_3  and  C_4 
REMARK       I    between atoms: C_4  and  N_5 
REMARK    3  A    between atoms: N_8  and  C_9 
REMARK    4  A    between atoms: C_12  and  N_13 
REMARK    5  A    between atoms: N_13  and  C_14 
REMARK    6  A    between atoms: C_14  and  N_15 
REMARK       I    between atoms: N_15  and  C_16 
REMARK    7  A    between atoms: C_16  and  C_17 
REMARK    8  A    between atoms: C_18  and  O_19 
ROOT
HETATM    1  C   UNL     1       4.723  28.317  51.308  1.00  0.00     0.030 A 
HETATM    2  C   UNL     1       3.332  28.470  51.219  1.00  0.00     0.031 A 
HETATM    3  C   UNL     1       2.744  29.627  50.694  1.00  0.00     0.032 A 
HETATM    4  C   UNL     1       3.535  30.679  50.238  1.00  0.00     0.034 A 
HETATM    5  C   UNL     1       4.917  30.524  50.238  1.00  0.00     0.032 A 
HETATM    6  C   UNL     1       5.497  29.368  50.788  1.00  0.00     0.031 A 
ENDROOT
BRANCH   4   7
HETATM    7  N   UNL     1       2.971  31.869  49.730  1.00  0.00    -0.333 N 
HETATM    8  H   UNL     1       3.189  32.714  50.242  1.00  0.00     0.168 HD
BRANCH   7   9
HETATM    9  C   UNL     1       1.885  31.955  48.853  1.00  0.00     0.179 C 
HETATM   10  S   UNL     1       0.293  32.164  49.333  1.00  0.00    -0.040 SA
BRANCH   9  11
HETATM   11  N   UNL     1       2.332  31.873  47.523  1.00  0.00    -0.299 N 
HETATM   12  C   UNL     1       2.220  30.897  46.531  1.00  0.00     0.260 C 
HETATM   13  O   UNL     1       2.268  31.217  45.347  1.00  0.00    -0.267 OA
HETATM   14  H   UNL     1       2.592  32.757  47.112  1.00  0.00     0.171 HD
BRANCH  12  15
HETATM   15  C   UNL     1       2.155  29.474  46.926  1.00  0.00     0.067 A 
HETATM   16  C   UNL     1       0.924  28.813  47.049  1.00  0.00     0.084 A 
HETATM   17  C   UNL     1       0.908  27.473  47.452  1.00  0.00     0.039 A 
HETATM   18  C   UNL     1       2.107  26.793  47.688  1.00  0.00     0.026 A 
HETATM   19  C   UNL     1       3.325  27.449  47.522  1.00  0.00     0.035 A 
HETATM   20 CL   UNL     1       4.797  26.608  47.815  1.00  0.00    -0.084 Cl
HETATM   21  C   UNL     1       3.359  28.784  47.134  1.00  0.00     0.043 A 
BRANCH  16  22
HETATM   22  O   UNL     1      -0.223  29.537  46.865  1.00  0.00    -0.355 OA
HETATM   23  C   UNL     1      -1.103  29.004  45.880  1.00  0.00     0.210 C 
ENDBRANCH  16  22
ENDBRANCH  12  15
ENDBRANCH   9  11
ENDBRANCH   7   9
ENDBRANCH   4   7
BRANCH   1  24
HETATM   24  N   UNL     1       5.323  27.229  51.953  1.00  0.00    -0.378 N 
HETATM   25  C   UNL     1       5.726  26.075  51.123  1.00  0.00     0.143 C 
HETATM   26  C   UNL     1       6.777  25.217  51.861  1.00  0.00     0.145 C 
HETATM   27  N   UNL     1       6.386  24.859  53.232  1.00  0.00    -0.349 N 
HETATM   28  C   UNL     1       6.963  23.812  53.948  1.00  0.00     0.219 C 
HETATM   29  C   UNL     1       5.835  25.960  54.026  1.00  0.00     0.145 C 
HETATM   30  O   UNL     1       6.795  23.685  55.162  1.00  0.00    -0.273 OA
HETATM   31  C   UNL     1       4.806  26.817  53.276  1.00  0.00     0.143 C 
BRANCH  28  32
HETATM   32  C   UNL     1       7.808  22.822  53.162  1.00  0.00     0.103 C 
BRANCH  32  33
HETATM   33  C   UNL     1       7.883  21.459  53.853  1.00  0.00     0.005 C 
HETATM   34  C   UNL     1       8.501  20.405  52.950  1.00  0.00     0.005 C 
ENDBRANCH  32  33
ENDBRANCH  28  32
ENDBRANCH   1  24
TORSDOF 8
ENDMDL
