MODEL 1
REMARK VINA RESULT:     -11.6      0.000      0.000
REMARK  6 active torsions:
REMARK  status: ('A' for Active; 'I' for Inactive)
REMARK    1  A    between atoms: C_2  and  N_3 
REMARK    2  A    between atoms: C_2  and  C_32 
REMARK       I    between atoms: N_3  and  C_4 
REMARK    3  A    between atoms: C_4  and  C_5 
REMARK    4  A    between atoms: C_6  and  N_7 
REMARK       I    between atoms: N_7  and  C_8 
REMARK    5  A    between atoms: C_8  and  C_9 
REMARK    6  A    between atoms: C_9  and  N_10 
ROOT
HETATM    1  N   UNL     1       7.856  28.692  56.440  1.00  0.00    -0.325 N 
HETATM    2  C   UNL     1       9.091  29.245  56.135  1.00  0.00     0.240 C 
HETATM    3  O   UNL     1       9.483  29.583  55.023  1.00  0.00    -0.271 OA
HETATM    4  H   UNL     1       7.758  28.289  57.368  1.00  0.00     0.169 HD
ENDROOT
BRANCH   1   5
HETATM    5  C   UNL     1       6.756  28.467  55.579  1.00  0.00     0.050 A 
HETATM    6  C   UNL     1       6.172  27.181  55.525  1.00  0.00     0.058 A 
HETATM    7  C   UNL     1       5.016  26.958  54.761  1.00  0.00     0.019 A 
HETATM    8  C   UNL     1       4.452  27.996  54.022  1.00  0.00     0.001 A 
HETATM    9  C   UNL     1       5.038  29.258  54.048  1.00  0.00     0.002 A 
HETATM   10  C   UNL     1       6.181  29.493  54.822  1.00  0.00     0.030 A 
BRANCH   6  11
HETATM   11  C   UNL     1       6.701  26.010  56.279  1.00  0.00     0.254 C 
HETATM   12  N   UNL     1       7.293  25.011  55.529  1.00  0.00    -0.349 N 
HETATM   13  H   UNL     1       7.121  24.989  54.525  1.00  0.00     0.163 HD
HETATM   14  O   UNL     1       6.598  25.978  57.500  1.00  0.00    -0.268 OA
BRANCH  12  15
HETATM   15  C   UNL     1       7.744  23.770  56.144  1.00  0.00     0.114 C 
HETATM   16  C   UNL     1       9.073  23.985  56.870  1.00  0.00     0.037 C 
BRANCH  15  17
HETATM   17  C   UNL     1       7.840  22.653  55.120  1.00  0.00    -0.036 A 
HETATM   18  C   UNL     1       7.999  21.326  55.548  1.00  0.00     0.009 A 
HETATM   19  C   UNL     1       8.118  20.285  54.623  1.00  0.00     0.001 A 
HETATM   20  C   UNL     1       8.075  20.555  53.259  1.00  0.00     0.000 A 
HETATM   21  C   UNL     1       7.908  21.865  52.815  1.00  0.00     0.001 A 
HETATM   22  C   UNL     1       7.792  22.906  53.739  1.00  0.00     0.009 A 
ENDBRANCH  15  17
ENDBRANCH  12  15
ENDBRANCH   6  11
ENDBRANCH   1   5
BRANCH   2  23
HETATM   23  C   UNL     1      10.012  29.294  57.355  1.00  0.00     0.240 C 
BRANCH  23  24
HETATM   24  N   UNL     1       9.479  30.178  58.367  1.00  0.00    -0.259 N 
HETATM   25  C   UNL     1       9.772  31.505  58.425  1.00  0.00     0.326 C 
HETATM   26  O   UNL     1      10.606  32.110  57.774  1.00  0.00    -0.247 OA
HETATM   27  N   UNL     1       8.902  32.105  59.302  1.00  0.00    -0.324 N 
HETATM   28  C   UNL     1       7.954  31.175  59.879  1.00  0.00     0.120 C 
HETATM   29  H   UNL     1       8.979  33.090  59.525  1.00  0.00     0.165 HD
HETATM   30  C   UNL     1       8.173  30.988  61.382  1.00  0.00     0.080 C 
HETATM   31  C   UNL     1       6.502  31.537  59.574  1.00  0.00     0.046 C 
HETATM   32  C   UNL     1       8.353  29.914  59.098  1.00  0.00     0.257 C 
HETATM   33  C   UNL     1       7.600  32.135  62.189  1.00  0.00    -0.049 A 
HETATM   34  C   UNL     1       6.596  32.973  61.667  1.00  0.00    -0.052 A 
HETATM   35  C   UNL     1       8.049  32.335  63.503  1.00  0.00     0.007 A 
HETATM   36  C   UNL     1       6.097  32.843  60.250  1.00  0.00     0.042 C 
HETATM   37  C   UNL     1       6.085  34.011  62.462  1.00  0.00     0.007 A 
HETATM   38  C   UNL     1       6.548  34.207  63.762  1.00  0.00     0.001 A 
HETATM   39  C   UNL     1       7.530  33.369  64.282  1.00  0.00     0.001 A 
HETATM   40  O   UNL     1       7.744  28.850  59.108  1.00  0.00    -0.270 OA
ENDBRANCH  23  24
ENDBRANCH   2  23
TORSDOF 6
ENDMDL
MODEL 2
REMARK VINA RESULT:     -11.6      0.810      1.999
REMARK  6 active torsions:
REMARK  status: ('A' for Active; 'I' for Inactive)
REMARK    1  A    between atoms: C_2  and  N_3 
REMARK    2  A    between atoms: C_2  and  C_32 
REMARK       I    between atoms: N_3  and  C_4 
REMARK    3  A    between atoms: C_4  and  C_5 
REMARK    4  A    between atoms: C_6  and  N_7 
REMARK       I    between atoms: N_7  and  C_8 
REMARK    5  A    between atoms: C_8  and  C_9 
REMARK    6  A    between atoms: C_9  and  N_10 
ROOT
HETATM    1  N   UNL     1       7.627  28.753  55.936  1.00  0.00    -0.325 N 
HETATM    2  C   UNL     1       8.899  29.183  55.587  1.00  0.00     0.240 C 
HETATM    3  O   UNL     1       9.330  29.333  54.448  1.00  0.00    -0.271 OA
HETATM    4  H   UNL     1       7.489  28.495  56.910  1.00  0.00     0.169 HD
ENDROOT
BRANCH   1   5
HETATM    5  C   UNL     1       6.530  28.471  55.089  1.00  0.00     0.050 A 
HETATM    6  C   UNL     1       5.923  27.196  55.145  1.00  0.00     0.058 A 
HETATM    7  C   UNL     1       4.769  26.926  54.393  1.00  0.00     0.019 A 
HETATM    8  C   UNL     1       4.230  27.903  53.558  1.00  0.00     0.001 A 
HETATM    9  C   UNL     1       4.840  29.151  53.476  1.00  0.00     0.002 A 
HETATM   10  C   UNL     1       5.981  29.435  54.237  1.00  0.00     0.030 A 
BRANCH   6  11
HETATM   11  C   UNL     1       6.424  26.089  56.007  1.00  0.00     0.254 C 
HETATM   12  N   UNL     1       7.258  25.168  55.402  1.00  0.00    -0.349 N 
HETATM   13  H   UNL     1       7.287  25.131  54.384  1.00  0.00     0.163 HD
HETATM   14  O   UNL     1       6.092  26.039  57.186  1.00  0.00    -0.268 OA
BRANCH  12  15
HETATM   15  C   UNL     1       7.719  23.982  56.113  1.00  0.00     0.114 C 
HETATM   16  C   UNL     1       9.038  24.268  56.831  1.00  0.00     0.037 C 
BRANCH  15  17
HETATM   17  C   UNL     1       7.838  22.792  55.177  1.00  0.00    -0.036 A 
HETATM   18  C   UNL     1       7.820  22.993  53.788  1.00  0.00     0.009 A 
HETATM   19  C   UNL     1       7.900  21.911  52.907  1.00  0.00     0.001 A 
HETATM   20  C   UNL     1       8.004  20.614  53.402  1.00  0.00     0.000 A 
HETATM   21  C   UNL     1       8.034  20.396  54.778  1.00  0.00     0.001 A 
HETATM   22  C   UNL     1       7.951  21.477  55.658  1.00  0.00     0.009 A 
ENDBRANCH  15  17
ENDBRANCH  12  15
ENDBRANCH   6  11
ENDBRANCH   1   5
BRANCH   2  23
HETATM   23  C   UNL     1       9.801  29.354  56.811  1.00  0.00     0.240 C 
BRANCH  23  24
HETATM   24  N   UNL     1       9.073  29.953  57.907  1.00  0.00    -0.259 N 
HETATM   25  C   UNL     1       8.254  29.245  58.731  1.00  0.00     0.326 C 
HETATM   26  O   UNL     1       7.891  28.089  58.602  1.00  0.00    -0.247 OA
HETATM   27  N   UNL     1       7.948  30.027  59.817  1.00  0.00    -0.324 N 
HETATM   28  C   UNL     1       8.577  31.331  59.767  1.00  0.00     0.120 C 
HETATM   29  H   UNL     1       7.311  29.703  60.534  1.00  0.00     0.165 HD
HETATM   30  C   UNL     1       7.555  32.457  59.602  1.00  0.00     0.080 C 
HETATM   31  C   UNL     1       9.501  31.593  60.954  1.00  0.00     0.046 C 
HETATM   32  C   UNL     1       9.409  31.143  58.490  1.00  0.00     0.257 C 
HETATM   33  C   UNL     1       6.864  32.796  60.907  1.00  0.00    -0.049 A 
HETATM   34  C   UNL     1       7.437  32.469  62.151  1.00  0.00    -0.052 A 
HETATM   35  C   UNL     1       5.647  33.495  60.873  1.00  0.00     0.007 A 
HETATM   36  C   UNL     1       8.720  31.683  62.261  1.00  0.00     0.042 C 
HETATM   37  C   UNL     1       6.766  32.822  63.332  1.00  0.00     0.007 A 
HETATM   38  C   UNL     1       5.552  33.504  63.285  1.00  0.00     0.001 A 
HETATM   39  C   UNL     1       4.993  33.841  62.055  1.00  0.00     0.001 A 
HETATM   40  O   UNL     1      10.258  31.925  58.074  1.00  0.00    -0.270 OA
ENDBRANCH  23  24
ENDBRANCH   2  23
TORSDOF 6
ENDMDL
MODEL 3
REMARK VINA RESULT:     -11.3      2.696      4.679
REMARK  6 active torsions:
REMARK  status: ('A' for Active; 'I' for Inactive)
REMARK    1  A    between atoms: C_2  and  N_3 
REMARK    2  A    between atoms: C_2  and  C_32 
REMARK       I    between atoms: N_3  and  C_4 
REMARK    3  A    between atoms: C_4  and  C_5 
REMARK    4  A    between atoms: C_6  and  N_7 
REMARK       I    between atoms: N_7  and  C_8 
REMARK    5  A    between atoms: C_8  and  C_9 
REMARK    6  A    between atoms: C_9  and  N_10 
ROOT
HETATM    1  N   UNL     1       6.831  30.453  58.505  1.00  0.00    -0.325 N 
HETATM    2  C   UNL     1       5.938  31.486  58.260  1.00  0.00     0.240 C 
HETATM    3  O   UNL     1       6.132  32.461  57.541  1.00  0.00    -0.271 OA
HETATM    4  H   UNL     1       6.597  29.825  59.269  1.00  0.00     0.169 HD
ENDROOT
BRANCH   1   5
HETATM    5  C   UNL     1       8.110  30.243  57.939  1.00  0.00     0.050 A 
HETATM    6  C   UNL     1       8.239  29.394  56.816  1.00  0.00     0.058 A 
HETATM    7  C   UNL     1       9.477  29.253  56.171  1.00  0.00     0.019 A 
HETATM    8  C   UNL     1      10.600  29.923  56.652  1.00  0.00     0.001 A 
HETATM    9  C   UNL     1      10.486  30.738  57.775  1.00  0.00     0.002 A 
HETATM   10  C   UNL     1       9.251  30.899  58.413  1.00  0.00     0.030 A 
BRANCH   6  11
HETATM   11  C   UNL     1       7.097  28.638  56.229  1.00  0.00     0.254 C 
HETATM   12  N   UNL     1       7.183  27.259  56.278  1.00  0.00    -0.349 N 
HETATM   13  H   UNL     1       8.089  26.833  56.465  1.00  0.00     0.163 HD
HETATM   14  O   UNL     1       6.152  29.247  55.740  1.00  0.00    -0.268 OA
BRANCH  12  15
HETATM   15  C   UNL     1       6.183  26.415  55.636  1.00  0.00     0.114 C 
HETATM   16  C   UNL     1       5.388  25.636  56.684  1.00  0.00     0.037 C 
BRANCH  15  17
HETATM   17  C   UNL     1       6.820  25.489  54.615  1.00  0.00    -0.036 A 
HETATM   18  C   UNL     1       7.372  26.021  53.439  1.00  0.00     0.009 A 
HETATM   19  C   UNL     1       7.938  25.185  52.473  1.00  0.00     0.001 A 
HETATM   20  C   UNL     1       7.965  23.808  52.670  1.00  0.00     0.000 A 
HETATM   21  C   UNL     1       7.431  23.263  53.835  1.00  0.00     0.001 A 
HETATM   22  C   UNL     1       6.863  24.097  54.800  1.00  0.00     0.009 A 
ENDBRANCH  15  17
ENDBRANCH  12  15
ENDBRANCH   6  11
ENDBRANCH   1   5
BRANCH   2  23
HETATM   23  C   UNL     1       4.665  31.353  59.097  1.00  0.00     0.240 C 
BRANCH  23  24
HETATM   24  N   UNL     1       4.619  32.366  60.128  1.00  0.00    -0.259 N 
HETATM   25  C   UNL     1       3.478  33.018  60.479  1.00  0.00     0.326 C 
HETATM   26  O   UNL     1       2.398  32.980  59.916  1.00  0.00    -0.247 OA
HETATM   27  N   UNL     1       3.706  33.691  61.655  1.00  0.00    -0.324 N 
HETATM   28  C   UNL     1       5.050  33.503  62.160  1.00  0.00     0.120 C 
HETATM   29  H   UNL     1       2.993  34.279  62.069  1.00  0.00     0.165 HD
HETATM   30  C   UNL     1       5.864  34.797  62.125  1.00  0.00     0.080 C 
HETATM   31  C   UNL     1       5.082  32.867  63.548  1.00  0.00     0.046 C 
HETATM   32  C   UNL     1       5.557  32.498  61.114  1.00  0.00     0.257 C 
HETATM   33  C   UNL     1       5.518  35.720  63.276  1.00  0.00    -0.049 A 
HETATM   34  C   UNL     1       4.914  35.236  64.451  1.00  0.00    -0.052 A 
HETATM   35  C   UNL     1       5.852  37.080  63.183  1.00  0.00     0.007 A 
HETATM   36  C   UNL     1       4.490  33.796  64.602  1.00  0.00     0.042 C 
HETATM   37  C   UNL     1       4.630  36.128  65.497  1.00  0.00     0.007 A 
HETATM   38  C   UNL     1       4.955  37.479  65.388  1.00  0.00     0.001 A 
HETATM   39  C   UNL     1       5.567  37.955  64.231  1.00  0.00     0.001 A 
HETATM   40  O   UNL     1       6.622  31.893  61.169  1.00  0.00    -0.270 OA
ENDBRANCH  23  24
ENDBRANCH   2  23
TORSDOF 6
ENDMDL
MODEL 4
REMARK VINA RESULT:     -11.3      2.196      9.513
REMARK  6 active torsions:
REMARK  status: ('A' for Active; 'I' for Inactive)
REMARK    1  A    between atoms: C_2  and  N_3 
REMARK    2  A    between atoms: C_2  and  C_32 
REMARK       I    between atoms: N_3  and  C_4 
REMARK    3  A    between atoms: C_4  and  C_5 
REMARK    4  A    between atoms: C_6  and  N_7 
REMARK       I    between atoms: N_7  and  C_8 
REMARK    5  A    between atoms: C_8  and  C_9 
REMARK    6  A    between atoms: C_9  and  N_10 
ROOT
HETATM    1  N   UNL     1       4.861  29.015  57.025  1.00  0.00    -0.325 N 
HETATM    2  C   UNL     1       6.236  28.851  57.095  1.00  0.00     0.240 C 
HETATM    3  O   UNL     1       7.078  29.480  56.462  1.00  0.00    -0.271 OA
HETATM    4  H   UNL     1       4.296  28.291  57.462  1.00  0.00     0.169 HD
ENDROOT
BRANCH   1   5
HETATM    5  C   UNL     1       4.125  29.973  56.288  1.00  0.00     0.050 A 
HETATM    6  C   UNL     1       3.646  31.130  56.943  1.00  0.00     0.058 A 
HETATM    7  C   UNL     1       3.006  32.144  56.214  1.00  0.00     0.019 A 
HETATM    8  C   UNL     1       2.809  32.005  54.842  1.00  0.00     0.001 A 
HETATM    9  C   UNL     1       3.253  30.855  54.196  1.00  0.00     0.002 A 
HETATM   10  C   UNL     1       3.908  29.847  54.912  1.00  0.00     0.030 A 
BRANCH   6  11
HETATM   11  C   UNL     1       3.810  31.369  58.404  1.00  0.00     0.254 C 
HETATM   12  N   UNL     1       4.857  32.189  58.780  1.00  0.00    -0.349 N 
HETATM   13  H   UNL     1       5.596  32.377  58.104  1.00  0.00     0.163 HD
HETATM   14  O   UNL     1       3.031  30.849  59.196  1.00  0.00    -0.268 OA
BRANCH  12  15
HETATM   15  C   UNL     1       5.185  32.404  60.183  1.00  0.00     0.114 C 
HETATM   16  C   UNL     1       4.706  33.782  60.639  1.00  0.00     0.037 C 
BRANCH  15  17
HETATM   17  C   UNL     1       6.671  32.216  60.436  1.00  0.00    -0.036 A 
HETATM   18  C   UNL     1       7.181  32.359  61.735  1.00  0.00     0.009 A 
HETATM   19  C   UNL     1       8.548  32.219  61.987  1.00  0.00     0.001 A 
HETATM   20  C   UNL     1       9.423  31.928  60.944  1.00  0.00     0.000 A 
HETATM   21  C   UNL     1       8.934  31.773  59.650  1.00  0.00     0.001 A 
HETATM   22  C   UNL     1       7.568  31.916  59.397  1.00  0.00     0.009 A 
ENDBRANCH  15  17
ENDBRANCH  12  15
ENDBRANCH   6  11
ENDBRANCH   1   5
BRANCH   2  23
HETATM   23  C   UNL     1       6.627  27.678  57.996  1.00  0.00     0.240 C 
BRANCH  23  24
HETATM   24  N   UNL     1       6.790  26.468  57.222  1.00  0.00    -0.259 N 
HETATM   25  C   UNL     1       5.745  25.695  56.820  1.00  0.00     0.326 C 
HETATM   26  O   UNL     1       4.578  25.794  57.156  1.00  0.00    -0.247 OA
HETATM   27  N   UNL     1       6.200  24.801  55.882  1.00  0.00    -0.324 N 
HETATM   28  C   UNL     1       7.613  24.949  55.601  1.00  0.00     0.120 C 
HETATM   29  H   UNL     1       5.586  24.100  55.485  1.00  0.00     0.165 HD
HETATM   30  C   UNL     1       8.422  23.738  56.066  1.00  0.00     0.080 C 
HETATM   31  C   UNL     1       7.898  25.276  54.137  1.00  0.00     0.046 C 
HETATM   32  C   UNL     1       7.900  26.180  56.475  1.00  0.00     0.257 C 
HETATM   33  C   UNL     1       8.312  22.574  55.102  1.00  0.00    -0.049 A 
HETATM   34  C   UNL     1       7.934  22.763  53.759  1.00  0.00    -0.052 A 
HETATM   35  C   UNL     1       8.641  21.285  55.549  1.00  0.00     0.007 A 
HETATM   36  C   UNL     1       7.528  24.113  53.222  1.00  0.00     0.042 C 
HETATM   37  C   UNL     1       7.865  21.655  52.901  1.00  0.00     0.007 A 
HETATM   38  C   UNL     1       8.181  20.378  53.361  1.00  0.00     0.001 A 
HETATM   39  C   UNL     1       8.570  20.193  54.685  1.00  0.00     0.001 A 
HETATM   40  O   UNL     1       8.948  26.816  56.483  1.00  0.00    -0.270 OA
ENDBRANCH  23  24
ENDBRANCH   2  23
TORSDOF 6
ENDMDL
MODEL 5
REMARK VINA RESULT:     -11.2      2.738      4.700
REMARK  6 active torsions:
REMARK  status: ('A' for Active; 'I' for Inactive)
REMARK    1  A    between atoms: C_2  and  N_3 
REMARK    2  A    between atoms: C_2  and  C_32 
REMARK       I    between atoms: N_3  and  C_4 
REMARK    3  A    between atoms: C_4  and  C_5 
REMARK    4  A    between atoms: C_6  and  N_7 
REMARK       I    between atoms: N_7  and  C_8 
REMARK    5  A    between atoms: C_8  and  C_9 
REMARK    6  A    between atoms: C_9  and  N_10 
ROOT
HETATM    1  N   UNL     1       6.829  30.551  58.559  1.00  0.00    -0.325 N 
HETATM    2  C   UNL     1       5.987  31.643  58.409  1.00  0.00     0.240 C 
HETATM    3  O   UNL     1       6.230  32.669  57.781  1.00  0.00    -0.271 OA
HETATM    4  H   UNL     1       6.562  29.868  59.264  1.00  0.00     0.169 HD
ENDROOT
BRANCH   1   5
HETATM    5  C   UNL     1       8.099  30.333  57.977  1.00  0.00     0.050 A 
HETATM    6  C   UNL     1       8.211  29.470  56.863  1.00  0.00     0.058 A 
HETATM    7  C   UNL     1       9.440  29.319  56.202  1.00  0.00     0.019 A 
HETATM    8  C   UNL     1      10.570  29.994  56.658  1.00  0.00     0.001 A 
HETATM    9  C   UNL     1      10.474  30.823  57.772  1.00  0.00     0.002 A 
HETATM   10  C   UNL     1       9.248  30.993  58.426  1.00  0.00     0.030 A 
BRANCH   6  11
HETATM   11  C   UNL     1       7.061  28.707  56.302  1.00  0.00     0.254 C 
HETATM   12  N   UNL     1       7.212  27.335  56.223  1.00  0.00    -0.349 N 
HETATM   13  H   UNL     1       8.149  26.943  56.301  1.00  0.00     0.163 HD
HETATM   14  O   UNL     1       6.052  29.305  55.945  1.00  0.00    -0.268 OA
BRANCH  12  15
HETATM   15  C   UNL     1       6.202  26.498  55.589  1.00  0.00     0.114 C 
HETATM   16  C   UNL     1       5.378  25.762  56.646  1.00  0.00     0.037 C 
BRANCH  15  17
HETATM   17  C   UNL     1       6.831  25.533  54.599  1.00  0.00    -0.036 A 
HETATM   18  C   UNL     1       7.345  26.016  53.385  1.00  0.00     0.009 A 
HETATM   19  C   UNL     1       7.902  25.144  52.446  1.00  0.00     0.001 A 
HETATM   20  C   UNL     1       7.959  23.779  52.710  1.00  0.00     0.000 A 
HETATM   21  C   UNL     1       7.465  23.282  53.913  1.00  0.00     0.001 A 
HETATM   22  C   UNL     1       6.904  24.154  54.851  1.00  0.00     0.009 A 
ENDBRANCH  15  17
ENDBRANCH  12  15
ENDBRANCH   6  11
ENDBRANCH   1   5
BRANCH   2  23
HETATM   23  C   UNL     1       4.705  31.495  59.230  1.00  0.00     0.240 C 
BRANCH  23  24
HETATM   24  N   UNL     1       4.759  32.315  60.419  1.00  0.00    -0.259 N 
HETATM   25  C   UNL     1       5.833  32.346  61.253  1.00  0.00     0.326 C 
HETATM   26  O   UNL     1       6.810  31.619  61.232  1.00  0.00    -0.247 OA
HETATM   27  N   UNL     1       5.691  33.412  62.107  1.00  0.00    -0.324 N 
HETATM   28  C   UNL     1       4.479  34.168  61.866  1.00  0.00     0.120 C 
HETATM   29  H   UNL     1       6.365  33.590  62.841  1.00  0.00     0.165 HD
HETATM   30  C   UNL     1       3.491  34.057  63.028  1.00  0.00     0.080 C 
HETATM   31  C   UNL     1       4.748  35.628  61.508  1.00  0.00     0.046 C 
HETATM   32  C   UNL     1       3.971  33.413  60.629  1.00  0.00     0.257 C 
HETATM   33  C   UNL     1       3.869  34.957  64.187  1.00  0.00    -0.049 A 
HETATM   34  C   UNL     1       4.707  36.074  64.009  1.00  0.00    -0.052 A 
HETATM   35  C   UNL     1       3.332  34.695  65.457  1.00  0.00     0.007 A 
HETATM   36  C   UNL     1       5.352  36.390  62.683  1.00  0.00     0.042 C 
HETATM   37  C   UNL     1       5.013  36.887  65.111  1.00  0.00     0.007 A 
HETATM   38  C   UNL     1       4.484  36.610  66.370  1.00  0.00     0.001 A 
HETATM   39  C   UNL     1       3.643  35.514  66.543  1.00  0.00     0.001 A 
HETATM   40  O   UNL     1       3.025  33.754  59.928  1.00  0.00    -0.270 OA
ENDBRANCH  23  24
ENDBRANCH   2  23
TORSDOF 6
ENDMDL
MODEL 6
REMARK VINA RESULT:     -11.2      2.153     10.346
REMARK  6 active torsions:
REMARK  status: ('A' for Active; 'I' for Inactive)
REMARK    1  A    between atoms: C_2  and  N_3 
REMARK    2  A    between atoms: C_2  and  C_32 
REMARK       I    between atoms: N_3  and  C_4 
REMARK    3  A    between atoms: C_4  and  C_5 
REMARK    4  A    between atoms: C_6  and  N_7 
REMARK       I    between atoms: N_7  and  C_8 
REMARK    5  A    between atoms: C_8  and  C_9 
REMARK    6  A    between atoms: C_9  and  N_10 
ROOT
HETATM    1  N   UNL     1       5.558  29.366  58.091  1.00  0.00    -0.325 N 
HETATM    2  C   UNL     1       6.266  28.468  57.306  1.00  0.00     0.240 C 
HETATM    3  O   UNL     1       6.423  28.529  56.090  1.00  0.00    -0.271 OA
HETATM    4  H   UNL     1       5.357  29.073  59.043  1.00  0.00     0.169 HD
ENDROOT
BRANCH   1   5
HETATM    5  C   UNL     1       4.935  30.574  57.700  1.00  0.00     0.050 A 
HETATM    6  C   UNL     1       5.518  31.806  58.075  1.00  0.00     0.058 A 
HETATM    7  C   UNL     1       4.980  33.016  57.611  1.00  0.00     0.019 A 
HETATM    8  C   UNL     1       3.844  33.016  56.804  1.00  0.00     0.001 A 
HETATM    9  C   UNL     1       3.248  31.808  56.455  1.00  0.00     0.002 A 
HETATM   10  C   UNL     1       3.789  30.596  56.898  1.00  0.00     0.030 A 
BRANCH   6  11
HETATM   11  C   UNL     1       6.732  31.908  58.933  1.00  0.00     0.254 C 
HETATM   12  N   UNL     1       6.515  32.046  60.291  1.00  0.00    -0.349 N 
HETATM   13  H   UNL     1       5.588  32.323  60.611  1.00  0.00     0.163 HD
HETATM   14  O   UNL     1       7.844  31.863  58.419  1.00  0.00    -0.268 OA
BRANCH  12  15
HETATM   15  C   UNL     1       7.620  32.269  61.215  1.00  0.00     0.114 C 
HETATM   16  C   UNL     1       8.234  30.936  61.644  1.00  0.00     0.037 C 
BRANCH  15  17
HETATM   17  C   UNL     1       7.178  33.092  62.412  1.00  0.00    -0.036 A 
HETATM   18  C   UNL     1       7.725  32.831  63.678  1.00  0.00     0.009 A 
HETATM   19  C   UNL     1       7.312  33.556  64.799  1.00  0.00     0.001 A 
HETATM   20  C   UNL     1       6.352  34.555  64.669  1.00  0.00     0.000 A 
HETATM   21  C   UNL     1       5.805  34.835  63.419  1.00  0.00     0.001 A 
HETATM   22  C   UNL     1       6.215  34.108  62.299  1.00  0.00     0.009 A 
ENDBRANCH  15  17
ENDBRANCH  12  15
ENDBRANCH   6  11
ENDBRANCH   1   5
BRANCH   2  23
HETATM   23  C   UNL     1       6.765  27.270  58.116  1.00  0.00     0.240 C 
BRANCH  23  24
HETATM   24  N   UNL     1       6.922  26.107  57.270  1.00  0.00    -0.259 N 
HETATM   25  C   UNL     1       5.879  25.328  56.876  1.00  0.00     0.326 C 
HETATM   26  O   UNL     1       4.726  25.376  57.269  1.00  0.00    -0.247 OA
HETATM   27  N   UNL     1       6.311  24.498  55.870  1.00  0.00    -0.324 N 
HETATM   28  C   UNL     1       7.705  24.701  55.533  1.00  0.00     0.120 C 
HETATM   29  H   UNL     1       5.697  23.802  55.464  1.00  0.00     0.165 HD
HETATM   30  C   UNL     1       8.566  23.489  55.894  1.00  0.00     0.080 C 
HETATM   31  C   UNL     1       7.912  25.112  54.078  1.00  0.00     0.046 C 
HETATM   32  C   UNL     1       8.001  25.890  56.459  1.00  0.00     0.257 C 
HETATM   33  C   UNL     1       8.441  22.376  54.875  1.00  0.00    -0.049 A 
HETATM   34  C   UNL     1       7.995  22.626  53.563  1.00  0.00    -0.052 A 
HETATM   35  C   UNL     1       8.823  21.075  55.236  1.00  0.00     0.007 A 
HETATM   36  C   UNL     1       7.529  23.990  53.119  1.00  0.00     0.042 C 
HETATM   37  C   UNL     1       7.913  21.563  52.650  1.00  0.00     0.007 A 
HETATM   38  C   UNL     1       8.284  20.272  53.024  1.00  0.00     0.001 A 
HETATM   39  C   UNL     1       8.739  20.029  54.317  1.00  0.00     0.001 A 
HETATM   40  O   UNL     1       9.032  26.554  56.453  1.00  0.00    -0.270 OA
ENDBRANCH  23  24
ENDBRANCH   2  23
TORSDOF 6
ENDMDL
MODEL 7
REMARK VINA RESULT:     -10.9      2.704      9.905
REMARK  6 active torsions:
REMARK  status: ('A' for Active; 'I' for Inactive)
REMARK    1  A    between atoms: C_2  and  N_3 
REMARK    2  A    between atoms: C_2  and  C_32 
REMARK       I    between atoms: N_3  and  C_4 
REMARK    3  A    between atoms: C_4  and  C_5 
REMARK    4  A    between atoms: C_6  and  N_7 
REMARK       I    between atoms: N_7  and  C_8 
REMARK    5  A    between atoms: C_8  and  C_9 
REMARK    6  A    between atoms: C_9  and  N_10 
ROOT
HETATM    1  N   UNL     1       5.627  32.101  58.025  1.00  0.00    -0.325 N 
HETATM    2  C   UNL     1       6.068  31.024  57.272  1.00  0.00     0.240 C 
HETATM    3  O   UNL     1       5.751  30.766  56.115  1.00  0.00    -0.271 OA
HETATM    4  H   UNL     1       5.827  32.068  59.022  1.00  0.00     0.169 HD
ENDROOT
BRANCH   1   5
HETATM    5  C   UNL     1       4.793  33.172  57.625  1.00  0.00     0.050 A 
HETATM    6  C   UNL     1       3.807  33.651  58.518  1.00  0.00     0.058 A 
HETATM    7  C   UNL     1       3.039  34.779  58.188  1.00  0.00     0.019 A 
HETATM    8  C   UNL     1       3.219  35.417  56.962  1.00  0.00     0.001 A 
HETATM    9  C   UNL     1       4.168  34.932  56.067  1.00  0.00     0.002 A 
HETATM   10  C   UNL     1       4.950  33.820  56.396  1.00  0.00     0.030 A 
BRANCH   6  11
HETATM   11  C   UNL     1       3.542  33.037  59.849  1.00  0.00     0.254 C 
HETATM   12  N   UNL     1       3.963  33.756  60.953  1.00  0.00    -0.349 N 
HETATM   13  H   UNL     1       4.635  34.510  60.816  1.00  0.00     0.163 HD
HETATM   14  O   UNL     1       2.975  31.952  59.916  1.00  0.00    -0.268 OA
BRANCH  12  15
HETATM   15  C   UNL     1       3.861  33.206  62.298  1.00  0.00     0.114 C 
HETATM   16  C   UNL     1       2.872  34.018  63.134  1.00  0.00     0.037 C 
BRANCH  15  17
HETATM   17  C   UNL     1       5.224  33.126  62.964  1.00  0.00    -0.036 A 
HETATM   18  C   UNL     1       5.376  33.549  64.294  1.00  0.00     0.009 A 
HETATM   19  C   UNL     1       6.625  33.513  64.918  1.00  0.00     0.001 A 
HETATM   20  C   UNL     1       7.738  33.047  64.224  1.00  0.00     0.000 A 
HETATM   21  C   UNL     1       7.605  32.614  62.907  1.00  0.00     0.001 A 
HETATM   22  C   UNL     1       6.357  32.653  62.282  1.00  0.00     0.009 A 
ENDBRANCH  15  17
ENDBRANCH  12  15
ENDBRANCH   6  11
ENDBRANCH   1   5
BRANCH   2  23
HETATM   23  C   UNL     1       6.944  30.074  58.090  1.00  0.00     0.240 C 
BRANCH  23  24
HETATM   24  N   UNL     1       7.260  28.884  57.332  1.00  0.00    -0.259 N 
HETATM   25  C   UNL     1       8.534  28.467  57.099  1.00  0.00     0.326 C 
HETATM   26  O   UNL     1       9.567  29.068  57.338  1.00  0.00    -0.247 OA
HETATM   27  N   UNL     1       8.490  27.184  56.611  1.00  0.00    -0.324 N 
HETATM   28  C   UNL     1       7.140  26.670  56.502  1.00  0.00     0.120 C 
HETATM   29  H   UNL     1       9.334  26.700  56.330  1.00  0.00     0.165 HD
HETATM   30  C   UNL     1       6.726  26.447  55.047  1.00  0.00     0.080 C 
HETATM   31  C   UNL     1       6.911  25.414  57.340  1.00  0.00     0.046 C 
HETATM   32  C   UNL     1       6.384  27.855  57.121  1.00  0.00     0.257 C 
HETATM   33  C   UNL     1       7.302  25.166  54.479  1.00  0.00    -0.049 A 
HETATM   34  C   UNL     1       7.729  24.117  55.315  1.00  0.00    -0.052 A 
HETATM   35  C   UNL     1       7.367  25.006  53.086  1.00  0.00     0.007 A 
HETATM   36  C   UNL     1       7.727  24.236  56.818  1.00  0.00     0.042 C 
HETATM   37  C   UNL     1       8.239  22.942  54.740  1.00  0.00     0.007 A 
HETATM   38  C   UNL     1       8.310  22.800  53.355  1.00  0.00     0.001 A 
HETATM   39  C   UNL     1       7.874  23.832  52.529  1.00  0.00     0.001 A 
HETATM   40  O   UNL     1       5.191  27.867  57.403  1.00  0.00    -0.270 OA
ENDBRANCH  23  24
ENDBRANCH   2  23
TORSDOF 6
ENDMDL
MODEL 8
REMARK VINA RESULT:     -10.9      3.149      6.467
REMARK  6 active torsions:
REMARK  status: ('A' for Active; 'I' for Inactive)
REMARK    1  A    between atoms: C_2  and  N_3 
REMARK    2  A    between atoms: C_2  and  C_32 
REMARK       I    between atoms: N_3  and  C_4 
REMARK    3  A    between atoms: C_4  and  C_5 
REMARK    4  A    between atoms: C_6  and  N_7 
REMARK       I    between atoms: N_7  and  C_8 
REMARK    5  A    between atoms: C_8  and  C_9 
REMARK    6  A    between atoms: C_9  and  N_10 
ROOT
HETATM    1  N   UNL     1       6.778  25.429  53.182  1.00  0.00    -0.325 N 
HETATM    2  C   UNL     1       5.441  25.688  52.917  1.00  0.00     0.240 C 
HETATM    3  O   UNL     1       4.510  24.898  53.031  1.00  0.00    -0.271 OA
HETATM    4  H   UNL     1       7.446  26.122  52.855  1.00  0.00     0.169 HD
ENDROOT
BRANCH   1   5
HETATM    5  C   UNL     1       7.358  24.250  53.707  1.00  0.00     0.050 A 
HETATM    6  C   UNL     1       7.269  23.994  55.094  1.00  0.00     0.058 A 
HETATM    7  C   UNL     1       7.742  22.784  55.624  1.00  0.00     0.019 A 
HETATM    8  C   UNL     1       8.334  21.837  54.792  1.00  0.00     0.001 A 
HETATM    9  C   UNL     1       8.451  22.095  53.429  1.00  0.00     0.002 A 
HETATM   10  C   UNL     1       7.965  23.291  52.890  1.00  0.00     0.030 A 
BRANCH   6  11
HETATM   11  C   UNL     1       6.653  24.944  56.063  1.00  0.00     0.254 C 
HETATM   12  N   UNL     1       7.419  26.035  56.426  1.00  0.00    -0.349 N 
HETATM   13  H   UNL     1       8.420  26.014  56.235  1.00  0.00     0.163 HD
HETATM   14  O   UNL     1       5.522  24.731  56.486  1.00  0.00    -0.268 OA
BRANCH  12  15
HETATM   15  C   UNL     1       6.968  26.969  57.450  1.00  0.00     0.114 C 
HETATM   16  C   UNL     1       5.508  27.355  57.216  1.00  0.00     0.037 C 
BRANCH  15  17
HETATM   17  C   UNL     1       7.867  28.192  57.512  1.00  0.00    -0.036 A 
HETATM   18  C   UNL     1       9.153  28.141  56.953  1.00  0.00     0.009 A 
HETATM   19  C   UNL     1      10.008  29.245  57.023  1.00  0.00     0.001 A 
HETATM   20  C   UNL     1       9.587  30.415  57.648  1.00  0.00     0.000 A 
HETATM   21  C   UNL     1       8.310  30.487  58.200  1.00  0.00     0.001 A 
HETATM   22  C   UNL     1       7.457  29.384  58.132  1.00  0.00     0.009 A 
ENDBRANCH  15  17
ENDBRANCH  12  15
ENDBRANCH   6  11
ENDBRANCH   1   5
BRANCH   2  23
HETATM   23  C   UNL     1       5.235  27.087  52.333  1.00  0.00     0.240 C 
BRANCH  23  24
HETATM   24  N   UNL     1       5.168  28.078  53.383  1.00  0.00    -0.259 N 
HETATM   25  C   UNL     1       6.267  28.557  54.025  1.00  0.00     0.326 C 
HETATM   26  O   UNL     1       7.412  28.147  53.943  1.00  0.00    -0.247 OA
HETATM   27  N   UNL     1       5.902  29.667  54.746  1.00  0.00    -0.324 N 
HETATM   28  C   UNL     1       4.497  29.992  54.605  1.00  0.00     0.120 C 
HETATM   29  H   UNL     1       6.567  30.153  55.335  1.00  0.00     0.165 HD
HETATM   30  C   UNL     1       3.729  29.803  55.914  1.00  0.00     0.080 C 
HETATM   31  C   UNL     1       4.263  31.385  54.024  1.00  0.00     0.046 C 
HETATM   32  C   UNL     1       4.110  28.924  53.572  1.00  0.00     0.257 C 
HETATM   33  C   UNL     1       3.940  30.957  56.872  1.00  0.00    -0.049 A 
HETATM   34  C   UNL     1       4.369  32.219  56.421  1.00  0.00    -0.052 A 
HETATM   35  C   UNL     1       3.656  30.773  58.234  1.00  0.00     0.007 A 
HETATM   36  C   UNL     1       4.733  32.476  54.980  1.00  0.00     0.042 C 
HETATM   37  C   UNL     1       4.533  33.262  57.347  1.00  0.00     0.007 A 
HETATM   38  C   UNL     1       4.260  33.063  58.699  1.00  0.00     0.001 A 
HETATM   39  C   UNL     1       3.821  31.819  59.142  1.00  0.00     0.001 A 
HETATM   40  O   UNL     1       3.032  28.856  52.991  1.00  0.00    -0.270 OA
ENDBRANCH  23  24
ENDBRANCH   2  23
TORSDOF 6
ENDMDL
MODEL 9
REMARK VINA RESULT:     -10.8      2.058     10.831
REMARK  6 active torsions:
REMARK  status: ('A' for Active; 'I' for Inactive)
REMARK    1  A    between atoms: C_2  and  N_3 
REMARK    2  A    between atoms: C_2  and  C_32 
REMARK       I    between atoms: N_3  and  C_4 
REMARK    3  A    between atoms: C_4  and  C_5 
REMARK    4  A    between atoms: C_6  and  N_7 
REMARK       I    between atoms: N_7  and  C_8 
REMARK    5  A    between atoms: C_8  and  C_9 
REMARK    6  A    between atoms: C_9  and  N_10 
ROOT
HETATM    1  N   UNL     1       7.144  29.999  57.846  1.00  0.00    -0.325 N 
HETATM    2  C   UNL     1       7.105  28.615  57.752  1.00  0.00     0.240 C 
HETATM    3  O   UNL     1       7.869  27.827  58.300  1.00  0.00    -0.271 OA
HETATM    4  H   UNL     1       6.569  30.513  57.183  1.00  0.00     0.169 HD
ENDROOT
BRANCH   1   5
HETATM    5  C   UNL     1       7.998  30.804  58.635  1.00  0.00     0.050 A 
HETATM    6  C   UNL     1       7.436  31.793  59.475  1.00  0.00     0.058 A 
HETATM    7  C   UNL     1       8.251  32.531  60.345  1.00  0.00     0.019 A 
HETATM    8  C   UNL     1       9.628  32.320  60.367  1.00  0.00     0.001 A 
HETATM    9  C   UNL     1      10.192  31.368  59.522  1.00  0.00     0.002 A 
HETATM   10  C   UNL     1       9.383  30.614  58.664  1.00  0.00     0.030 A 
BRANCH   6  11
HETATM   11  C   UNL     1       5.977  32.090  59.523  1.00  0.00     0.254 C 
HETATM   12  N   UNL     1       5.578  33.070  60.412  1.00  0.00    -0.349 N 
HETATM   13  H   UNL     1       6.223  33.352  61.148  1.00  0.00     0.163 HD
HETATM   14  O   UNL     1       5.207  31.476  58.793  1.00  0.00    -0.268 OA
BRANCH  12  15
HETATM   15  C   UNL     1       4.168  33.367  60.629  1.00  0.00     0.114 C 
HETATM   16  C   UNL     1       3.711  34.496  59.704  1.00  0.00     0.037 C 
BRANCH  15  17
HETATM   17  C   UNL     1       3.893  33.693  62.087  1.00  0.00    -0.036 A 
HETATM   18  C   UNL     1       2.589  34.014  62.496  1.00  0.00     0.009 A 
HETATM   19  C   UNL     1       2.318  34.345  63.825  1.00  0.00     0.001 A 
HETATM   20  C   UNL     1       3.343  34.354  64.766  1.00  0.00     0.000 A 
HETATM   21  C   UNL     1       4.641  34.028  64.381  1.00  0.00     0.001 A 
HETATM   22  C   UNL     1       4.914  33.700  63.051  1.00  0.00     0.009 A 
ENDBRANCH  15  17
ENDBRANCH  12  15
ENDBRANCH   6  11
ENDBRANCH   1   5
BRANCH   2  23
HETATM   23  C   UNL     1       6.040  28.138  56.764  1.00  0.00     0.240 C 
BRANCH  23  24
HETATM   24  N   UNL     1       6.363  26.825  56.254  1.00  0.00    -0.259 N 
HETATM   25  C   UNL     1       5.552  25.744  56.411  1.00  0.00     0.326 C 
HETATM   26  O   UNL     1       4.550  25.663  57.100  1.00  0.00    -0.247 OA
HETATM   27  N   UNL     1       5.995  24.742  55.584  1.00  0.00    -0.324 N 
HETATM   28  C   UNL     1       7.156  25.126  54.807  1.00  0.00     0.120 C 
HETATM   29  H   UNL     1       5.553  23.831  55.580  1.00  0.00     0.165 HD
HETATM   30  C   UNL     1       8.402  24.335  55.207  1.00  0.00     0.080 C 
HETATM   31  C   UNL     1       6.915  25.054  53.301  1.00  0.00     0.046 C 
HETATM   32  C   UNL     1       7.261  26.593  55.248  1.00  0.00     0.257 C 
HETATM   33  C   UNL     1       8.412  22.944  54.608  1.00  0.00    -0.049 A 
HETATM   34  C   UNL     1       7.646  22.626  53.470  1.00  0.00    -0.052 A 
HETATM   35  C   UNL     1       9.242  21.964  55.174  1.00  0.00     0.007 A 
HETATM   36  C   UNL     1       6.701  23.617  52.836  1.00  0.00     0.042 C 
HETATM   37  C   UNL     1       7.703  21.327  52.942  1.00  0.00     0.007 A 
HETATM   38  C   UNL     1       8.522  20.358  53.521  1.00  0.00     0.001 A 
HETATM   39  C   UNL     1       9.291  20.677  54.637  1.00  0.00     0.001 A 
HETATM   40  O   UNL     1       8.013  27.429  54.760  1.00  0.00    -0.270 OA
ENDBRANCH  23  24
ENDBRANCH   2  23
TORSDOF 6
ENDMDL
MODEL 10
REMARK VINA RESULT:     -10.8      3.311      8.842
REMARK  6 active torsions:
REMARK  status: ('A' for Active; 'I' for Inactive)
REMARK    1  A    between atoms: C_2  and  N_3 
REMARK    2  A    between atoms: C_2  and  C_32 
REMARK       I    between atoms: N_3  and  C_4 
REMARK    3  A    between atoms: C_4  and  C_5 
REMARK    4  A    between atoms: C_6  and  N_7 
REMARK       I    between atoms: N_7  and  C_8 
REMARK    5  A    between atoms: C_8  and  C_9 
REMARK    6  A    between atoms: C_9  and  N_10 
ROOT
HETATM    1  N   UNL     1       4.690  28.051  52.855  1.00  0.00    -0.325 N 
HETATM    2  C   UNL     1       5.643  28.085  51.848  1.00  0.00     0.240 C 
HETATM    3  O   UNL     1       6.222  29.082  51.427  1.00  0.00    -0.271 OA
HETATM    4  H   UNL     1       4.167  27.185  52.953  1.00  0.00     0.169 HD
ENDROOT
BRANCH   1   5
HETATM    5  C   UNL     1       4.229  29.114  53.667  1.00  0.00     0.050 A 
HETATM    6  C   UNL     1       4.820  29.324  54.933  1.00  0.00     0.058 A 
HETATM    7  C   UNL     1       4.455  30.433  55.712  1.00  0.00     0.019 A 
HETATM    8  C   UNL     1       3.482  31.320  55.258  1.00  0.00     0.001 A 
HETATM    9  C   UNL     1       2.876  31.104  54.024  1.00  0.00     0.002 A 
HETATM   10  C   UNL     1       3.247  30.011  53.233  1.00  0.00     0.030 A 
BRANCH   6  11
HETATM   11  C   UNL     1       5.867  28.431  55.504  1.00  0.00     0.254 C 
HETATM   12  N   UNL     1       6.853  29.042  56.256  1.00  0.00    -0.349 N 
HETATM   13  H   UNL     1       6.970  30.051  56.179  1.00  0.00     0.163 HD
HETATM   14  O   UNL     1       5.817  27.224  55.294  1.00  0.00    -0.268 OA
BRANCH  12  15
HETATM   15  C   UNL     1       7.990  28.288  56.769  1.00  0.00     0.114 C 
HETATM   16  C   UNL     1       7.540  27.319  57.862  1.00  0.00     0.037 C 
BRANCH  15  17
HETATM   17  C   UNL     1       9.087  29.216  57.260  1.00  0.00    -0.036 A 
HETATM   18  C   UNL     1       8.785  30.221  58.193  1.00  0.00     0.009 A 
HETATM   19  C   UNL     1       9.772  31.104  58.638  1.00  0.00     0.001 A 
HETATM   20  C   UNL     1      11.075  30.992  58.162  1.00  0.00     0.000 A 
HETATM   21  C   UNL     1      11.396  29.995  57.244  1.00  0.00     0.001 A 
HETATM   22  C   UNL     1      10.409  29.114  56.797  1.00  0.00     0.009 A 
ENDBRANCH  15  17
ENDBRANCH  12  15
ENDBRANCH   6  11
ENDBRANCH   1   5
BRANCH   2  23
HETATM   23  C   UNL     1       5.838  26.715  51.198  1.00  0.00     0.240 C 
BRANCH  23  24
HETATM   24  N   UNL     1       6.175  25.718  52.190  1.00  0.00    -0.259 N 
HETATM   25  C   UNL     1       5.255  24.892  52.757  1.00  0.00     0.326 C 
HETATM   26  O   UNL     1       4.042  24.950  52.653  1.00  0.00    -0.247 OA
HETATM   27  N   UNL     1       5.919  23.894  53.426  1.00  0.00    -0.324 N 
HETATM   28  C   UNL     1       7.359  24.010  53.324  1.00  0.00     0.120 C 
HETATM   29  H   UNL     1       5.416  23.194  53.958  1.00  0.00     0.165 HD
HETATM   30  C   UNL     1       8.008  24.329  54.672  1.00  0.00     0.080 C 
HETATM   31  C   UNL     1       8.011  22.792  52.672  1.00  0.00     0.046 C 
HETATM   32  C   UNL     1       7.433  25.213  52.372  1.00  0.00     0.257 C 
HETATM   33  C   UNL     1       8.129  23.101  55.552  1.00  0.00    -0.049 A 
HETATM   34  C   UNL     1       8.106  21.802  55.010  1.00  0.00    -0.052 A 
HETATM   35  C   UNL     1       8.316  23.268  56.933  1.00  0.00     0.007 A 
HETATM   36  C   UNL     1       7.868  21.548  53.542  1.00  0.00     0.042 C 
HETATM   37  C   UNL     1       8.241  20.697  55.865  1.00  0.00     0.007 A 
HETATM   38  C   UNL     1       8.413  20.875  57.237  1.00  0.00     0.001 A 
HETATM   39  C   UNL     1       8.451  22.160  57.770  1.00  0.00     0.001 A 
HETATM   40  O   UNL     1       8.454  25.637  51.841  1.00  0.00    -0.270 OA
ENDBRANCH  23  24
ENDBRANCH   2  23
TORSDOF 6
ENDMDL
