MODEL 1
REMARK VINA RESULT:      -7.9      0.000      0.000
REMARK  2 active torsions:
REMARK  status: ('A' for Active; 'I' for Inactive)
REMARK    1  A    between atoms: C_8  and  S_9 
REMARK    2  A    between atoms: S_9  and  C_10 
ROOT
HETATM    1  C   UNL     1       8.599  20.287  55.506  1.00  0.00     0.002 A 
HETATM    2  C   UNL     1       7.953  21.440  55.955  1.00  0.00     0.034 A 
HETATM    3  C   UNL     1       7.539  22.428  55.069  1.00  0.00     0.087 A 
HETATM    4  C   UNL     1       7.794  22.257  53.683  1.00  0.00     0.087 A 
HETATM    5  N   UNL     1       7.433  23.190  52.784  1.00  0.00    -0.232 NA
HETATM    6  C   UNL     1       6.825  24.297  53.263  1.00  0.00     0.164 A 
HETATM    7 CL   UNL     1       6.466  25.455  52.051  1.00  0.00    -0.059 Cl
HETATM    8  C   UNL     1       6.558  24.460  54.614  1.00  0.00     0.165 A 
HETATM    9  N   UNL     1       6.906  23.527  55.541  1.00  0.00    -0.234 NA
HETATM   10  C   UNL     1       8.432  21.103  53.249  1.00  0.00     0.034 A 
HETATM   11  C   UNL     1       8.835  20.117  54.148  1.00  0.00     0.002 A 
ENDROOT
BRANCH   8  12
HETATM   12  S   UNL     1       5.774  25.910  55.320  1.00  0.00     0.078 S 
HETATM   13  O   UNL     1       5.067  25.435  56.556  1.00  0.00    -0.251 OA
BRANCH  12  14
HETATM   14  C   UNL     1       7.221  26.864  55.912  1.00  0.00     0.112 C 
HETATM   15  C   UNL     1       6.937  27.440  57.303  1.00  0.00     0.250 C 
HETATM   16  N   UNL     1       8.062  28.340  57.733  1.00  0.00    -0.074 N 
HETATM   17  H   UNL     1       8.923  27.789  57.864  1.00  0.00     0.277 HD
HETATM   18  H   UNL     1       7.836  28.722  58.663  1.00  0.00     0.277 HD
HETATM   19  C   UNL     1       8.315  29.475  56.796  1.00  0.00     0.232 C 
HETATM   20  C   UNL     1       8.623  28.918  55.415  1.00  0.00     0.029 C 
HETATM   21  C   UNL     1       7.507  27.999  54.915  1.00  0.00     0.021 C 
ENDBRANCH  12  14
ENDBRANCH   8  12
TORSDOF 2
ENDMDL
MODEL 2
REMARK VINA RESULT:      -7.9      2.849      3.620
REMARK  2 active torsions:
REMARK  status: ('A' for Active; 'I' for Inactive)
REMARK    1  A    between atoms: C_8  and  S_9 
REMARK    2  A    between atoms: S_9  and  C_10 
ROOT
HETATM    1  C   UNL     1       8.055  20.852  53.272  1.00  0.00     0.002 A 
HETATM    2  C   UNL     1       7.979  22.233  53.088  1.00  0.00     0.034 A 
HETATM    3  C   UNL     1       7.837  23.099  54.166  1.00  0.00     0.087 A 
HETATM    4  C   UNL     1       7.757  22.556  55.476  1.00  0.00     0.087 A 
HETATM    5  N   UNL     1       7.599  23.346  56.552  1.00  0.00    -0.232 NA
HETATM    6  C   UNL     1       7.515  24.676  56.328  1.00  0.00     0.164 A 
HETATM    7 CL   UNL     1       7.247  25.591  57.753  1.00  0.00    -0.059 Cl
HETATM    8  C   UNL     1       7.611  25.211  55.053  1.00  0.00     0.165 A 
HETATM    9  N   UNL     1       7.779  24.433  53.949  1.00  0.00    -0.234 NA
HETATM   10  C   UNL     1       7.839  21.181  55.645  1.00  0.00     0.034 A 
HETATM   11  C   UNL     1       7.989  20.325  54.555  1.00  0.00     0.002 A 
ENDROOT
BRANCH   8  12
HETATM   12  S   UNL     1       7.488  26.961  54.681  1.00  0.00     0.078 S 
HETATM   13  O   UNL     1       7.986  27.119  53.274  1.00  0.00    -0.251 OA
BRANCH  12  14
HETATM   14  C   UNL     1       5.674  27.196  54.594  1.00  0.00     0.112 C 
HETATM   15  C   UNL     1       5.151  26.752  53.224  1.00  0.00     0.250 C 
HETATM   16  N   UNL     1       3.688  27.074  53.096  1.00  0.00    -0.074 N 
HETATM   17  H   UNL     1       3.143  26.508  53.763  1.00  0.00     0.277 HD
HETATM   18  H   UNL     1       3.370  26.778  52.161  1.00  0.00     0.277 HD
HETATM   19  C   UNL     1       3.374  28.523  53.273  1.00  0.00     0.232 C 
HETATM   20  C   UNL     1       3.865  28.972  54.641  1.00  0.00     0.029 C 
HETATM   21  C   UNL     1       5.354  28.681  54.830  1.00  0.00     0.021 C 
ENDBRANCH  12  14
ENDBRANCH   8  12
TORSDOF 2
ENDMDL
MODEL 3
REMARK VINA RESULT:      -7.6      2.509      3.063
REMARK  2 active torsions:
REMARK  status: ('A' for Active; 'I' for Inactive)
REMARK    1  A    between atoms: C_8  and  S_9 
REMARK    2  A    between atoms: S_9  and  C_10 
ROOT
HETATM    1  C   UNL     1       7.858  20.903  53.231  1.00  0.00     0.002 A 
HETATM    2  C   UNL     1       7.756  22.283  53.046  1.00  0.00     0.034 A 
HETATM    3  C   UNL     1       7.786  23.160  54.125  1.00  0.00     0.087 A 
HETATM    4  C   UNL     1       7.911  22.630  55.436  1.00  0.00     0.087 A 
HETATM    5  N   UNL     1       7.925  23.431  56.516  1.00  0.00    -0.232 NA
HETATM    6  C   UNL     1       7.809  24.758  56.294  1.00  0.00     0.164 A 
HETATM    7 CL   UNL     1       7.768  25.688  57.734  1.00  0.00    -0.059 Cl
HETATM    8  C   UNL     1       7.704  25.281  55.015  1.00  0.00     0.165 A 
HETATM    9  N   UNL     1       7.696  24.492  53.906  1.00  0.00    -0.234 NA
HETATM   10  C   UNL     1       8.017  21.257  55.605  1.00  0.00     0.034 A 
HETATM   11  C   UNL     1       7.993  20.389  54.514  1.00  0.00     0.002 A 
ENDROOT
BRANCH   8  12
HETATM   12  S   UNL     1       7.526  27.027  54.648  1.00  0.00     0.078 S 
HETATM   13  O   UNL     1       6.872  27.101  53.299  1.00  0.00    -0.251 OA
BRANCH  12  14
HETATM   14  C   UNL     1       6.240  27.531  55.851  1.00  0.00     0.112 C 
HETATM   15  C   UNL     1       4.885  27.659  55.148  1.00  0.00     0.250 C 
HETATM   16  N   UNL     1       3.856  28.208  56.097  1.00  0.00    -0.074 N 
HETATM   17  H   UNL     1       3.679  27.531  56.854  1.00  0.00     0.277 HD
HETATM   18  H   UNL     1       2.961  28.297  55.593  1.00  0.00     0.277 HD
HETATM   19  C   UNL     1       4.218  29.538  56.671  1.00  0.00     0.232 C 
HETATM   20  C   UNL     1       5.550  29.420  57.394  1.00  0.00     0.029 C 
HETATM   21  C   UNL     1       6.645  28.875  56.476  1.00  0.00     0.021 C 
ENDBRANCH  12  14
ENDBRANCH   8  12
TORSDOF 2
ENDMDL
MODEL 4
REMARK VINA RESULT:      -7.5      2.212      3.021
REMARK  2 active torsions:
REMARK  status: ('A' for Active; 'I' for Inactive)
REMARK    1  A    between atoms: C_8  and  S_9 
REMARK    2  A    between atoms: S_9  and  C_10 
ROOT
HETATM    1  C   UNL     1       7.927  22.269  52.883  1.00  0.00     0.002 A 
HETATM    2  C   UNL     1       7.846  23.661  52.936  1.00  0.00     0.034 A 
HETATM    3  C   UNL     1       7.712  24.331  54.147  1.00  0.00     0.087 A 
HETATM    4  C   UNL     1       7.646  23.574  55.346  1.00  0.00     0.087 A 
HETATM    5  N   UNL     1       7.497  24.169  56.543  1.00  0.00    -0.232 NA
HETATM    6  C   UNL     1       7.408  25.517  56.548  1.00  0.00     0.164 A 
HETATM    7 CL   UNL     1       7.151  26.176  58.110  1.00  0.00    -0.059 Cl
HETATM    8  C   UNL     1       7.490  26.261  55.382  1.00  0.00     0.165 A 
HETATM    9  N   UNL     1       7.648  25.682  54.160  1.00  0.00    -0.234 NA
HETATM   10  C   UNL     1       7.734  22.190  55.280  1.00  0.00     0.034 A 
HETATM   11  C   UNL     1       7.875  21.532  54.058  1.00  0.00     0.002 A 
ENDROOT
BRANCH   8  12
HETATM   12  S   UNL     1       7.358  28.048  55.313  1.00  0.00     0.078 S 
HETATM   13  O   UNL     1       6.031  28.388  55.928  1.00  0.00    -0.251 OA
BRANCH  12  14
HETATM   14  C   UNL     1       8.619  28.562  56.538  1.00  0.00     0.112 C 
HETATM   15  C   UNL     1       7.989  29.489  57.583  1.00  0.00     0.250 C 
HETATM   16  N   UNL     1       9.047  30.026  58.507  1.00  0.00    -0.074 N 
HETATM   17  H   UNL     1       9.448  29.259  59.066  1.00  0.00     0.277 HD
HETATM   18  H   UNL     1       8.596  30.656  59.187  1.00  0.00     0.277 HD
HETATM   19  C   UNL     1      10.132  30.774  57.805  1.00  0.00     0.232 C 
HETATM   20  C   UNL     1      10.784  29.858  56.781  1.00  0.00     0.029 C 
HETATM   21  C   UNL     1       9.758  29.285  55.802  1.00  0.00     0.021 C 
ENDBRANCH  12  14
ENDBRANCH   8  12
TORSDOF 2
ENDMDL
MODEL 5
REMARK VINA RESULT:      -7.3      4.161      8.683
REMARK  2 active torsions:
REMARK  status: ('A' for Active; 'I' for Inactive)
REMARK    1  A    between atoms: C_8  and  S_9 
REMARK    2  A    between atoms: S_9  and  C_10 
ROOT
HETATM    1  C   UNL     1       8.738  31.708  62.569  1.00  0.00     0.002 A 
HETATM    2  C   UNL     1       9.005  30.849  61.502  1.00  0.00     0.034 A 
HETATM    3  C   UNL     1       8.250  30.889  60.335  1.00  0.00     0.087 A 
HETATM    4  C   UNL     1       7.181  31.820  60.242  1.00  0.00     0.087 A 
HETATM    5  N   UNL     1       6.407  31.889  59.145  1.00  0.00    -0.232 NA
HETATM    6  C   UNL     1       6.689  31.028  58.142  1.00  0.00     0.164 A 
HETATM    7 CL   UNL     1       5.606  31.146  56.819  1.00  0.00    -0.059 Cl
HETATM    8  C   UNL     1       7.743  30.131  58.223  1.00  0.00     0.165 A 
HETATM    9  N   UNL     1       8.545  30.048  59.318  1.00  0.00    -0.234 NA
HETATM   10  C   UNL     1       6.931  32.673  61.307  1.00  0.00     0.034 A 
HETATM   11  C   UNL     1       7.701  32.626  62.469  1.00  0.00     0.002 A 
ENDROOT
BRANCH   8  12
HETATM   12  S   UNL     1       8.161  28.948  56.941  1.00  0.00     0.078 S 
HETATM   13  O   UNL     1       9.605  28.600  57.157  1.00  0.00    -0.251 OA
BRANCH  12  14
HETATM   14  C   UNL     1       7.210  27.475  57.469  1.00  0.00     0.112 C 
HETATM   15  C   UNL     1       8.053  26.209  57.277  1.00  0.00     0.250 C 
HETATM   16  N   UNL     1       7.230  24.986  57.574  1.00  0.00    -0.074 N 
HETATM   17  H   UNL     1       6.978  24.966  58.573  1.00  0.00     0.277 HD
HETATM   18  H   UNL     1       7.818  24.153  57.422  1.00  0.00     0.277 HD
HETATM   19  C   UNL     1       6.004  24.869  56.731  1.00  0.00     0.232 C 
HETATM   20  C   UNL     1       5.144  26.108  56.930  1.00  0.00     0.029 C 
HETATM   21  C   UNL     1       5.923  27.389  56.633  1.00  0.00     0.021 C 
ENDBRANCH  12  14
ENDBRANCH   8  12
TORSDOF 2
ENDMDL
MODEL 6
REMARK VINA RESULT:      -7.3      2.831      4.200
REMARK  2 active torsions:
REMARK  status: ('A' for Active; 'I' for Inactive)
REMARK    1  A    between atoms: C_8  and  S_9 
REMARK    2  A    between atoms: S_9  and  C_10 
ROOT
HETATM    1  C   UNL     1       8.280  20.813  53.073  1.00  0.00     0.002 A 
HETATM    2  C   UNL     1       7.907  22.137  52.838  1.00  0.00     0.034 A 
HETATM    3  C   UNL     1       7.552  22.985  53.881  1.00  0.00     0.087 A 
HETATM    4  C   UNL     1       7.562  22.479  55.209  1.00  0.00     0.087 A 
HETATM    5  N   UNL     1       7.209  23.249  56.253  1.00  0.00    -0.232 NA
HETATM    6  C   UNL     1       6.840  24.519  55.979  1.00  0.00     0.164 A 
HETATM    7 CL   UNL     1       6.343  25.397  57.366  1.00  0.00    -0.059 Cl
HETATM    8  C   UNL     1       6.846  25.021  54.687  1.00  0.00     0.165 A 
HETATM    9  N   UNL     1       7.206  24.265  53.615  1.00  0.00    -0.234 NA
HETATM   10  C   UNL     1       7.941  21.163  55.430  1.00  0.00     0.034 A 
HETATM   11  C   UNL     1       8.301  20.326  54.374  1.00  0.00     0.002 A 
ENDROOT
BRANCH   8  12
HETATM   12  S   UNL     1       6.349  26.688  54.250  1.00  0.00     0.078 S 
HETATM   13  O   UNL     1       7.547  27.555  54.503  1.00  0.00    -0.251 OA
BRANCH  12  14
HETATM   14  C   UNL     1       6.202  26.566  52.428  1.00  0.00     0.112 C 
HETATM   15  C   UNL     1       6.029  27.962  51.820  1.00  0.00     0.250 C 
HETATM   16  N   UNL     1       5.766  27.858  50.343  1.00  0.00    -0.074 N 
HETATM   17  H   UNL     1       6.597  27.480  49.864  1.00  0.00     0.277 HD
HETATM   18  H   UNL     1       5.640  28.809  49.967  1.00  0.00     0.277 HD
HETATM   19  C   UNL     1       4.561  27.044  50.004  1.00  0.00     0.232 C 
HETATM   20  C   UNL     1       4.729  25.646  50.580  1.00  0.00     0.029 C 
HETATM   21  C   UNL     1       4.990  25.683  52.087  1.00  0.00     0.021 C 
ENDBRANCH  12  14
ENDBRANCH   8  12
TORSDOF 2
ENDMDL
MODEL 7
REMARK VINA RESULT:      -7.1      2.600      3.503
REMARK  2 active torsions:
REMARK  status: ('A' for Active; 'I' for Inactive)
REMARK    1  A    between atoms: C_8  and  S_9 
REMARK    2  A    between atoms: S_9  and  C_10 
ROOT
HETATM    1  C   UNL     1       8.103  24.266  52.032  1.00  0.00     0.002 A 
HETATM    2  C   UNL     1       7.621  25.511  52.440  1.00  0.00     0.034 A 
HETATM    3  C   UNL     1       6.962  25.668  53.655  1.00  0.00     0.087 A 
HETATM    4  C   UNL     1       6.771  24.531  54.483  1.00  0.00     0.087 A 
HETATM    5  N   UNL     1       6.123  24.621  55.658  1.00  0.00    -0.232 NA
HETATM    6  C   UNL     1       5.659  25.841  56.008  1.00  0.00     0.164 A 
HETATM    7 CL   UNL     1       4.790  25.841  57.486  1.00  0.00    -0.059 Cl
HETATM    8  C   UNL     1       5.859  26.957  55.210  1.00  0.00     0.165 A 
HETATM    9  N   UNL     1       6.518  26.892  54.021  1.00  0.00    -0.234 NA
HETATM   10  C   UNL     1       7.261  23.300  54.068  1.00  0.00     0.034 A 
HETATM   11  C   UNL     1       7.926  23.159  52.851  1.00  0.00     0.002 A 
ENDROOT
BRANCH   8  12
HETATM   12  S   UNL     1       5.254  28.599  55.601  1.00  0.00     0.078 S 
HETATM   13  O   UNL     1       3.821  28.423  56.011  1.00  0.00    -0.251 OA
BRANCH  12  14
HETATM   14  C   UNL     1       6.168  28.975  57.143  1.00  0.00     0.112 C 
HETATM   15  C   UNL     1       5.782  30.366  57.657  1.00  0.00     0.250 C 
HETATM   16  N   UNL     1       6.632  30.739  58.840  1.00  0.00    -0.074 N 
HETATM   17  H   UNL     1       6.422  30.115  59.633  1.00  0.00     0.277 HD
HETATM   18  H   UNL     1       6.360  31.682  59.153  1.00  0.00     0.277 HD
HETATM   19  C   UNL     1       8.097  30.732  58.553  1.00  0.00     0.232 C 
HETATM   20  C   UNL     1       8.500  29.349  58.065  1.00  0.00     0.029 C 
HETATM   21  C   UNL     1       7.676  28.915  56.852  1.00  0.00     0.021 C 
ENDBRANCH  12  14
ENDBRANCH   8  12
TORSDOF 2
ENDMDL
MODEL 8
REMARK VINA RESULT:      -7.0      2.722      6.056
REMARK  2 active torsions:
REMARK  status: ('A' for Active; 'I' for Inactive)
REMARK    1  A    between atoms: C_8  and  S_9 
REMARK    2  A    between atoms: S_9  and  C_10 
ROOT
HETATM    1  C   UNL     1       4.983  26.429  50.474  1.00  0.00     0.002 A 
HETATM    2  C   UNL     1       5.510  25.579  51.447  1.00  0.00     0.034 A 
HETATM    3  C   UNL     1       6.096  26.081  52.604  1.00  0.00     0.087 A 
HETATM    4  C   UNL     1       6.165  27.488  52.783  1.00  0.00     0.087 A 
HETATM    5  N   UNL     1       6.739  28.028  53.872  1.00  0.00    -0.232 NA
HETATM    6  C   UNL     1       7.250  27.170  54.782  1.00  0.00     0.164 A 
HETATM    7 CL   UNL     1       8.020  27.953  56.099  1.00  0.00    -0.059 Cl
HETATM    8  C   UNL     1       7.169  25.796  54.619  1.00  0.00     0.165 A 
HETATM    9  N   UNL     1       6.586  25.226  53.530  1.00  0.00    -0.234 NA
HETATM   10  C   UNL     1       5.632  28.322  51.809  1.00  0.00     0.034 A 
HETATM   11  C   UNL     1       5.040  27.804  50.658  1.00  0.00     0.002 A 
ENDROOT
BRANCH   8  12
HETATM   12  S   UNL     1       7.843  24.601  55.775  1.00  0.00     0.078 S 
HETATM   13  O   UNL     1       6.945  24.637  56.976  1.00  0.00    -0.251 OA
BRANCH  12  14
HETATM   14  C   UNL     1       7.477  23.018  54.929  1.00  0.00     0.112 C 
HETATM   15  C   UNL     1       7.738  21.843  55.878  1.00  0.00     0.250 C 
HETATM   16  N   UNL     1       7.576  20.539  55.147  1.00  0.00    -0.074 N 
HETATM   17  H   UNL     1       6.593  20.414  54.863  1.00  0.00     0.277 HD
HETATM   18  H   UNL     1       7.771  19.770  55.805  1.00  0.00     0.277 HD
HETATM   19  C   UNL     1       8.476  20.398  53.964  1.00  0.00     0.232 C 
HETATM   20  C   UNL     1       8.211  21.545  53.001  1.00  0.00     0.029 C 
HETATM   21  C   UNL     1       8.370  22.904  53.683  1.00  0.00     0.021 C 
ENDBRANCH  12  14
ENDBRANCH   8  12
TORSDOF 2
ENDMDL
MODEL 9
REMARK VINA RESULT:      -6.9      4.663      5.982
REMARK  2 active torsions:
REMARK  status: ('A' for Active; 'I' for Inactive)
REMARK    1  A    between atoms: C_8  and  S_9 
REMARK    2  A    between atoms: S_9  and  C_10 
ROOT
HETATM    1  C   UNL     1       8.024  23.563  52.832  1.00  0.00     0.002 A 
HETATM    2  C   UNL     1       7.573  24.741  52.234  1.00  0.00     0.034 A 
HETATM    3  C   UNL     1       6.792  25.654  52.934  1.00  0.00     0.087 A 
HETATM    4  C   UNL     1       6.441  25.366  54.280  1.00  0.00     0.087 A 
HETATM    5  N   UNL     1       5.672  26.204  54.997  1.00  0.00    -0.232 NA
HETATM    6  C   UNL     1       5.244  27.324  54.375  1.00  0.00     0.164 A 
HETATM    7 CL   UNL     1       4.215  28.292  55.347  1.00  0.00    -0.059 Cl
HETATM    8  C   UNL     1       5.598  27.616  53.067  1.00  0.00     0.165 A 
HETATM    9  N   UNL     1       6.382  26.790  52.324  1.00  0.00    -0.234 NA
HETATM   10  C   UNL     1       6.902  24.195  54.864  1.00  0.00     0.034 A 
HETATM   11  C   UNL     1       7.691  23.292  54.153  1.00  0.00     0.002 A 
ENDROOT
BRANCH   8  12
HETATM   12  S   UNL     1       5.050  29.072  52.175  1.00  0.00     0.078 S 
HETATM   13  O   UNL     1       6.090  29.326  51.122  1.00  0.00    -0.251 OA
BRANCH  12  14
HETATM   14  C   UNL     1       3.586  28.432  51.281  1.00  0.00     0.112 C 
HETATM   15  C   UNL     1       4.006  27.864  49.921  1.00  0.00     0.250 C 
HETATM   16  N   UNL     1       2.794  27.467  49.125  1.00  0.00    -0.074 N 
HETATM   17  H   UNL     1       2.314  26.679  49.585  1.00  0.00     0.277 HD
HETATM   18  H   UNL     1       3.107  27.104  48.213  1.00  0.00     0.277 HD
HETATM   19  C   UNL     1       1.836  28.588  48.892  1.00  0.00     0.232 C 
HETATM   20  C   UNL     1       1.389  29.146  50.235  1.00  0.00     0.029 C 
HETATM   21  C   UNL     1       2.580  29.579  51.091  1.00  0.00     0.021 C 
ENDBRANCH  12  14
ENDBRANCH   8  12
TORSDOF 2
ENDMDL
MODEL 10
REMARK VINA RESULT:      -6.9      9.536     11.892
REMARK  2 active torsions:
REMARK  status: ('A' for Active; 'I' for Inactive)
REMARK    1  A    between atoms: C_8  and  S_9 
REMARK    2  A    between atoms: S_9  and  C_10 
ROOT
HETATM    1  C   UNL     1       9.356  30.585  61.773  1.00  0.00     0.002 A 
HETATM    2  C   UNL     1       8.465  31.231  62.631  1.00  0.00     0.034 A 
HETATM    3  C   UNL     1       7.334  31.877  62.145  1.00  0.00     0.087 A 
HETATM    4  C   UNL     1       7.096  31.884  60.745  1.00  0.00     0.087 A 
HETATM    5  N   UNL     1       6.029  32.510  60.220  1.00  0.00    -0.232 NA
HETATM    6  C   UNL     1       5.200  33.136  61.084  1.00  0.00     0.164 A 
HETATM    7 CL   UNL     1       3.910  33.962  60.313  1.00  0.00    -0.059 Cl
HETATM    8  C   UNL     1       5.420  33.117  62.452  1.00  0.00     0.165 A 
HETATM    9  N   UNL     1       6.487  32.483  63.009  1.00  0.00    -0.234 NA
HETATM   10  C   UNL     1       7.987  31.232  59.903  1.00  0.00     0.034 A 
HETATM   11  C   UNL     1       9.114  30.582  60.405  1.00  0.00     0.002 A 
ENDROOT
BRANCH   8  12
HETATM   12  S   UNL     1       4.375  33.942  63.654  1.00  0.00     0.078 S 
HETATM   13  O   UNL     1       4.440  33.107  64.899  1.00  0.00    -0.251 OA
BRANCH  12  14
HETATM   14  C   UNL     1       5.345  35.451  64.017  1.00  0.00     0.112 C 
HETATM   15  C   UNL     1       4.640  36.283  65.094  1.00  0.00     0.250 C 
HETATM   16  N   UNL     1       5.356  37.590  65.294  1.00  0.00    -0.074 N 
HETATM   17  H   UNL     1       6.294  37.420  65.687  1.00  0.00     0.277 HD
HETATM   18  H   UNL     1       4.852  38.132  66.011  1.00  0.00     0.277 HD
HETATM   19  C   UNL     1       5.460  38.414  64.054  1.00  0.00     0.232 C 
HETATM   20  C   UNL     1       6.181  37.610  62.983  1.00  0.00     0.029 C 
HETATM   21  C   UNL     1       5.493  36.269  62.724  1.00  0.00     0.021 C 
ENDBRANCH  12  14
ENDBRANCH   8  12
TORSDOF 2
ENDMDL
