MODEL 1
REMARK VINA RESULT:      -9.6      0.000      0.000
REMARK  2 active torsions:
REMARK  status: ('A' for Active; 'I' for Inactive)
REMARK    1  A    between atoms: C_4  and  C_5 
REMARK       I    between atoms: C_5  and  N_6 
REMARK    2  A    between atoms: N_6  and  C_7 
ROOT
HETATM    1  C   UNL     1       7.739  27.062  56.794  1.00  0.00     0.277 C 
HETATM    2  N   UNL     1       8.374  28.192  56.338  1.00  0.00    -0.321 N 
HETATM    3  O   UNL     1       7.667  26.607  57.921  1.00  0.00    -0.266 OA
HETATM    4  H   UNL     1       8.519  28.188  55.332  1.00  0.00     0.169 HD
ENDROOT
BRANCH   1   5
HETATM    5  C   UNL     1       7.114  26.284  55.634  1.00  0.00     0.156 A 
HETATM    6  N   UNL     1       6.151  26.898  55.006  1.00  0.00    -0.164 NA
HETATM    7  N   UNL     1       5.530  26.263  53.963  1.00  0.00    -0.238 N 
HETATM    8  C   UNL     1       4.495  27.009  53.272  1.00  0.00     0.183 C 
HETATM    9  C   UNL     1       5.876  25.000  53.491  1.00  0.00     0.274 A 
HETATM   10  C   UNL     1       6.940  24.295  54.230  1.00  0.00     0.046 A 
HETATM   11  O   UNL     1       5.340  24.459  52.527  1.00  0.00    -0.266 OA
HETATM   12  C   UNL     1       7.561  24.918  55.308  1.00  0.00     0.016 A 
HETATM   13  C   UNL     1       7.304  22.994  53.855  1.00  0.00     0.018 A 
HETATM   14  C   UNL     1       8.541  24.227  56.032  1.00  0.00     0.015 A 
HETATM   15  C   UNL     1       8.904  22.929  55.658  1.00  0.00     0.001 A 
HETATM   16  C   UNL     1       8.290  22.315  54.569  1.00  0.00     0.001 A 
ENDBRANCH   1   5
BRANCH   2  17
HETATM   17  C   UNL     1       9.001  29.225  57.061  1.00  0.00     0.047 A 
HETATM   18  C   UNL     1       8.377  30.153  57.935  1.00  0.00     0.019 A 
HETATM   19  C   UNL     1       9.177  31.130  58.549  1.00  0.00     0.044 A 
HETATM   20  C   UNL     1       7.043  30.429  58.370  1.00  0.00     0.033 A 
HETATM   21  N   UNL     1       8.363  31.908  59.343  1.00  0.00    -0.365 N 
HETATM   22  C   UNL     1      10.556  31.240  58.339  1.00  0.00     0.030 A 
HETATM   23  H   UNL     1       8.685  32.682  59.906  1.00  0.00     0.165 HD
HETATM   24  C   UNL     1       7.067  31.499  59.234  1.00  0.00     0.089 A 
HETATM   25  C   UNL     1      11.150  30.338  57.461  1.00  0.00     0.005 A 
HETATM   26  C   UNL     1      10.388  29.358  56.831  1.00  0.00     0.030 A 
ENDBRANCH   2  17
TORSDOF 2
ENDMDL
MODEL 2
REMARK VINA RESULT:      -9.5      3.924      6.251
REMARK  2 active torsions:
REMARK  status: ('A' for Active; 'I' for Inactive)
REMARK    1  A    between atoms: C_4  and  C_5 
REMARK       I    between atoms: C_5  and  N_6 
REMARK    2  A    between atoms: N_6  and  C_7 
ROOT
HETATM    1  C   UNL     1       7.321  25.341  52.934  1.00  0.00     0.277 C 
HETATM    2  N   UNL     1       5.985  25.653  52.863  1.00  0.00    -0.321 N 
HETATM    3  O   UNL     1       8.221  25.575  52.149  1.00  0.00    -0.266 OA
HETATM    4  H   UNL     1       5.414  25.102  53.499  1.00  0.00     0.169 HD
ENDROOT
BRANCH   1   5
HETATM    5  C   UNL     1       7.621  24.516  54.188  1.00  0.00     0.156 A 
HETATM    6  N   UNL     1       7.688  25.195  55.298  1.00  0.00    -0.164 NA
HETATM    7  N   UNL     1       7.966  24.531  56.465  1.00  0.00    -0.238 N 
HETATM    8  C   UNL     1       7.986  25.328  57.676  1.00  0.00     0.183 C 
HETATM    9  C   UNL     1       8.155  23.156  56.562  1.00  0.00     0.274 A 
HETATM   10  C   UNL     1       8.115  22.399  55.297  1.00  0.00     0.046 A 
HETATM   11  O   UNL     1       8.361  22.566  57.620  1.00  0.00    -0.266 OA
HETATM   12  C   UNL     1       7.861  23.065  54.102  1.00  0.00     0.016 A 
HETATM   13  C   UNL     1       8.356  21.018  55.303  1.00  0.00     0.018 A 
HETATM   14  C   UNL     1       7.867  22.348  52.899  1.00  0.00     0.015 A 
HETATM   15  C   UNL     1       8.107  20.970  52.905  1.00  0.00     0.001 A 
HETATM   16  C   UNL     1       8.349  20.305  54.105  1.00  0.00     0.001 A 
ENDBRANCH   1   5
BRANCH   2  17
HETATM   17  C   UNL     1       5.297  26.458  51.935  1.00  0.00     0.047 A 
HETATM   18  C   UNL     1       4.612  27.671  52.202  1.00  0.00     0.019 A 
HETATM   19  C   UNL     1       3.964  28.318  51.137  1.00  0.00     0.044 A 
HETATM   20  C   UNL     1       4.329  28.467  53.356  1.00  0.00     0.033 A 
HETATM   21  N   UNL     1       3.375  29.461  51.630  1.00  0.00    -0.365 N 
HETATM   22  C   UNL     1       3.954  27.825  49.828  1.00  0.00     0.030 A 
HETATM   23  H   UNL     1       2.849  30.120  51.073  1.00  0.00     0.165 HD
HETATM   24  C   UNL     1       3.580  29.556  52.975  1.00  0.00     0.089 A 
HETATM   25  C   UNL     1       4.611  26.623  49.585  1.00  0.00     0.005 A 
HETATM   26  C   UNL     1       5.261  25.951  50.617  1.00  0.00     0.030 A 
ENDBRANCH   2  17
TORSDOF 2
ENDMDL
MODEL 3
REMARK VINA RESULT:      -9.3      2.942      7.105
REMARK  2 active torsions:
REMARK  status: ('A' for Active; 'I' for Inactive)
REMARK    1  A    between atoms: C_4  and  C_5 
REMARK       I    between atoms: C_5  and  N_6 
REMARK    2  A    between atoms: N_6  and  C_7 
ROOT
HETATM    1  C   UNL     1       7.281  25.316  53.807  1.00  0.00     0.277 C 
HETATM    2  N   UNL     1       7.003  24.160  54.496  1.00  0.00    -0.321 N 
HETATM    3  O   UNL     1       8.112  25.531  52.944  1.00  0.00    -0.266 OA
HETATM    4  H   UNL     1       6.469  24.324  55.347  1.00  0.00     0.169 HD
ENDROOT
BRANCH   1   5
HETATM    5  C   UNL     1       6.416  26.473  54.314  1.00  0.00     0.156 A 
HETATM    6  N   UNL     1       5.407  26.789  53.552  1.00  0.00    -0.164 NA
HETATM    7  N   UNL     1       4.592  27.824  53.929  1.00  0.00    -0.238 N 
HETATM    8  C   UNL     1       3.459  28.104  53.068  1.00  0.00     0.183 C 
HETATM    9  C   UNL     1       4.742  28.558  55.102  1.00  0.00     0.274 A 
HETATM   10  C   UNL     1       5.909  28.221  55.940  1.00  0.00     0.046 A 
HETATM   11  O   UNL     1       3.979  29.456  55.450  1.00  0.00    -0.266 OA
HETATM   12  C   UNL     1       6.760  27.190  55.554  1.00  0.00     0.016 A 
HETATM   13  C   UNL     1       6.164  28.955  57.106  1.00  0.00     0.018 A 
HETATM   14  C   UNL     1       7.889  26.903  56.332  1.00  0.00     0.015 A 
HETATM   15  C   UNL     1       8.145  27.635  57.495  1.00  0.00     0.001 A 
HETATM   16  C   UNL     1       7.282  28.658  57.884  1.00  0.00     0.001 A 
ENDBRANCH   1   5
BRANCH   2  17
HETATM   17  C   UNL     1       7.497  22.857  54.303  1.00  0.00     0.047 A 
HETATM   18  C   UNL     1       7.968  21.967  55.304  1.00  0.00     0.019 A 
HETATM   19  C   UNL     1       8.445  20.708  54.904  1.00  0.00     0.044 A 
HETATM   20  C   UNL     1       8.155  22.010  56.720  1.00  0.00     0.033 A 
HETATM   21  N   UNL     1       8.843  20.027  56.033  1.00  0.00    -0.365 N 
HETATM   22  C   UNL     1       8.485  20.288  53.570  1.00  0.00     0.030 A 
HETATM   23  H   UNL     1       9.221  19.090  56.032  1.00  0.00     0.165 HD
HETATM   24  C   UNL     1       8.683  20.810  57.137  1.00  0.00     0.089 A 
HETATM   25  C   UNL     1       8.042  21.179  52.598  1.00  0.00     0.005 A 
HETATM   26  C   UNL     1       7.566  22.437  52.956  1.00  0.00     0.030 A 
ENDBRANCH   2  17
TORSDOF 2
ENDMDL
MODEL 4
REMARK VINA RESULT:      -9.3      3.380      6.106
REMARK  2 active torsions:
REMARK  status: ('A' for Active; 'I' for Inactive)
REMARK    1  A    between atoms: C_4  and  C_5 
REMARK       I    between atoms: C_5  and  N_6 
REMARK    2  A    between atoms: N_6  and  C_7 
ROOT
HETATM    1  C   UNL     1       6.845  31.668  59.313  1.00  0.00     0.277 C 
HETATM    2  N   UNL     1       6.955  31.253  60.618  1.00  0.00    -0.321 N 
HETATM    3  O   UNL     1       6.476  32.736  58.860  1.00  0.00    -0.266 OA
HETATM    4  H   UNL     1       7.011  30.241  60.710  1.00  0.00     0.169 HD
ENDROOT
BRANCH   1   5
HETATM    5  C   UNL     1       7.192  30.530  58.349  1.00  0.00     0.156 A 
HETATM    6  N   UNL     1       6.190  29.778  57.992  1.00  0.00    -0.164 NA
HETATM    7  N   UNL     1       6.420  28.728  57.142  1.00  0.00    -0.238 N 
HETATM    8  C   UNL     1       5.263  27.950  56.742  1.00  0.00     0.183 C 
HETATM    9  C   UNL     1       7.661  28.416  56.594  1.00  0.00     0.274 A 
HETATM   10  C   UNL     1       8.798  29.248  57.032  1.00  0.00     0.046 A 
HETATM   11  O   UNL     1       7.846  27.498  55.798  1.00  0.00    -0.266 OA
HETATM   12  C   UNL     1       8.582  30.300  57.916  1.00  0.00     0.016 A 
HETATM   13  C   UNL     1      10.090  28.959  56.572  1.00  0.00     0.018 A 
HETATM   14  C   UNL     1       9.671  31.059  58.361  1.00  0.00     0.015 A 
HETATM   15  C   UNL     1      10.961  30.772  57.903  1.00  0.00     0.001 A 
HETATM   16  C   UNL     1      11.170  29.725  57.007  1.00  0.00     0.001 A 
ENDBRANCH   1   5
BRANCH   2  17
HETATM   17  C   UNL     1       6.813  31.987  61.810  1.00  0.00     0.047 A 
HETATM   18  C   UNL     1       5.635  32.623  62.284  1.00  0.00     0.019 A 
HETATM   19  C   UNL     1       5.703  33.331  63.495  1.00  0.00     0.044 A 
HETATM   20  C   UNL     1       4.297  32.803  61.814  1.00  0.00     0.033 A 
HETATM   21  N   UNL     1       4.455  33.856  63.749  1.00  0.00    -0.365 N 
HETATM   22  C   UNL     1       6.872  33.447  64.255  1.00  0.00     0.030 A 
HETATM   23  H   UNL     1       4.222  34.406  64.564  1.00  0.00     0.165 HD
HETATM   24  C   UNL     1       3.599  33.552  62.733  1.00  0.00     0.089 A 
HETATM   25  C   UNL     1       8.023  32.838  63.767  1.00  0.00     0.005 A 
HETATM   26  C   UNL     1       7.996  32.131  62.569  1.00  0.00     0.030 A 
ENDBRANCH   2  17
TORSDOF 2
ENDMDL
MODEL 5
REMARK VINA RESULT:      -9.1      2.218      7.125
REMARK  2 active torsions:
REMARK  status: ('A' for Active; 'I' for Inactive)
REMARK    1  A    between atoms: C_4  and  C_5 
REMARK       I    between atoms: C_5  and  N_6 
REMARK    2  A    between atoms: N_6  and  C_7 
ROOT
HETATM    1  C   UNL     1       7.676  27.803  54.982  1.00  0.00     0.277 C 
HETATM    2  N   UNL     1       7.542  26.519  55.455  1.00  0.00    -0.321 N 
HETATM    3  O   UNL     1       8.005  28.199  53.880  1.00  0.00    -0.266 OA
HETATM    4  H   UNL     1       7.535  26.469  56.471  1.00  0.00     0.169 HD
ENDROOT
BRANCH   1   5
HETATM    5  C   UNL     1       7.420  28.822  56.096  1.00  0.00     0.156 A 
HETATM    6  N   UNL     1       6.165  29.062  56.353  1.00  0.00    -0.164 NA
HETATM    7  N   UNL     1       5.852  29.973  57.328  1.00  0.00    -0.238 N 
HETATM    8  C   UNL     1       4.441  30.169  57.603  1.00  0.00     0.183 C 
HETATM    9  C   UNL     1       6.788  30.652  58.101  1.00  0.00     0.274 A 
HETATM   10  C   UNL     1       8.206  30.405  57.779  1.00  0.00     0.046 A 
HETATM   11  O   UNL     1       6.494  31.435  59.001  1.00  0.00    -0.266 OA
HETATM   12  C   UNL     1       8.538  29.502  56.773  1.00  0.00     0.016 A 
HETATM   13  C   UNL     1       9.209  31.097  58.472  1.00  0.00     0.018 A 
HETATM   14  C   UNL     1       9.884  29.304  56.443  1.00  0.00     0.015 A 
HETATM   15  C   UNL     1      10.886  29.994  57.133  1.00  0.00     0.001 A 
HETATM   16  C   UNL     1      10.549  30.887  58.149  1.00  0.00     0.001 A 
ENDBRANCH   1   5
BRANCH   2  17
HETATM   17  C   UNL     1       7.606  25.295  54.764  1.00  0.00     0.047 A 
HETATM   18  C   UNL     1       7.888  24.018  55.317  1.00  0.00     0.019 A 
HETATM   19  C   UNL     1       7.928  22.913  54.452  1.00  0.00     0.044 A 
HETATM   20  C   UNL     1       8.217  23.500  56.609  1.00  0.00     0.033 A 
HETATM   21  N   UNL     1       8.215  21.795  55.205  1.00  0.00    -0.365 N 
HETATM   22  C   UNL     1       7.712  23.006  53.073  1.00  0.00     0.030 A 
HETATM   23  H   UNL     1       8.296  20.860  54.831  1.00  0.00     0.165 HD
HETATM   24  C   UNL     1       8.403  22.141  56.510  1.00  0.00     0.089 A 
HETATM   25  C   UNL     1       7.459  24.267  52.542  1.00  0.00     0.005 A 
HETATM   26  C   UNL     1       7.415  25.386  53.368  1.00  0.00     0.030 A 
ENDBRANCH   2  17
TORSDOF 2
ENDMDL
MODEL 6
REMARK VINA RESULT:      -9.0      4.051      7.245
REMARK  2 active torsions:
REMARK  status: ('A' for Active; 'I' for Inactive)
REMARK    1  A    between atoms: C_4  and  C_5 
REMARK       I    between atoms: C_5  and  N_6 
REMARK    2  A    between atoms: N_6  and  C_7 
ROOT
HETATM    1  C   UNL     1       7.262  25.236  52.789  1.00  0.00     0.277 C 
HETATM    2  N   UNL     1       6.801  24.546  53.884  1.00  0.00    -0.321 N 
HETATM    3  O   UNL     1       8.356  25.217  52.257  1.00  0.00    -0.266 OA
HETATM    4  H   UNL     1       5.959  24.953  54.285  1.00  0.00     0.169 HD
ENDROOT
BRANCH   1   5
HETATM    5  C   UNL     1       6.195  26.202  52.267  1.00  0.00     0.156 A 
HETATM    6  N   UNL     1       5.769  25.960  51.059  1.00  0.00    -0.164 NA
HETATM    7  N   UNL     1       4.823  26.788  50.513  1.00  0.00    -0.238 N 
HETATM    8  C   UNL     1       4.353  26.448  49.183  1.00  0.00     0.183 C 
HETATM    9  C   UNL     1       4.247  27.869  51.173  1.00  0.00     0.274 A 
HETATM   10  C   UNL     1       4.761  28.160  52.525  1.00  0.00     0.046 A 
HETATM   11  O   UNL     1       3.368  28.578  50.688  1.00  0.00    -0.266 OA
HETATM   12  C   UNL     1       5.741  27.343  53.080  1.00  0.00     0.016 A 
HETATM   13  C   UNL     1       4.275  29.268  53.232  1.00  0.00     0.018 A 
HETATM   14  C   UNL     1       6.255  27.649  54.347  1.00  0.00     0.015 A 
HETATM   15  C   UNL     1       5.771  28.755  55.052  1.00  0.00     0.001 A 
HETATM   16  C   UNL     1       4.779  29.562  54.497  1.00  0.00     0.001 A 
ENDBRANCH   1   5
BRANCH   2  17
HETATM   17  C   UNL     1       7.412  23.512  54.618  1.00  0.00     0.047 A 
HETATM   18  C   UNL     1       7.844  22.254  54.121  1.00  0.00     0.019 A 
HETATM   19  C   UNL     1       8.415  21.343  55.023  1.00  0.00     0.044 A 
HETATM   20  C   UNL     1       7.819  21.576  52.863  1.00  0.00     0.033 A 
HETATM   21  N   UNL     1       8.754  20.207  54.321  1.00  0.00    -0.365 N 
HETATM   22  C   UNL     1       8.574  21.607  56.388  1.00  0.00     0.030 A 
HETATM   23  H   UNL     1       9.192  19.392  54.729  1.00  0.00     0.165 HD
HETATM   24  C   UNL     1       8.388  20.333  53.014  1.00  0.00     0.089 A 
HETATM   25  C   UNL     1       8.125  22.834  56.866  1.00  0.00     0.005 A 
HETATM   26  C   UNL     1       7.551  23.761  56.001  1.00  0.00     0.030 A 
ENDBRANCH   2  17
TORSDOF 2
ENDMDL
MODEL 7
REMARK VINA RESULT:      -8.8      2.045      3.415
REMARK  2 active torsions:
REMARK  status: ('A' for Active; 'I' for Inactive)
REMARK    1  A    between atoms: C_4  and  C_5 
REMARK       I    between atoms: C_5  and  N_6 
REMARK    2  A    between atoms: N_6  and  C_7 
ROOT
HETATM    1  C   UNL     1       7.006  26.297  56.713  1.00  0.00     0.277 C 
HETATM    2  N   UNL     1       8.089  27.134  56.830  1.00  0.00    -0.321 N 
HETATM    3  O   UNL     1       5.863  26.436  57.109  1.00  0.00    -0.266 OA
HETATM    4  H   UNL     1       8.975  26.661  56.669  1.00  0.00     0.169 HD
ENDROOT
BRANCH   1   5
HETATM    5  C   UNL     1       7.403  24.985  56.031  1.00  0.00     0.156 A 
HETATM    6  N   UNL     1       7.702  24.007  56.837  1.00  0.00    -0.164 NA
HETATM    7  N   UNL     1       8.082  22.802  56.305  1.00  0.00    -0.238 N 
HETATM    8  C   UNL     1       8.362  21.735  57.247  1.00  0.00     0.183 C 
HETATM    9  C   UNL     1       8.143  22.528  54.942  1.00  0.00     0.274 A 
HETATM   10  C   UNL     1       7.841  23.651  54.034  1.00  0.00     0.046 A 
HETATM   11  O   UNL     1       8.444  21.431  54.477  1.00  0.00    -0.266 OA
HETATM   12  C   UNL     1       7.480  24.887  54.563  1.00  0.00     0.016 A 
HETATM   13  C   UNL     1       7.939  23.472  52.648  1.00  0.00     0.018 A 
HETATM   14  C   UNL     1       7.235  25.960  53.697  1.00  0.00     0.015 A 
HETATM   15  C   UNL     1       7.334  25.783  52.313  1.00  0.00     0.001 A 
HETATM   16  C   UNL     1       7.682  24.540  51.789  1.00  0.00     0.001 A 
ENDBRANCH   1   5
BRANCH   2  17
HETATM   17  C   UNL     1       8.157  28.455  57.312  1.00  0.00     0.047 A 
HETATM   18  C   UNL     1       9.308  29.285  57.362  1.00  0.00     0.019 A 
HETATM   19  C   UNL     1       9.174  30.574  57.902  1.00  0.00     0.044 A 
HETATM   20  C   UNL     1      10.693  29.154  57.033  1.00  0.00     0.033 A 
HETATM   21  N   UNL     1      10.407  31.187  57.847  1.00  0.00    -0.365 N 
HETATM   22  C   UNL     1       7.968  31.080  58.400  1.00  0.00     0.030 A 
HETATM   23  H   UNL     1      10.592  32.128  58.165  1.00  0.00     0.165 HD
HETATM   24  C   UNL     1      11.336  30.332  57.333  1.00  0.00     0.089 A 
HETATM   25  C   UNL     1       6.855  30.247  58.365  1.00  0.00     0.005 A 
HETATM   26  C   UNL     1       6.949  28.961  57.840  1.00  0.00     0.030 A 
ENDBRANCH   2  17
TORSDOF 2
ENDMDL
MODEL 8
REMARK VINA RESULT:      -8.8      3.438      7.253
REMARK  2 active torsions:
REMARK  status: ('A' for Active; 'I' for Inactive)
REMARK    1  A    between atoms: C_4  and  C_5 
REMARK       I    between atoms: C_5  and  N_6 
REMARK    2  A    between atoms: N_6  and  C_7 
ROOT
HETATM    1  C   UNL     1       7.466  25.333  53.556  1.00  0.00     0.277 C 
HETATM    2  N   UNL     1       7.162  24.627  54.695  1.00  0.00    -0.321 N 
HETATM    3  O   UNL     1       8.327  25.135  52.719  1.00  0.00    -0.266 OA
HETATM    4  H   UNL     1       6.598  25.160  55.354  1.00  0.00     0.169 HD
ENDROOT
BRANCH   1   5
HETATM    5  C   UNL     1       6.584  26.579  53.437  1.00  0.00     0.156 A 
HETATM    6  N   UNL     1       6.582  27.361  54.479  1.00  0.00    -0.164 NA
HETATM    7  N   UNL     1       5.807  28.491  54.458  1.00  0.00    -0.238 N 
HETATM    8  C   UNL     1       5.876  29.348  55.627  1.00  0.00     0.183 C 
HETATM    9  C   UNL     1       5.031  28.893  53.375  1.00  0.00     0.274 A 
HETATM   10  C   UNL     1       5.008  27.985  52.213  1.00  0.00     0.046 A 
HETATM   11  O   UNL     1       4.374  29.931  53.352  1.00  0.00    -0.266 OA
HETATM   12  C   UNL     1       5.769  26.820  52.233  1.00  0.00     0.016 A 
HETATM   13  C   UNL     1       4.203  28.288  51.107  1.00  0.00     0.018 A 
HETATM   14  C   UNL     1       5.710  25.940  51.145  1.00  0.00     0.015 A 
HETATM   15  C   UNL     1       4.906  26.243  50.041  1.00  0.00     0.001 A 
HETATM   16  C   UNL     1       4.156  27.417  50.020  1.00  0.00     0.001 A 
ENDBRANCH   1   5
BRANCH   2  17
HETATM   17  C   UNL     1       7.662  23.392  55.148  1.00  0.00     0.047 A 
HETATM   18  C   UNL     1       7.908  22.234  54.365  1.00  0.00     0.019 A 
HETATM   19  C   UNL     1       8.391  21.085  55.011  1.00  0.00     0.044 A 
HETATM   20  C   UNL     1       7.747  21.859  52.995  1.00  0.00     0.033 A 
HETATM   21  N   UNL     1       8.553  20.100  54.061  1.00  0.00    -0.365 N 
HETATM   22  C   UNL     1       8.636  21.020  56.387  1.00  0.00     0.030 A 
HETATM   23  H   UNL     1       8.897  19.170  54.255  1.00  0.00     0.165 HD
HETATM   24  C   UNL     1       8.155  20.554  52.839  1.00  0.00     0.089 A 
HETATM   25  C   UNL     1       8.368  22.155  57.146  1.00  0.00     0.005 A 
HETATM   26  C   UNL     1       7.885  23.312  56.540  1.00  0.00     0.030 A 
ENDBRANCH   2  17
TORSDOF 2
ENDMDL
MODEL 9
REMARK VINA RESULT:      -8.8      1.494      2.518
REMARK  2 active torsions:
REMARK  status: ('A' for Active; 'I' for Inactive)
REMARK    1  A    between atoms: C_4  and  C_5 
REMARK       I    between atoms: C_5  and  N_6 
REMARK    2  A    between atoms: N_6  and  C_7 
ROOT
HETATM    1  C   UNL     1       7.525  26.115  56.690  1.00  0.00     0.277 C 
HETATM    2  N   UNL     1       8.026  27.332  56.294  1.00  0.00    -0.321 N 
HETATM    3  O   UNL     1       7.098  25.760  57.773  1.00  0.00    -0.266 OA
HETATM    4  H   UNL     1       8.568  27.277  55.435  1.00  0.00     0.169 HD
ENDROOT
BRANCH   1   5
HETATM    5  C   UNL     1       7.620  25.092  55.555  1.00  0.00     0.156 A 
HETATM    6  N   UNL     1       7.366  25.557  54.364  1.00  0.00    -0.164 NA
HETATM    7  N   UNL     1       7.417  24.702  53.294  1.00  0.00    -0.238 N 
HETATM    8  C   UNL     1       7.169  25.281  51.988  1.00  0.00     0.183 C 
HETATM    9  C   UNL     1       7.756  23.355  53.379  1.00  0.00     0.274 A 
HETATM   10  C   UNL     1       8.005  22.826  54.733  1.00  0.00     0.046 A 
HETATM   11  O   UNL     1       7.840  22.608  52.407  1.00  0.00    -0.266 OA
HETATM   12  C   UNL     1       7.930  23.679  55.831  1.00  0.00     0.016 A 
HETATM   13  C   UNL     1       8.293  21.466  54.909  1.00  0.00     0.018 A 
HETATM   14  C   UNL     1       8.125  23.162  57.118  1.00  0.00     0.015 A 
HETATM   15  C   UNL     1       8.412  21.804  57.294  1.00  0.00     0.001 A 
HETATM   16  C   UNL     1       8.499  20.957  56.190  1.00  0.00     0.001 A 
ENDBRANCH   1   5
BRANCH   2  17
HETATM   17  C   UNL     1       8.056  28.559  56.983  1.00  0.00     0.047 A 
HETATM   18  C   UNL     1       9.197  29.365  57.238  1.00  0.00     0.019 A 
HETATM   19  C   UNL     1       9.022  30.553  57.966  1.00  0.00     0.044 A 
HETATM   20  C   UNL     1      10.600  29.280  56.982  1.00  0.00     0.033 A 
HETATM   21  N   UNL     1      10.252  31.159  58.088  1.00  0.00    -0.365 N 
HETATM   22  C   UNL     1       7.784  30.979  58.459  1.00  0.00     0.030 A 
HETATM   23  H   UNL     1      10.412  32.038  58.562  1.00  0.00     0.165 HD
HETATM   24  C   UNL     1      11.217  30.393  57.506  1.00  0.00     0.089 A 
HETATM   25  C   UNL     1       6.679  30.168  58.221  1.00  0.00     0.005 A 
HETATM   26  C   UNL     1       6.814  28.982  57.505  1.00  0.00     0.030 A 
ENDBRANCH   2  17
TORSDOF 2
ENDMDL
MODEL 10
REMARK VINA RESULT:      -8.8      4.078      6.744
REMARK  2 active torsions:
REMARK  status: ('A' for Active; 'I' for Inactive)
REMARK    1  A    between atoms: C_4  and  C_5 
REMARK       I    between atoms: C_5  and  N_6 
REMARK    2  A    between atoms: N_6  and  C_7 
ROOT
HETATM    1  C   UNL     1       5.263  25.378  52.657  1.00  0.00     0.277 C 
HETATM    2  N   UNL     1       6.625  25.303  52.824  1.00  0.00    -0.321 N 
HETATM    3  O   UNL     1       4.387  24.618  53.026  1.00  0.00    -0.266 OA
HETATM    4  H   UNL     1       7.138  25.904  52.183  1.00  0.00     0.169 HD
ENDROOT
BRANCH   1   5
HETATM    5  C   UNL     1       4.886  26.595  51.808  1.00  0.00     0.156 A 
HETATM    6  N   UNL     1       5.003  26.433  50.521  1.00  0.00    -0.164 NA
HETATM    7  N   UNL     1       4.698  27.481  49.691  1.00  0.00    -0.238 N 
HETATM    8  C   UNL     1       4.804  27.233  48.266  1.00  0.00     0.183 C 
HETATM    9  C   UNL     1       4.233  28.719  50.125  1.00  0.00     0.274 A 
HETATM   10  C   UNL     1       4.139  28.908  51.585  1.00  0.00     0.046 A 
HETATM   11  O   UNL     1       3.921  29.636  49.370  1.00  0.00    -0.266 OA
HETATM   12  C   UNL     1       4.472  27.860  52.439  1.00  0.00     0.016 A 
HETATM   13  C   UNL     1       3.737  30.147  52.103  1.00  0.00     0.018 A 
HETATM   14  C   UNL     1       4.422  28.060  53.824  1.00  0.00     0.015 A 
HETATM   15  C   UNL     1       4.021  29.296  54.342  1.00  0.00     0.001 A 
HETATM   16  C   UNL     1       3.676  30.337  53.483  1.00  0.00     0.001 A 
ENDBRANCH   1   5
BRANCH   2  17
HETATM   17  C   UNL     1       7.389  24.404  53.593  1.00  0.00     0.047 A 
HETATM   18  C   UNL     1       7.770  24.557  54.952  1.00  0.00     0.019 A 
HETATM   19  C   UNL     1       8.557  23.552  55.539  1.00  0.00     0.044 A 
HETATM   20  C   UNL     1       7.605  25.549  55.967  1.00  0.00     0.033 A 
HETATM   21  N   UNL     1       8.799  23.912  56.846  1.00  0.00    -0.365 N 
HETATM   22  C   UNL     1       8.990  22.413  54.851  1.00  0.00     0.030 A 
HETATM   23  H   UNL     1       9.336  23.361  57.501  1.00  0.00     0.165 HD
HETATM   24  C   UNL     1       8.236  25.125  57.113  1.00  0.00     0.089 A 
HETATM   25  C   UNL     1       8.628  22.289  53.514  1.00  0.00     0.005 A 
HETATM   26  C   UNL     1       7.852  23.266  52.898  1.00  0.00     0.030 A 
ENDBRANCH   2  17
TORSDOF 2
ENDMDL
