MODEL 1
REMARK VINA RESULT:     -11.2      0.000      0.000
REMARK  6 active torsions:
REMARK  status: ('A' for Active; 'I' for Inactive)
REMARK    1  A    between atoms: C_2  and  C_3 
REMARK    2  A    between atoms: N_6  and  C_8 
REMARK    3  A    between atoms: C_8  and  C_9 
REMARK    4  A    between atoms: C_12  and  C_13 
REMARK    5  A    between atoms: C_13  and  O_14 
REMARK    6  A    between atoms: N_24  and  C_25 
ROOT
HETATM    1  C   UNL     1       4.843  28.863  52.774  1.00  0.00     0.049 C 
HETATM    2  C   UNL     1       4.858  27.840  53.911  1.00  0.00     0.116 A 
HETATM    3  N   UNL     1       4.318  26.580  53.462  1.00  0.00    -0.324 N 
HETATM    4  C   UNL     1       5.282  25.593  53.404  1.00  0.00     0.326 A 
HETATM    5  O   UNL     1       5.029  24.488  52.962  1.00  0.00    -0.247 OA
HETATM    6  N   UNL     1       6.442  26.074  53.921  1.00  0.00    -0.263 N 
HETATM    7  C   UNL     1       6.318  27.415  54.171  1.00  0.00     0.256 A 
HETATM    8  O   UNL     1       7.193  28.168  54.573  1.00  0.00    -0.270 OA
HETATM    9  H   UNL     1       3.558  26.477  52.797  1.00  0.00     0.165 HD
ENDROOT
BRANCH   2  10
HETATM   10  C   UNL     1       4.195  28.364  55.225  1.00  0.00     0.026 C 
HETATM   11  C   UNL     1       4.277  29.889  55.439  1.00  0.00     0.035 C 
HETATM   12  C   UNL     1       5.642  30.388  55.887  1.00  0.00     0.235 C 
HETATM   13  N   UNL     1       6.087  29.662  57.133  1.00  0.00    -0.067 N 
HETATM   14  H   UNL     1       5.441  29.942  57.883  1.00  0.00     0.280 HD
HETATM   15  C   UNL     1       6.039  28.160  57.011  1.00  0.00     0.235 C 
HETATM   16  C   UNL     1       4.680  27.683  56.518  1.00  0.00     0.035 C 
BRANCH  13  17
HETATM   17  C   UNL     1       7.476  30.098  57.590  1.00  0.00     0.273 C 
BRANCH  17  18
HETATM   18  C   UNL     1       7.493  30.834  58.904  1.00  0.00    -0.033 A 
HETATM   19  C   UNL     1       8.414  30.499  59.905  1.00  0.00     0.010 A 
HETATM   20  C   UNL     1       8.375  31.151  61.144  1.00  0.00     0.018 A 
HETATM   21  C   UNL     1       7.416  32.140  61.400  1.00  0.00     0.039 A 
HETATM   22  C   UNL     1       6.506  32.486  60.396  1.00  0.00     0.018 A 
HETATM   23  C   UNL     1       6.545  31.841  59.158  1.00  0.00     0.010 A 
BRANCH  21  24
HETATM   24  C   UNL     1       7.403  32.777  62.746  1.00  0.00     0.292 C 
HETATM   25  O   UNL     1       8.308  32.648  63.552  1.00  0.00    -0.259 OA
BRANCH  24  26
HETATM   26  O   UNL     1       6.252  33.469  62.933  1.00  0.00    -0.323 OA
HETATM   27  C   UNL     1       5.341  32.847  63.843  1.00  0.00     0.213 C 
ENDBRANCH  24  26
ENDBRANCH  21  24
ENDBRANCH  17  18
ENDBRANCH  13  17
ENDBRANCH   2  10
BRANCH   6  28
HETATM   28  C   UNL     1       7.713  25.346  54.027  1.00  0.00     0.106 C 
HETATM   29  C   UNL     1       7.836  24.526  55.335  1.00  0.00     0.065 C 
HETATM   30  C   UNL     1       7.798  23.111  54.862  1.00  0.00    -0.050 A 
HETATM   31  C   UNL     1       7.858  23.030  53.470  1.00  0.00    -0.050 A 
HETATM   32  C   UNL     1       7.758  21.965  55.641  1.00  0.00     0.007 A 
HETATM   33  C   UNL     1       7.947  24.383  52.838  1.00  0.00     0.065 C 
HETATM   34  C   UNL     1       7.878  21.803  52.827  1.00  0.00     0.007 A 
HETATM   35  C   UNL     1       7.831  20.643  53.603  1.00  0.00     0.001 A 
HETATM   36  C   UNL     1       7.771  20.724  55.002  1.00  0.00     0.001 A 
ENDBRANCH   6  28
TORSDOF 6
ENDMDL
MODEL 2
REMARK VINA RESULT:     -10.7      2.164     10.357
REMARK  6 active torsions:
REMARK  status: ('A' for Active; 'I' for Inactive)
REMARK    1  A    between atoms: C_2  and  C_3 
REMARK    2  A    between atoms: N_6  and  C_8 
REMARK    3  A    between atoms: C_8  and  C_9 
REMARK    4  A    between atoms: C_12  and  C_13 
REMARK    5  A    between atoms: C_13  and  O_14 
REMARK    6  A    between atoms: N_24  and  C_25 
ROOT
HETATM    1  C   UNL     1       8.121  29.472  56.162  1.00  0.00     0.049 C 
HETATM    2  C   UNL     1       7.297  29.376  57.447  1.00  0.00     0.116 A 
HETATM    3  N   UNL     1       8.153  29.115  58.578  1.00  0.00    -0.324 N 
HETATM    4  C   UNL     1       8.212  30.190  59.444  1.00  0.00     0.326 A 
HETATM    5  O   UNL     1       8.956  30.186  60.407  1.00  0.00    -0.247 OA
HETATM    6  N   UNL     1       7.330  31.138  59.035  1.00  0.00    -0.263 N 
HETATM    7  C   UNL     1       6.802  30.789  57.820  1.00  0.00     0.256 A 
HETATM    8  O   UNL     1       6.031  31.450  57.141  1.00  0.00    -0.270 OA
HETATM    9  H   UNL     1       8.986  28.536  58.555  1.00  0.00     0.165 HD
ENDROOT
BRANCH   2  10
HETATM   10  C   UNL     1       6.095  28.384  57.338  1.00  0.00     0.026 C 
HETATM   11  C   UNL     1       6.462  26.891  57.460  1.00  0.00     0.035 C 
HETATM   12  C   UNL     1       7.107  26.299  56.217  1.00  0.00     0.235 C 
HETATM   13  N   UNL     1       6.231  26.524  55.009  1.00  0.00    -0.067 N 
HETATM   14  H   UNL     1       5.378  25.969  55.157  1.00  0.00     0.280 HD
HETATM   15  C   UNL     1       5.824  27.963  54.812  1.00  0.00     0.235 C 
HETATM   16  C   UNL     1       5.221  28.550  56.081  1.00  0.00     0.035 C 
BRANCH  13  17
HETATM   17  C   UNL     1       6.864  25.988  53.728  1.00  0.00     0.273 C 
BRANCH  17  18
HETATM   18  C   UNL     1       7.216  24.525  53.776  1.00  0.00    -0.033 A 
HETATM   19  C   UNL     1       6.911  23.746  54.900  1.00  0.00     0.010 A 
HETATM   20  C   UNL     1       7.301  22.403  54.954  1.00  0.00     0.018 A 
HETATM   21  C   UNL     1       8.005  21.822  53.891  1.00  0.00     0.039 A 
HETATM   22  C   UNL     1       8.298  22.594  52.762  1.00  0.00     0.018 A 
HETATM   23  C   UNL     1       7.905  23.933  52.703  1.00  0.00     0.010 A 
BRANCH  21  24
HETATM   24  C   UNL     1       8.422  20.398  54.016  1.00  0.00     0.292 C 
HETATM   25  O   UNL     1       8.736  19.709  53.060  1.00  0.00    -0.259 OA
BRANCH  24  26
HETATM   26  O   UNL     1       8.367  19.998  55.310  1.00  0.00    -0.323 OA
HETATM   27  C   UNL     1       9.553  20.283  56.057  1.00  0.00     0.213 C 
ENDBRANCH  24  26
ENDBRANCH  21  24
ENDBRANCH  17  18
ENDBRANCH  13  17
ENDBRANCH   2  10
BRANCH   6  28
HETATM   28  C   UNL     1       7.099  32.441  59.672  1.00  0.00     0.106 C 
HETATM   29  C   UNL     1       5.734  32.529  60.398  1.00  0.00     0.065 C 
HETATM   30  C   UNL     1       6.111  32.605  61.841  1.00  0.00    -0.050 A 
HETATM   31  C   UNL     1       7.489  32.759  62.005  1.00  0.00    -0.050 A 
HETATM   32  C   UNL     1       5.261  32.583  62.935  1.00  0.00     0.007 A 
HETATM   33  C   UNL     1       8.204  32.807  60.693  1.00  0.00     0.065 C 
HETATM   34  C   UNL     1       8.045  32.892  63.267  1.00  0.00     0.007 A 
HETATM   35  C   UNL     1       7.197  32.864  64.376  1.00  0.00     0.001 A 
HETATM   36  C   UNL     1       5.812  32.710  64.210  1.00  0.00     0.001 A 
ENDBRANCH   6  28
TORSDOF 6
ENDMDL
MODEL 3
REMARK VINA RESULT:     -10.3      1.672      2.418
REMARK  6 active torsions:
REMARK  status: ('A' for Active; 'I' for Inactive)
REMARK    1  A    between atoms: C_2  and  C_3 
REMARK    2  A    between atoms: N_6  and  C_8 
REMARK    3  A    between atoms: C_8  and  C_9 
REMARK    4  A    between atoms: C_12  and  C_13 
REMARK    5  A    between atoms: C_13  and  O_14 
REMARK    6  A    between atoms: N_24  and  C_25 
ROOT
HETATM    1  C   UNL     1       8.511  28.971  55.582  1.00  0.00     0.049 C 
HETATM    2  C   UNL     1       7.130  28.327  55.446  1.00  0.00     0.116 A 
HETATM    3  N   UNL     1       6.385  28.949  54.379  1.00  0.00    -0.324 N 
HETATM    4  C   UNL     1       6.194  28.095  53.312  1.00  0.00     0.326 A 
HETATM    5  O   UNL     1       5.665  28.475  52.284  1.00  0.00    -0.247 OA
HETATM    6  N   UNL     1       6.656  26.861  53.643  1.00  0.00    -0.263 N 
HETATM    7  C   UNL     1       7.303  26.915  54.849  1.00  0.00     0.256 A 
HETATM    8  O   UNL     1       7.893  26.000  55.404  1.00  0.00    -0.270 OA
HETATM    9  H   UNL     1       6.429  29.934  54.138  1.00  0.00     0.165 HD
ENDROOT
BRANCH   2  10
HETATM   10  C   UNL     1       6.343  28.261  56.794  1.00  0.00     0.026 C 
HETATM   11  C   UNL     1       5.404  29.454  57.066  1.00  0.00     0.035 C 
HETATM   12  C   UNL     1       6.114  30.725  57.504  1.00  0.00     0.235 C 
HETATM   13  N   UNL     1       6.981  30.458  58.710  1.00  0.00    -0.067 N 
HETATM   14  H   UNL     1       6.345  30.228  59.485  1.00  0.00     0.280 HD
HETATM   15  C   UNL     1       7.934  29.303  58.530  1.00  0.00     0.235 C 
HETATM   16  C   UNL     1       7.211  28.052  58.049  1.00  0.00     0.035 C 
BRANCH  13  17
HETATM   17  C   UNL     1       7.751  31.698  59.154  1.00  0.00     0.273 C 
BRANCH  17  18
HETATM   18  C   UNL     1       7.429  32.162  60.549  1.00  0.00    -0.033 A 
HETATM   19  C   UNL     1       8.359  32.023  61.588  1.00  0.00     0.010 A 
HETATM   20  C   UNL     1       8.019  32.401  62.892  1.00  0.00     0.018 A 
HETATM   21  C   UNL     1       6.748  32.917  63.178  1.00  0.00     0.039 A 
HETATM   22  C   UNL     1       5.824  33.070  62.140  1.00  0.00     0.018 A 
HETATM   23  C   UNL     1       6.161  32.698  60.836  1.00  0.00     0.010 A 
BRANCH  21  24
HETATM   24  C   UNL     1       6.432  33.274  64.589  1.00  0.00     0.292 C 
HETATM   25  O   UNL     1       7.273  33.667  65.380  1.00  0.00    -0.259 OA
BRANCH  24  26
HETATM   26  O   UNL     1       5.118  33.068  64.848  1.00  0.00    -0.323 OA
HETATM   27  C   UNL     1       4.617  33.831  65.949  1.00  0.00     0.213 C 
ENDBRANCH  24  26
ENDBRANCH  21  24
ENDBRANCH  17  18
ENDBRANCH  13  17
ENDBRANCH   2  10
BRANCH   6  28
HETATM   28  C   UNL     1       6.655  25.672  52.779  1.00  0.00     0.106 C 
HETATM   29  C   UNL     1       8.078  25.188  52.410  1.00  0.00     0.065 C 
HETATM   30  C   UNL     1       8.198  23.883  53.126  1.00  0.00    -0.050 A 
HETATM   31  C   UNL     1       6.982  23.489  53.686  1.00  0.00    -0.050 A 
HETATM   32  C   UNL     1       9.323  23.079  53.226  1.00  0.00     0.007 A 
HETATM   33  C   UNL     1       5.896  24.481  53.412  1.00  0.00     0.065 C 
HETATM   34  C   UNL     1       6.865  22.284  54.360  1.00  0.00     0.007 A 
HETATM   35  C   UNL     1       7.994  21.471  54.473  1.00  0.00     0.001 A 
HETATM   36  C   UNL     1       9.216  21.867  53.909  1.00  0.00     0.001 A 
ENDBRANCH   6  28
TORSDOF 6
ENDMDL
MODEL 4
REMARK VINA RESULT:     -10.3      2.782      9.746
REMARK  6 active torsions:
REMARK  status: ('A' for Active; 'I' for Inactive)
REMARK    1  A    between atoms: C_2  and  C_3 
REMARK    2  A    between atoms: N_6  and  C_8 
REMARK    3  A    between atoms: C_8  and  C_9 
REMARK    4  A    between atoms: C_12  and  C_13 
REMARK    5  A    between atoms: C_13  and  O_14 
REMARK    6  A    between atoms: N_24  and  C_25 
ROOT
HETATM    1  C   UNL     1       7.385  28.062  55.369  1.00  0.00     0.049 C 
HETATM    2  C   UNL     1       7.781  28.108  56.845  1.00  0.00     0.116 A 
HETATM    3  N   UNL     1       9.205  28.295  56.981  1.00  0.00    -0.324 N 
HETATM    4  C   UNL     1       9.518  29.532  57.508  1.00  0.00     0.326 A 
HETATM    5  O   UNL     1      10.673  29.902  57.610  1.00  0.00    -0.247 OA
HETATM    6  N   UNL     1       8.372  30.163  57.872  1.00  0.00    -0.263 N 
HETATM    7  C   UNL     1       7.289  29.441  57.446  1.00  0.00     0.256 A 
HETATM    8  O   UNL     1       6.113  29.757  57.548  1.00  0.00    -0.270 OA
HETATM    9  H   UNL     1       9.904  27.904  56.357  1.00  0.00     0.165 HD
ENDROOT
BRANCH   2  10
HETATM   10  C   UNL     1       7.235  26.898  57.670  1.00  0.00     0.026 C 
HETATM   11  C   UNL     1       8.183  25.686  57.767  1.00  0.00     0.035 C 
HETATM   12  C   UNL     1       8.250  24.839  56.505  1.00  0.00     0.235 C 
HETATM   13  N   UNL     1       6.869  24.389  56.097  1.00  0.00    -0.067 N 
HETATM   14  H   UNL     1       6.539  23.749  56.831  1.00  0.00     0.280 HD
HETATM   15  C   UNL     1       5.873  25.516  55.977  1.00  0.00     0.235 C 
HETATM   16  C   UNL     1       5.853  26.379  57.232  1.00  0.00     0.035 C 
BRANCH  13  17
HETATM   17  C   UNL     1       6.884  23.576  54.806  1.00  0.00     0.273 C 
BRANCH  17  18
HETATM   18  C   UNL     1       6.461  24.346  53.583  1.00  0.00    -0.033 A 
HETATM   19  C   UNL     1       7.386  25.101  52.851  1.00  0.00     0.010 A 
HETATM   20  C   UNL     1       6.964  25.862  51.754  1.00  0.00     0.018 A 
HETATM   21  C   UNL     1       5.615  25.882  51.377  1.00  0.00     0.039 A 
HETATM   22  C   UNL     1       4.692  25.116  52.098  1.00  0.00     0.018 A 
HETATM   23  C   UNL     1       5.112  24.353  53.190  1.00  0.00     0.010 A 
BRANCH  21  24
HETATM   24  C   UNL     1       5.218  26.733  50.221  1.00  0.00     0.292 C 
HETATM   25  O   UNL     1       5.546  27.902  50.111  1.00  0.00    -0.259 OA
BRANCH  24  26
HETATM   26  O   UNL     1       4.439  26.033  49.361  1.00  0.00    -0.323 OA
HETATM   27  C   UNL     1       3.903  26.817  48.292  1.00  0.00     0.213 C 
ENDBRANCH  24  26
ENDBRANCH  21  24
ENDBRANCH  17  18
ENDBRANCH  13  17
ENDBRANCH   2  10
BRANCH   6  28
HETATM   28  C   UNL     1       8.268  31.506  58.458  1.00  0.00     0.106 C 
HETATM   29  C   UNL     1       6.885  31.786  59.093  1.00  0.00     0.065 C 
HETATM   30  C   UNL     1       7.183  31.866  60.554  1.00  0.00    -0.050 A 
HETATM   31  C   UNL     1       8.556  31.854  60.801  1.00  0.00    -0.050 A 
HETATM   32  C   UNL     1       6.273  31.988  61.593  1.00  0.00     0.007 A 
HETATM   33  C   UNL     1       9.348  31.768  59.535  1.00  0.00     0.065 C 
HETATM   34  C   UNL     1       9.050  31.962  62.091  1.00  0.00     0.007 A 
HETATM   35  C   UNL     1       8.141  32.078  63.145  1.00  0.00     0.001 A 
HETATM   36  C   UNL     1       6.760  32.091  62.897  1.00  0.00     0.001 A 
ENDBRANCH   6  28
TORSDOF 6
ENDMDL
MODEL 5
REMARK VINA RESULT:     -10.1      2.385      4.673
REMARK  6 active torsions:
REMARK  status: ('A' for Active; 'I' for Inactive)
REMARK    1  A    between atoms: C_2  and  C_3 
REMARK    2  A    between atoms: N_6  and  C_8 
REMARK    3  A    between atoms: C_8  and  C_9 
REMARK    4  A    between atoms: C_12  and  C_13 
REMARK    5  A    between atoms: C_13  and  O_14 
REMARK    6  A    between atoms: N_24  and  C_25 
ROOT
HETATM    1  C   UNL     1       4.000  30.603  58.234  1.00  0.00     0.049 C 
HETATM    2  C   UNL     1       5.410  30.534  57.645  1.00  0.00     0.116 A 
HETATM    3  N   UNL     1       6.022  29.265  57.949  1.00  0.00    -0.324 N 
HETATM    4  C   UNL     1       6.193  28.487  56.821  1.00  0.00     0.326 A 
HETATM    5  O   UNL     1       6.612  27.347  56.896  1.00  0.00    -0.247 OA
HETATM    6  N   UNL     1       5.850  29.213  55.725  1.00  0.00    -0.263 N 
HETATM    7  C   UNL     1       5.296  30.404  56.112  1.00  0.00     0.256 A 
HETATM    8  O   UNL     1       4.820  31.260  55.381  1.00  0.00    -0.270 OA
HETATM    9  H   UNL     1       5.888  28.746  58.811  1.00  0.00     0.165 HD
ENDROOT
BRANCH   2  10
HETATM   10  C   UNL     1       6.301  31.760  58.028  1.00  0.00     0.026 C 
HETATM   11  C   UNL     1       7.732  31.413  58.487  1.00  0.00     0.035 C 
HETATM   12  C   UNL     1       7.821  30.863  59.902  1.00  0.00     0.235 C 
HETATM   13  N   UNL     1       7.175  31.812  60.881  1.00  0.00    -0.067 N 
HETATM   14  H   UNL     1       7.751  32.664  60.889  1.00  0.00     0.280 HD
HETATM   15  C   UNL     1       5.767  32.205  60.508  1.00  0.00     0.235 C 
HETATM   16  C   UNL     1       5.690  32.711  59.073  1.00  0.00     0.035 C 
BRANCH  13  17
HETATM   17  C   UNL     1       7.198  31.275  62.309  1.00  0.00     0.273 C 
BRANCH  17  18
HETATM   18  C   UNL     1       6.698  32.246  63.344  1.00  0.00    -0.033 A 
HETATM   19  C   UNL     1       7.591  32.990  64.126  1.00  0.00     0.010 A 
HETATM   20  C   UNL     1       7.110  33.841  65.127  1.00  0.00     0.018 A 
HETATM   21  C   UNL     1       5.734  33.957  65.366  1.00  0.00     0.039 A 
HETATM   22  C   UNL     1       4.840  33.225  64.577  1.00  0.00     0.018 A 
HETATM   23  C   UNL     1       5.317  32.379  63.574  1.00  0.00     0.010 A 
BRANCH  21  24
HETATM   24  C   UNL     1       5.282  34.854  66.465  1.00  0.00     0.292 C 
HETATM   25  O   UNL     1       5.047  36.039  66.303  1.00  0.00    -0.259 OA
BRANCH  24  26
HETATM   26  O   UNL     1       5.207  34.173  67.634  1.00  0.00    -0.323 OA
HETATM   27  C   UNL     1       6.158  34.594  68.615  1.00  0.00     0.213 C 
ENDBRANCH  24  26
ENDBRANCH  21  24
ENDBRANCH  17  18
ENDBRANCH  13  17
ENDBRANCH   2  10
BRANCH   6  28
HETATM   28  C   UNL     1       5.873  28.747  54.332  1.00  0.00     0.106 C 
HETATM   29  C   UNL     1       7.240  28.155  53.912  1.00  0.00     0.065 C 
HETATM   30  C   UNL     1       6.948  26.703  53.725  1.00  0.00    -0.050 A 
HETATM   31  C   UNL     1       5.580  26.438  53.800  1.00  0.00    -0.050 A 
HETATM   32  C   UNL     1       7.856  25.690  53.457  1.00  0.00     0.007 A 
HETATM   33  C   UNL     1       4.786  27.682  54.045  1.00  0.00     0.065 C 
HETATM   34  C   UNL     1       5.090  25.156  53.611  1.00  0.00     0.007 A 
HETATM   35  C   UNL     1       5.997  24.128  53.348  1.00  0.00     0.001 A 
HETATM   36  C   UNL     1       7.373  24.394  53.271  1.00  0.00     0.001 A 
ENDBRANCH   6  28
TORSDOF 6
ENDMDL
MODEL 6
REMARK VINA RESULT:     -10.0      2.316     10.171
REMARK  6 active torsions:
REMARK  status: ('A' for Active; 'I' for Inactive)
REMARK    1  A    between atoms: C_2  and  C_3 
REMARK    2  A    between atoms: N_6  and  C_8 
REMARK    3  A    between atoms: C_8  and  C_9 
REMARK    4  A    between atoms: C_12  and  C_13 
REMARK    5  A    between atoms: C_13  and  O_14 
REMARK    6  A    between atoms: N_24  and  C_25 
ROOT
HETATM    1  C   UNL     1       5.020  31.146  54.994  1.00  0.00     0.049 C 
HETATM    2  C   UNL     1       4.753  30.430  56.319  1.00  0.00     0.116 A 
HETATM    3  N   UNL     1       5.934  30.442  57.146  1.00  0.00    -0.324 N 
HETATM    4  C   UNL     1       5.776  31.234  58.266  1.00  0.00     0.326 A 
HETATM    5  O   UNL     1       6.698  31.436  59.033  1.00  0.00    -0.247 OA
HETATM    6  N   UNL     1       4.490  31.667  58.325  1.00  0.00    -0.263 N 
HETATM    7  C   UNL     1       3.828  31.316  57.179  1.00  0.00     0.256 A 
HETATM    8  O   UNL     1       2.680  31.607  56.878  1.00  0.00    -0.270 OA
HETATM    9  H   UNL     1       6.886  30.372  56.801  1.00  0.00     0.165 HD
ENDROOT
BRANCH   2  10
HETATM   10  C   UNL     1       4.138  29.004  56.139  1.00  0.00     0.026 C 
HETATM   11  C   UNL     1       4.859  27.876  56.904  1.00  0.00     0.035 C 
HETATM   12  C   UNL     1       6.168  27.428  56.273  1.00  0.00     0.235 C 
HETATM   13  N   UNL     1       5.953  27.027  54.834  1.00  0.00    -0.067 N 
HETATM   14  H   UNL     1       5.361  26.186  54.848  1.00  0.00     0.280 HD
HETATM   15  C   UNL     1       5.251  28.078  54.009  1.00  0.00     0.235 C 
HETATM   16  C   UNL     1       3.966  28.546  54.679  1.00  0.00     0.035 C 
BRANCH  13  17
HETATM   17  C   UNL     1       7.251  26.616  54.147  1.00  0.00     0.273 C 
BRANCH  17  18
HETATM   18  C   UNL     1       7.483  25.130  54.099  1.00  0.00    -0.033 A 
HETATM   19  C   UNL     1       7.899  24.504  52.916  1.00  0.00     0.010 A 
HETATM   20  C   UNL     1       8.049  23.113  52.871  1.00  0.00     0.018 A 
HETATM   21  C   UNL     1       7.781  22.329  54.001  1.00  0.00     0.039 A 
HETATM   22  C   UNL     1       7.380  22.953  55.186  1.00  0.00     0.018 A 
HETATM   23  C   UNL     1       7.234  24.342  55.236  1.00  0.00     0.010 A 
BRANCH  21  24
HETATM   24  C   UNL     1       7.928  20.851  53.885  1.00  0.00     0.292 C 
HETATM   25  O   UNL     1       8.031  20.274  52.816  1.00  0.00    -0.259 OA
BRANCH  24  26
HETATM   26  O   UNL     1       7.897  20.274  55.111  1.00  0.00    -0.323 OA
HETATM   27  C   UNL     1       9.185  20.120  55.713  1.00  0.00     0.213 C 
ENDBRANCH  24  26
ENDBRANCH  21  24
ENDBRANCH  17  18
ENDBRANCH  13  17
ENDBRANCH   2  10
BRANCH   6  28
HETATM   28  C   UNL     1       3.916  32.546  59.352  1.00  0.00     0.106 C 
HETATM   29  C   UNL     1       3.614  31.812  60.681  1.00  0.00     0.065 C 
HETATM   30  C   UNL     1       4.600  32.400  61.636  1.00  0.00    -0.050 A 
HETATM   31  C   UNL     1       5.277  33.483  61.074  1.00  0.00    -0.050 A 
HETATM   32  C   UNL     1       4.838  32.011  62.945  1.00  0.00     0.007 A 
HETATM   33  C   UNL     1       4.827  33.756  59.674  1.00  0.00     0.065 C 
HETATM   34  C   UNL     1       6.209  34.200  61.808  1.00  0.00     0.007 A 
HETATM   35  C   UNL     1       6.461  33.811  63.125  1.00  0.00     0.001 A 
HETATM   36  C   UNL     1       5.779  32.723  63.690  1.00  0.00     0.001 A 
ENDBRANCH   6  28
TORSDOF 6
ENDMDL
MODEL 7
REMARK VINA RESULT:      -9.8      6.338     10.407
REMARK  6 active torsions:
REMARK  status: ('A' for Active; 'I' for Inactive)
REMARK    1  A    between atoms: C_2  and  C_3 
REMARK    2  A    between atoms: N_6  and  C_8 
REMARK    3  A    between atoms: C_8  and  C_9 
REMARK    4  A    between atoms: C_12  and  C_13 
REMARK    5  A    between atoms: C_13  and  O_14 
REMARK    6  A    between atoms: N_24  and  C_25 
ROOT
HETATM    1  C   UNL     1       5.230  27.698  47.595  1.00  0.00     0.049 C 
HETATM    2  C   UNL     1       4.838  28.496  48.840  1.00  0.00     0.116 A 
HETATM    3  N   UNL     1       5.997  29.132  49.418  1.00  0.00    -0.324 N 
HETATM    4  C   UNL     1       5.951  30.506  49.294  1.00  0.00     0.326 A 
HETATM    5  O   UNL     1       6.884  31.204  49.642  1.00  0.00    -0.247 OA
HETATM    6  N   UNL     1       4.748  30.865  48.774  1.00  0.00    -0.263 N 
HETATM    7  C   UNL     1       4.054  29.748  48.395  1.00  0.00     0.256 A 
HETATM    8  O   UNL     1       2.969  29.716  47.832  1.00  0.00    -0.270 OA
HETATM    9  H   UNL     1       6.930  28.733  49.435  1.00  0.00     0.165 HD
ENDROOT
BRANCH   2  10
HETATM   10  C   UNL     1       4.009  27.665  49.871  1.00  0.00     0.026 C 
HETATM   11  C   UNL     1       3.893  28.289  51.277  1.00  0.00     0.035 C 
HETATM   12  C   UNL     1       5.147  28.158  52.127  1.00  0.00     0.235 C 
HETATM   13  N   UNL     1       5.566  26.712  52.232  1.00  0.00    -0.067 N 
HETATM   14  H   UNL     1       4.830  26.230  52.765  1.00  0.00     0.280 HD
HETATM   15  C   UNL     1       5.705  26.021  50.898  1.00  0.00     0.235 C 
HETATM   16  C   UNL     1       4.457  26.202  50.043  1.00  0.00     0.035 C 
BRANCH  13  17
HETATM   17  C   UNL     1       6.850  26.539  53.038  1.00  0.00     0.273 C 
BRANCH  17  18
HETATM   18  C   UNL     1       7.186  25.110  53.370  1.00  0.00    -0.033 A 
HETATM   19  C   UNL     1       7.770  24.266  52.416  1.00  0.00     0.010 A 
HETATM   20  C   UNL     1       8.018  22.923  52.721  1.00  0.00     0.018 A 
HETATM   21  C   UNL     1       7.681  22.403  53.978  1.00  0.00     0.039 A 
HETATM   22  C   UNL     1       7.111  23.247  54.936  1.00  0.00     0.018 A 
HETATM   23  C   UNL     1       6.868  24.589  54.636  1.00  0.00     0.010 A 
BRANCH  21  24
HETATM   24  C   UNL     1       7.940  20.959  54.236  1.00  0.00     0.292 C 
HETATM   25  O   UNL     1       8.331  20.189  53.375  1.00  0.00    -0.259 OA
BRANCH  24  26
HETATM   26  O   UNL     1       7.650  20.647  55.522  1.00  0.00    -0.323 OA
HETATM   27  C   UNL     1       8.793  20.303  56.309  1.00  0.00     0.213 C 
ENDBRANCH  24  26
ENDBRANCH  21  24
ENDBRANCH  17  18
ENDBRANCH  13  17
ENDBRANCH   2  10
BRANCH   6  28
HETATM   28  C   UNL     1       4.307  32.233  48.470  1.00  0.00     0.106 C 
HETATM   29  C   UNL     1       4.476  33.205  49.663  1.00  0.00     0.065 C 
HETATM   30  C   UNL     1       5.553  34.132  49.206  1.00  0.00    -0.050 A 
HETATM   31  C   UNL     1       5.874  33.928  47.863  1.00  0.00    -0.050 A 
HETATM   32  C   UNL     1       6.173  35.130  49.943  1.00  0.00     0.007 A 
HETATM   33  C   UNL     1       5.049  32.839  47.254  1.00  0.00     0.065 C 
HETATM   34  C   UNL     1       6.823  34.714  47.229  1.00  0.00     0.007 A 
HETATM   35  C   UNL     1       7.457  35.716  47.965  1.00  0.00     0.001 A 
HETATM   36  C   UNL     1       7.135  35.922  49.314  1.00  0.00     0.001 A 
ENDBRANCH   6  28
TORSDOF 6
ENDMDL
MODEL 8
REMARK VINA RESULT:      -9.6      3.734      7.968
REMARK  6 active torsions:
REMARK  status: ('A' for Active; 'I' for Inactive)
REMARK    1  A    between atoms: C_2  and  C_3 
REMARK    2  A    between atoms: N_6  and  C_8 
REMARK    3  A    between atoms: C_8  and  C_9 
REMARK    4  A    between atoms: C_12  and  C_13 
REMARK    5  A    between atoms: C_13  and  O_14 
REMARK    6  A    between atoms: N_24  and  C_25 
ROOT
HETATM    1  C   UNL     1       7.097  29.450  56.262  1.00  0.00     0.049 C 
HETATM    2  C   UNL     1       5.891  28.941  55.471  1.00  0.00     0.116 A 
HETATM    3  N   UNL     1       6.257  28.685  54.100  1.00  0.00    -0.324 N 
HETATM    4  C   UNL     1       6.229  27.338  53.797  1.00  0.00     0.326 A 
HETATM    5  O   UNL     1       6.595  26.926  52.713  1.00  0.00    -0.247 OA
HETATM    6  N   UNL     1       5.729  26.655  54.860  1.00  0.00    -0.263 N 
HETATM    7  C   UNL     1       5.577  27.500  55.926  1.00  0.00     0.256 A 
HETATM    8  O   UNL     1       5.215  27.198  57.054  1.00  0.00    -0.270 OA
HETATM    9  H   UNL     1       6.926  29.231  53.566  1.00  0.00     0.165 HD
ENDROOT
BRANCH   2  10
HETATM   10  C   UNL     1       4.628  29.850  55.615  1.00  0.00     0.026 C 
HETATM   11  C   UNL     1       3.399  29.402  54.800  1.00  0.00     0.035 C 
HETATM   12  C   UNL     1       3.488  29.703  53.312  1.00  0.00     0.235 C 
HETATM   13  N   UNL     1       3.757  31.170  53.085  1.00  0.00    -0.067 N 
HETATM   14  H   UNL     1       2.923  31.677  53.410  1.00  0.00     0.280 HD
HETATM   15  C   UNL     1       4.948  31.695  53.847  1.00  0.00     0.235 C 
HETATM   16  C   UNL     1       4.863  31.344  55.327  1.00  0.00     0.035 C 
BRANCH  13  17
HETATM   17  C   UNL     1       3.903  31.509  51.605  1.00  0.00     0.273 C 
BRANCH  17  18
HETATM   18  C   UNL     1       4.077  30.312  50.709  1.00  0.00    -0.033 A 
HETATM   19  C   UNL     1       2.974  29.703  50.097  1.00  0.00     0.010 A 
HETATM   20  C   UNL     1       3.146  28.552  49.318  1.00  0.00     0.018 A 
HETATM   21  C   UNL     1       4.419  27.992  49.144  1.00  0.00     0.039 A 
HETATM   22  C   UNL     1       5.524  28.608  49.742  1.00  0.00     0.018 A 
HETATM   23  C   UNL     1       5.355  29.758  50.516  1.00  0.00     0.010 A 
BRANCH  21  24
HETATM   24  C   UNL     1       4.538  26.751  48.331  1.00  0.00     0.292 C 
HETATM   25  O   UNL     1       5.147  26.702  47.276  1.00  0.00    -0.259 OA
BRANCH  24  26
HETATM   26  O   UNL     1       3.860  25.733  48.915  1.00  0.00    -0.323 OA
HETATM   27  C   UNL     1       3.108  24.934  47.998  1.00  0.00     0.213 C 
ENDBRANCH  24  26
ENDBRANCH  21  24
ENDBRANCH  17  18
ENDBRANCH  13  17
ENDBRANCH   2  10
BRANCH   6  28
HETATM   28  C   UNL     1       5.550  25.200  54.950  1.00  0.00     0.106 C 
HETATM   29  C   UNL     1       5.775  24.475  53.601  1.00  0.00     0.065 C 
HETATM   30  C   UNL     1       7.028  23.695  53.830  1.00  0.00    -0.050 A 
HETATM   31  C   UNL     1       7.424  23.738  55.167  1.00  0.00    -0.050 A 
HETATM   32  C   UNL     1       7.740  22.954  52.899  1.00  0.00     0.007 A 
HETATM   33  C   UNL     1       6.485  24.551  56.000  1.00  0.00     0.065 C 
HETATM   34  C   UNL     1       8.542  23.044  55.603  1.00  0.00     0.007 A 
HETATM   35  C   UNL     1       9.269  22.301  54.671  1.00  0.00     0.001 A 
HETATM   36  C   UNL     1       8.870  22.257  53.327  1.00  0.00     0.001 A 
ENDBRANCH   6  28
TORSDOF 6
ENDMDL
MODEL 9
REMARK VINA RESULT:      -9.6      1.950      3.078
REMARK  6 active torsions:
REMARK  status: ('A' for Active; 'I' for Inactive)
REMARK    1  A    between atoms: C_2  and  C_3 
REMARK    2  A    between atoms: N_6  and  C_8 
REMARK    3  A    between atoms: C_8  and  C_9 
REMARK    4  A    between atoms: C_12  and  C_13 
REMARK    5  A    between atoms: C_13  and  O_14 
REMARK    6  A    between atoms: N_24  and  C_25 
ROOT
HETATM    1  C   UNL     1       6.230  29.938  56.702  1.00  0.00     0.049 C 
HETATM    2  C   UNL     1       5.432  29.327  55.549  1.00  0.00     0.116 A 
HETATM    3  N   UNL     1       6.304  29.008  54.445  1.00  0.00    -0.324 N 
HETATM    4  C   UNL     1       6.423  27.646  54.253  1.00  0.00     0.326 A 
HETATM    5  O   UNL     1       7.187  27.189  53.424  1.00  0.00    -0.247 OA
HETATM    6  N   UNL     1       5.567  27.003  55.089  1.00  0.00    -0.263 N 
HETATM    7  C   UNL     1       4.999  27.902  55.952  1.00  0.00     0.256 A 
HETATM    8  O   UNL     1       4.237  27.649  56.874  1.00  0.00    -0.270 OA
HETATM    9  H   UNL     1       7.115  29.553  54.169  1.00  0.00     0.165 HD
ENDROOT
BRANCH   2  10
HETATM   10  C   UNL     1       4.192  30.182  55.132  1.00  0.00     0.026 C 
HETATM   11  C   UNL     1       4.520  31.530  54.459  1.00  0.00     0.035 C 
HETATM   12  C   UNL     1       4.987  32.613  55.419  1.00  0.00     0.235 C 
HETATM   13  N   UNL     1       3.978  32.813  56.523  1.00  0.00    -0.067 N 
HETATM   14  H   UNL     1       3.131  33.194  56.082  1.00  0.00     0.280 HD
HETATM   15  C   UNL     1       3.600  31.540  57.238  1.00  0.00     0.235 C 
HETATM   16  C   UNL     1       3.178  30.453  56.258  1.00  0.00     0.035 C 
BRANCH  13  17
HETATM   17  C   UNL     1       4.431  33.859  57.537  1.00  0.00     0.273 C 
BRANCH  17  18
HETATM   18  C   UNL     1       4.622  33.327  58.933  1.00  0.00    -0.033 A 
HETATM   19  C   UNL     1       3.635  33.501  59.912  1.00  0.00     0.010 A 
HETATM   20  C   UNL     1       3.855  33.056  61.221  1.00  0.00     0.018 A 
HETATM   21  C   UNL     1       5.063  32.438  61.571  1.00  0.00     0.039 A 
HETATM   22  C   UNL     1       6.043  32.250  60.591  1.00  0.00     0.018 A 
HETATM   23  C   UNL     1       5.824  32.688  59.283  1.00  0.00     0.010 A 
BRANCH  21  24
HETATM   24  C   UNL     1       5.253  32.013  62.985  1.00  0.00     0.292 C 
HETATM   25  O   UNL     1       4.881  30.933  63.412  1.00  0.00    -0.259 OA
BRANCH  24  26
HETATM   26  O   UNL     1       5.856  32.994  63.699  1.00  0.00    -0.323 OA
HETATM   27  C   UNL     1       5.110  33.423  64.841  1.00  0.00     0.213 C 
ENDBRANCH  24  26
ENDBRANCH  21  24
ENDBRANCH  17  18
ENDBRANCH  13  17
ENDBRANCH   2  10
BRANCH   6  28
HETATM   28  C   UNL     1       5.398  25.549  55.210  1.00  0.00     0.106 C 
HETATM   29  C   UNL     1       5.495  24.812  53.852  1.00  0.00     0.065 C 
HETATM   30  C   UNL     1       6.764  24.034  53.968  1.00  0.00    -0.050 A 
HETATM   31  C   UNL     1       7.286  24.089  55.261  1.00  0.00    -0.050 A 
HETATM   32  C   UNL     1       7.384  23.284  52.981  1.00  0.00     0.007 A 
HETATM   33  C   UNL     1       6.429  24.910  56.172  1.00  0.00     0.065 C 
HETATM   34  C   UNL     1       8.440  23.399  55.595  1.00  0.00     0.007 A 
HETATM   35  C   UNL     1       9.076  22.647  54.605  1.00  0.00     0.001 A 
HETATM   36  C   UNL     1       8.551  22.590  53.305  1.00  0.00     0.001 A 
ENDBRANCH   6  28
TORSDOF 6
ENDMDL
MODEL 10
REMARK VINA RESULT:      -9.6      1.668      2.111
REMARK  6 active torsions:
REMARK  status: ('A' for Active; 'I' for Inactive)
REMARK    1  A    between atoms: C_2  and  C_3 
REMARK    2  A    between atoms: N_6  and  C_8 
REMARK    3  A    between atoms: C_8  and  C_9 
REMARK    4  A    between atoms: C_12  and  C_13 
REMARK    5  A    between atoms: C_13  and  O_14 
REMARK    6  A    between atoms: N_24  and  C_25 
ROOT
HETATM    1  C   UNL     1       5.272  28.874  53.960  1.00  0.00     0.049 C 
HETATM    2  C   UNL     1       5.271  27.599  54.805  1.00  0.00     0.116 A 
HETATM    3  N   UNL     1       4.655  26.514  54.080  1.00  0.00    -0.324 N 
HETATM    4  C   UNL     1       5.566  25.535  53.738  1.00  0.00     0.326 A 
HETATM    5  O   UNL     1       5.246  24.587  53.046  1.00  0.00    -0.247 OA
HETATM    6  N   UNL     1       6.765  25.825  54.308  1.00  0.00    -0.263 N 
HETATM    7  C   UNL     1       6.716  27.064  54.888  1.00  0.00     0.256 A 
HETATM    8  O   UNL     1       7.639  27.656  55.427  1.00  0.00    -0.270 OA
HETATM    9  H   UNL     1       3.871  26.612  53.444  1.00  0.00     0.165 HD
ENDROOT
BRANCH   2  10
HETATM   10  C   UNL     1       4.677  27.804  56.235  1.00  0.00     0.026 C 
HETATM   11  C   UNL     1       3.529  28.828  56.329  1.00  0.00     0.035 C 
HETATM   12  C   UNL     1       3.976  30.281  56.270  1.00  0.00     0.235 C 
HETATM   13  N   UNL     1       5.011  30.560  57.332  1.00  0.00    -0.067 N 
HETATM   14  H   UNL     1       4.536  30.464  58.239  1.00  0.00     0.280 HD
HETATM   15  C   UNL     1       6.176  29.601  57.312  1.00  0.00     0.235 C 
HETATM   16  C   UNL     1       5.707  28.152  57.326  1.00  0.00     0.035 C 
BRANCH  13  17
HETATM   17  C   UNL     1       5.524  31.995  57.276  1.00  0.00     0.273 C 
BRANCH  17  18
HETATM   18  C   UNL     1       5.293  32.785  58.536  1.00  0.00    -0.033 A 
HETATM   19  C   UNL     1       5.998  32.490  59.711  1.00  0.00     0.010 A 
HETATM   20  C   UNL     1       5.726  33.193  60.891  1.00  0.00     0.018 A 
HETATM   21  C   UNL     1       4.745  34.194  60.915  1.00  0.00     0.039 A 
HETATM   22  C   UNL     1       4.052  34.500  59.740  1.00  0.00     0.018 A 
HETATM   23  C   UNL     1       4.324  33.804  58.560  1.00  0.00     0.010 A 
BRANCH  21  24
HETATM   24  C   UNL     1       4.477  34.887  62.206  1.00  0.00     0.292 C 
HETATM   25  O   UNL     1       5.076  34.630  63.236  1.00  0.00    -0.259 OA
BRANCH  24  26
HETATM   26  O   UNL     1       3.477  35.790  62.061  1.00  0.00    -0.323 OA
HETATM   27  C   UNL     1       3.654  36.981  62.833  1.00  0.00     0.213 C 
ENDBRANCH  24  26
ENDBRANCH  21  24
ENDBRANCH  17  18
ENDBRANCH  13  17
ENDBRANCH   2  10
BRANCH   6  28
HETATM   28  C   UNL     1       8.001  25.043  54.175  1.00  0.00     0.106 C 
HETATM   29  C   UNL     1       8.297  24.159  55.412  1.00  0.00     0.065 C 
HETATM   30  C   UNL     1       8.116  22.769  54.897  1.00  0.00    -0.050 A 
HETATM   31  C   UNL     1       7.945  22.751  53.512  1.00  0.00    -0.050 A 
HETATM   32  C   UNL     1       8.150  21.591  55.626  1.00  0.00     0.007 A 
HETATM   33  C   UNL     1       7.993  24.127  52.927  1.00  0.00     0.065 C 
HETATM   34  C   UNL     1       7.802  21.555  52.827  1.00  0.00     0.007 A 
HETATM   35  C   UNL     1       7.828  20.364  53.554  1.00  0.00     0.001 A 
HETATM   36  C   UNL     1       8.001  20.382  54.946  1.00  0.00     0.001 A 
ENDBRANCH   6  28
TORSDOF 6
ENDMDL
