MODEL 1
REMARK VINA RESULT:     -10.5      0.000      0.000
REMARK  5 active torsions:
REMARK  status: ('A' for Active; 'I' for Inactive)
REMARK    1  A    between atoms: C_4  and  C_5 
REMARK    2  A    between atoms: C_5  and  O_6 
REMARK    3  A    between atoms: O_6  and  C_7 
REMARK    4  A    between atoms: C_10  and  N_11 
REMARK       I    between atoms: N_11  and  C_12 
REMARK    5  A    between atoms: C_12  and  C_13 
ROOT
HETATM    1  N   UNL     1       8.542  26.813  57.059  1.00  0.00    -0.322 N 
HETATM    2  C   UNL     1       7.618  26.120  56.307  1.00  0.00     0.277 C 
HETATM    3  O   UNL     1       6.657  26.551  55.690  1.00  0.00    -0.266 OA
HETATM    4  H   UNL     1       9.348  26.266  57.351  1.00  0.00     0.169 HD
ENDROOT
BRANCH   1   5
HETATM    5  C   UNL     1       8.497  28.163  57.444  1.00  0.00     0.035 A 
HETATM    6  C   UNL     1       7.392  28.756  58.055  1.00  0.00     0.032 A 
HETATM    7  C   UNL     1       7.457  30.084  58.489  1.00  0.00     0.039 A 
HETATM    8  C   UNL     1       8.624  30.831  58.325  1.00  0.00     0.069 A 
HETATM    9  C   UNL     1       9.711  30.262  57.666  1.00  0.00     0.039 A 
HETATM   10  C   UNL     1       9.649  28.931  57.236  1.00  0.00     0.032 A 
BRANCH   8  11
HETATM   11  O   UNL     1       8.580  32.096  58.839  1.00  0.00    -0.347 OA
BRANCH  11  12
HETATM   12  C   UNL     1       9.271  32.300  60.074  1.00  0.00     0.214 C 
BRANCH  12  13
HETATM   13  C   UNL     1       8.273  32.462  61.200  1.00  0.00    -0.034 A 
HETATM   14  C   UNL     1       8.689  32.305  62.531  1.00  0.00     0.009 A 
HETATM   15  C   UNL     1       7.782  32.461  63.582  1.00  0.00     0.001 A 
HETATM   16  C   UNL     1       6.454  32.787  63.315  1.00  0.00     0.000 A 
HETATM   17  C   UNL     1       6.034  32.964  61.999  1.00  0.00     0.001 A 
HETATM   18  C   UNL     1       6.938  32.809  60.947  1.00  0.00     0.009 A 
ENDBRANCH  12  13
ENDBRANCH  11  12
ENDBRANCH   8  11
ENDBRANCH   1   5
BRANCH   2  19
HETATM   19  C   UNL     1       7.913  24.621  56.297  1.00  0.00     0.156 A 
HETATM   20  N   UNL     1       8.070  24.066  57.468  1.00  0.00    -0.166 NA
HETATM   21  N   UNL     1       8.315  22.727  57.511  1.00  0.00    -0.242 N 
HETATM   22  C   UNL     1       8.411  21.886  56.429  1.00  0.00     0.272 A 
HETATM   23  H   UNL     1       8.464  22.316  58.429  1.00  0.00     0.192 HD
HETATM   24  O   UNL     1       8.642  20.688  56.549  1.00  0.00    -0.266 OA
HETATM   25  C   UNL     1       8.204  22.502  55.107  1.00  0.00     0.046 A 
HETATM   26  C   UNL     1       7.950  23.869  55.024  1.00  0.00     0.016 A 
HETATM   27  C   UNL     1       8.247  21.711  53.951  1.00  0.00     0.018 A 
HETATM   28  C   UNL     1       7.718  24.448  53.770  1.00  0.00     0.015 A 
HETATM   29  C   UNL     1       7.761  23.660  52.615  1.00  0.00     0.001 A 
HETATM   30  C   UNL     1       8.026  22.294  52.705  1.00  0.00     0.001 A 
ENDBRANCH   2  19
TORSDOF 5
ENDMDL
MODEL 2
REMARK VINA RESULT:     -10.4      2.289     10.093
REMARK  5 active torsions:
REMARK  status: ('A' for Active; 'I' for Inactive)
REMARK    1  A    between atoms: C_4  and  C_5 
REMARK    2  A    between atoms: C_5  and  O_6 
REMARK    3  A    between atoms: O_6  and  C_7 
REMARK    4  A    between atoms: C_10  and  N_11 
REMARK       I    between atoms: N_11  and  C_12 
REMARK    5  A    between atoms: C_12  and  C_13 
ROOT
HETATM    1  N   UNL     1       7.252  28.980  58.534  1.00  0.00    -0.322 N 
HETATM    2  C   UNL     1       8.201  29.977  58.595  1.00  0.00     0.277 C 
HETATM    3  O   UNL     1       9.014  30.311  57.749  1.00  0.00    -0.266 OA
HETATM    4  H   UNL     1       6.579  28.986  59.295  1.00  0.00     0.169 HD
ENDROOT
BRANCH   1   5
HETATM    5  C   UNL     1       7.110  27.989  57.547  1.00  0.00     0.035 A 
HETATM    6  C   UNL     1       7.965  26.895  57.424  1.00  0.00     0.032 A 
HETATM    7  C   UNL     1       7.706  25.903  56.471  1.00  0.00     0.039 A 
HETATM    8  C   UNL     1       6.589  25.990  55.639  1.00  0.00     0.069 A 
HETATM    9  C   UNL     1       5.763  27.109  55.721  1.00  0.00     0.039 A 
HETATM   10  C   UNL     1       6.019  28.098  56.677  1.00  0.00     0.032 A 
BRANCH   8  11
HETATM   11  O   UNL     1       6.415  24.934  54.790  1.00  0.00    -0.347 OA
BRANCH  11  12
HETATM   12  C   UNL     1       7.555  24.554  54.014  1.00  0.00     0.214 C 
BRANCH  12  13
HETATM   13  C   UNL     1       7.760  23.058  54.103  1.00  0.00    -0.034 A 
HETATM   14  C   UNL     1       7.688  22.414  55.349  1.00  0.00     0.009 A 
HETATM   15  C   UNL     1       7.864  21.033  55.447  1.00  0.00     0.001 A 
HETATM   16  C   UNL     1       8.103  20.277  54.300  1.00  0.00     0.000 A 
HETATM   17  C   UNL     1       8.159  20.901  53.056  1.00  0.00     0.001 A 
HETATM   18  C   UNL     1       7.982  22.282  52.956  1.00  0.00     0.009 A 
ENDBRANCH  12  13
ENDBRANCH  11  12
ENDBRANCH   8  11
ENDBRANCH   1   5
BRANCH   2  19
HETATM   19  C   UNL     1       8.158  30.711  59.935  1.00  0.00     0.156 A 
HETATM   20  N   UNL     1       9.106  30.406  60.779  1.00  0.00    -0.166 NA
HETATM   21  N   UNL     1       9.122  31.049  61.980  1.00  0.00    -0.242 N 
HETATM   22  C   UNL     1       8.227  32.005  62.398  1.00  0.00     0.272 A 
HETATM   23  H   UNL     1       9.849  30.779  62.637  1.00  0.00     0.192 HD
HETATM   24  O   UNL     1       8.304  32.535  63.501  1.00  0.00    -0.266 OA
HETATM   25  C   UNL     1       7.174  32.374  61.437  1.00  0.00     0.046 A 
HETATM   26  C   UNL     1       7.128  31.738  60.198  1.00  0.00     0.016 A 
HETATM   27  C   UNL     1       6.242  33.368  61.766  1.00  0.00     0.018 A 
HETATM   28  C   UNL     1       6.148  32.114  59.271  1.00  0.00     0.015 A 
HETATM   29  C   UNL     1       5.217  33.105  59.598  1.00  0.00     0.001 A 
HETATM   30  C   UNL     1       5.262  33.730  60.843  1.00  0.00     0.001 A 
ENDBRANCH   2  19
TORSDOF 5
ENDMDL
MODEL 3
REMARK VINA RESULT:     -10.2      2.585     10.474
REMARK  5 active torsions:
REMARK  status: ('A' for Active; 'I' for Inactive)
REMARK    1  A    between atoms: C_4  and  C_5 
REMARK    2  A    between atoms: C_5  and  O_6 
REMARK    3  A    between atoms: O_6  and  C_7 
REMARK    4  A    between atoms: C_10  and  N_11 
REMARK       I    between atoms: N_11  and  C_12 
REMARK    5  A    between atoms: C_12  and  C_13 
ROOT
HETATM    1  N   UNL     1       6.528  30.009  58.016  1.00  0.00    -0.322 N 
HETATM    2  C   UNL     1       7.393  30.982  58.465  1.00  0.00     0.277 C 
HETATM    3  O   UNL     1       8.574  31.135  58.200  1.00  0.00    -0.266 OA
HETATM    4  H   UNL     1       5.550  30.171  58.243  1.00  0.00     0.169 HD
ENDROOT
BRANCH   1   5
HETATM    5  C   UNL     1       6.842  28.853  57.281  1.00  0.00     0.035 A 
HETATM    6  C   UNL     1       7.562  27.779  57.803  1.00  0.00     0.032 A 
HETATM    7  C   UNL     1       7.759  26.625  57.037  1.00  0.00     0.039 A 
HETATM    8  C   UNL     1       7.233  26.528  55.748  1.00  0.00     0.069 A 
HETATM    9  C   UNL     1       6.560  27.619  55.202  1.00  0.00     0.039 A 
HETATM   10  C   UNL     1       6.359  28.772  55.970  1.00  0.00     0.032 A 
BRANCH   8  11
HETATM   11  O   UNL     1       7.445  25.331  55.124  1.00  0.00    -0.347 OA
BRANCH  11  12
HETATM   12  C   UNL     1       7.564  24.188  55.974  1.00  0.00     0.214 C 
BRANCH  12  13
HETATM   13  C   UNL     1       7.701  22.937  55.135  1.00  0.00    -0.034 A 
HETATM   14  C   UNL     1       7.803  23.038  53.739  1.00  0.00     0.009 A 
HETATM   15  C   UNL     1       7.941  21.893  52.951  1.00  0.00     0.001 A 
HETATM   16  C   UNL     1       7.990  20.636  53.550  1.00  0.00     0.000 A 
HETATM   17  C   UNL     1       7.908  20.523  54.936  1.00  0.00     0.001 A 
HETATM   18  C   UNL     1       7.771  21.666  55.725  1.00  0.00     0.009 A 
ENDBRANCH  12  13
ENDBRANCH  11  12
ENDBRANCH   8  11
ENDBRANCH   1   5
BRANCH   2  19
HETATM   19  C   UNL     1       6.698  31.956  59.416  1.00  0.00     0.156 A 
HETATM   20  N   UNL     1       5.648  32.565  58.935  1.00  0.00    -0.166 NA
HETATM   21  N   UNL     1       4.982  33.428  59.751  1.00  0.00    -0.242 N 
HETATM   22  C   UNL     1       5.308  33.726  61.053  1.00  0.00     0.272 A 
HETATM   23  H   UNL     1       4.184  33.915  59.353  1.00  0.00     0.192 HD
HETATM   24  O   UNL     1       4.661  34.523  61.723  1.00  0.00    -0.266 OA
HETATM   25  C   UNL     1       6.474  33.019  61.609  1.00  0.00     0.046 A 
HETATM   26  C   UNL     1       7.179  32.127  60.804  1.00  0.00     0.016 A 
HETATM   27  C   UNL     1       6.855  33.235  62.940  1.00  0.00     0.018 A 
HETATM   28  C   UNL     1       8.266  31.429  61.343  1.00  0.00     0.015 A 
HETATM   29  C   UNL     1       8.648  31.644  62.671  1.00  0.00     0.001 A 
HETATM   30  C   UNL     1       7.945  32.545  63.469  1.00  0.00     0.001 A 
ENDBRANCH   2  19
TORSDOF 5
ENDMDL
MODEL 4
REMARK VINA RESULT:     -10.1      3.260     10.231
REMARK  5 active torsions:
REMARK  status: ('A' for Active; 'I' for Inactive)
REMARK    1  A    between atoms: C_4  and  C_5 
REMARK    2  A    between atoms: C_5  and  O_6 
REMARK    3  A    between atoms: O_6  and  C_7 
REMARK    4  A    between atoms: C_10  and  N_11 
REMARK       I    between atoms: N_11  and  C_12 
REMARK    5  A    between atoms: C_12  and  C_13 
ROOT
HETATM    1  N   UNL     1       5.763  30.716  58.717  1.00  0.00    -0.322 N 
HETATM    2  C   UNL     1       5.784  32.082  58.898  1.00  0.00     0.277 C 
HETATM    3  O   UNL     1       6.112  32.952  58.109  1.00  0.00    -0.266 OA
HETATM    4  H   UNL     1       5.301  30.196  59.458  1.00  0.00     0.169 HD
ENDROOT
BRANCH   1   5
HETATM    5  C   UNL     1       6.284  29.985  57.635  1.00  0.00     0.035 A 
HETATM    6  C   UNL     1       5.537  29.625  56.515  1.00  0.00     0.032 A 
HETATM    7  C   UNL     1       6.151  28.974  55.439  1.00  0.00     0.039 A 
HETATM    8  C   UNL     1       7.515  28.685  55.467  1.00  0.00     0.069 A 
HETATM    9  C   UNL     1       8.255  28.992  56.607  1.00  0.00     0.039 A 
HETATM   10  C   UNL     1       7.642  29.648  57.682  1.00  0.00     0.032 A 
BRANCH   8  11
HETATM   11  O   UNL     1       8.007  28.098  54.336  1.00  0.00    -0.347 OA
BRANCH  11  12
HETATM   12  C   UNL     1       7.050  27.443  53.498  1.00  0.00     0.214 C 
BRANCH  12  13
HETATM   13  C   UNL     1       7.244  25.944  53.573  1.00  0.00    -0.034 A 
HETATM   14  C   UNL     1       7.772  25.251  52.473  1.00  0.00     0.009 A 
HETATM   15  C   UNL     1       7.967  23.869  52.530  1.00  0.00     0.001 A 
HETATM   16  C   UNL     1       7.647  23.167  53.690  1.00  0.00     0.000 A 
HETATM   17  C   UNL     1       7.140  23.846  54.795  1.00  0.00     0.001 A 
HETATM   18  C   UNL     1       6.945  25.227  54.741  1.00  0.00     0.009 A 
ENDBRANCH  12  13
ENDBRANCH  11  12
ENDBRANCH   8  11
ENDBRANCH   1   5
BRANCH   2  19
HETATM   19  C   UNL     1       5.317  32.469  60.301  1.00  0.00     0.156 A 
HETATM   20  N   UNL     1       4.036  32.681  60.434  1.00  0.00    -0.166 NA
HETATM   21  N   UNL     1       3.569  33.009  61.671  1.00  0.00    -0.242 N 
HETATM   22  C   UNL     1       4.323  33.138  62.813  1.00  0.00     0.272 A 
HETATM   23  H   UNL     1       2.574  33.198  61.752  1.00  0.00     0.192 HD
HETATM   24  O   UNL     1       3.829  33.444  63.892  1.00  0.00    -0.266 OA
HETATM   25  C   UNL     1       5.765  32.870  62.674  1.00  0.00     0.046 A 
HETATM   26  C   UNL     1       6.278  32.530  61.424  1.00  0.00     0.016 A 
HETATM   27  C   UNL     1       6.602  32.942  63.795  1.00  0.00     0.018 A 
HETATM   28  C   UNL     1       7.642  32.241  61.299  1.00  0.00     0.015 A 
HETATM   29  C   UNL     1       8.480  32.313  62.416  1.00  0.00     0.001 A 
HETATM   30  C   UNL     1       7.962  32.664  63.662  1.00  0.00     0.001 A 
ENDBRANCH   2  19
TORSDOF 5
ENDMDL
MODEL 5
REMARK VINA RESULT:      -9.8      6.603      9.923
REMARK  5 active torsions:
REMARK  status: ('A' for Active; 'I' for Inactive)
REMARK    1  A    between atoms: C_4  and  C_5 
REMARK    2  A    between atoms: C_5  and  O_6 
REMARK    3  A    between atoms: O_6  and  C_7 
REMARK    4  A    between atoms: C_10  and  N_11 
REMARK       I    between atoms: N_11  and  C_12 
REMARK    5  A    between atoms: C_12  and  C_13 
ROOT
HETATM    1  N   UNL     1       6.186  25.857  52.939  1.00  0.00    -0.322 N 
HETATM    2  C   UNL     1       7.479  25.381  52.959  1.00  0.00     0.277 C 
HETATM    3  O   UNL     1       8.365  25.544  52.137  1.00  0.00    -0.266 OA
HETATM    4  H   UNL     1       5.673  25.729  53.807  1.00  0.00     0.169 HD
ENDROOT
BRANCH   1   5
HETATM    5  C   UNL     1       5.523  26.497  51.878  1.00  0.00     0.035 A 
HETATM    6  C   UNL     1       5.317  27.875  51.816  1.00  0.00     0.032 A 
HETATM    7  C   UNL     1       4.727  28.447  50.684  1.00  0.00     0.039 A 
HETATM    8  C   UNL     1       4.344  27.654  49.602  1.00  0.00     0.069 A 
HETATM    9  C   UNL     1       4.497  26.271  49.682  1.00  0.00     0.039 A 
HETATM   10  C   UNL     1       5.092  25.698  50.812  1.00  0.00     0.032 A 
BRANCH   8  11
HETATM   11  O   UNL     1       3.831  28.336  48.536  1.00  0.00    -0.347 OA
BRANCH  11  12
HETATM   12  C   UNL     1       3.328  27.540  47.459  1.00  0.00     0.214 C 
BRANCH  12  13
HETATM   13  C   UNL     1       2.010  28.103  46.977  1.00  0.00    -0.034 A 
HETATM   14  C   UNL     1       0.949  27.236  46.669  1.00  0.00     0.009 A 
HETATM   15  C   UNL     1      -0.278  27.740  46.233  1.00  0.00     0.001 A 
HETATM   16  C   UNL     1      -0.462  29.116  46.110  1.00  0.00     0.000 A 
HETATM   17  C   UNL     1       0.576  29.988  46.430  1.00  0.00     0.001 A 
HETATM   18  C   UNL     1       1.803  29.485  46.868  1.00  0.00     0.009 A 
ENDBRANCH  12  13
ENDBRANCH  11  12
ENDBRANCH   8  11
ENDBRANCH   1   5
BRANCH   2  19
HETATM   19  C   UNL     1       7.753  24.551  54.213  1.00  0.00     0.156 A 
HETATM   20  N   UNL     1       7.773  25.214  55.337  1.00  0.00    -0.166 NA
HETATM   21  N   UNL     1       7.993  24.515  56.485  1.00  0.00    -0.242 N 
HETATM   22  C   UNL     1       8.196  23.159  56.581  1.00  0.00     0.272 A 
HETATM   23  H   UNL     1       8.034  25.049  57.349  1.00  0.00     0.192 HD
HETATM   24  O   UNL     1       8.396  22.602  57.655  1.00  0.00    -0.266 OA
HETATM   25  C   UNL     1       8.144  22.403  55.319  1.00  0.00     0.046 A 
HETATM   26  C   UNL     1       7.919  23.085  54.124  1.00  0.00     0.016 A 
HETATM   27  C   UNL     1       8.303  21.011  55.328  1.00  0.00     0.018 A 
HETATM   28  C   UNL     1       7.835  22.362  52.928  1.00  0.00     0.015 A 
HETATM   29  C   UNL     1       7.995  20.972  52.936  1.00  0.00     0.001 A 
HETATM   30  C   UNL     1       8.229  20.298  54.133  1.00  0.00     0.001 A 
ENDBRANCH   2  19
TORSDOF 5
ENDMDL
MODEL 6
REMARK VINA RESULT:      -9.8      2.688      3.701
REMARK  5 active torsions:
REMARK  status: ('A' for Active; 'I' for Inactive)
REMARK    1  A    between atoms: C_4  and  C_5 
REMARK    2  A    between atoms: C_5  and  O_6 
REMARK    3  A    between atoms: O_6  and  C_7 
REMARK    4  A    between atoms: C_10  and  N_11 
REMARK       I    between atoms: N_11  and  C_12 
REMARK    5  A    between atoms: C_12  and  C_13 
ROOT
HETATM    1  N   UNL     1       6.891  28.604  56.225  1.00  0.00    -0.322 N 
HETATM    2  C   UNL     1       7.703  28.472  55.120  1.00  0.00     0.277 C 
HETATM    3  O   UNL     1       8.829  28.908  54.943  1.00  0.00    -0.266 OA
HETATM    4  H   UNL     1       6.057  28.023  56.212  1.00  0.00     0.169 HD
ENDROOT
BRANCH   1   5
HETATM    5  C   UNL     1       7.094  29.425  57.347  1.00  0.00     0.035 A 
HETATM    6  C   UNL     1       8.112  29.222  58.278  1.00  0.00     0.032 A 
HETATM    7  C   UNL     1       8.305  30.135  59.321  1.00  0.00     0.039 A 
HETATM    8  C   UNL     1       7.491  31.262  59.440  1.00  0.00     0.069 A 
HETATM    9  C   UNL     1       6.438  31.440  58.546  1.00  0.00     0.039 A 
HETATM   10  C   UNL     1       6.248  30.530  57.499  1.00  0.00     0.032 A 
BRANCH   8  11
HETATM   11  O   UNL     1       7.814  32.104  60.465  1.00  0.00    -0.347 OA
BRANCH  11  12
HETATM   12  C   UNL     1       8.083  31.489  61.728  1.00  0.00     0.214 C 
BRANCH  12  13
HETATM   13  C   UNL     1       7.324  32.207  62.821  1.00  0.00    -0.034 A 
HETATM   14  C   UNL     1       5.921  32.169  62.840  1.00  0.00     0.009 A 
HETATM   15  C   UNL     1       5.205  32.818  63.848  1.00  0.00     0.001 A 
HETATM   16  C   UNL     1       5.883  33.503  64.855  1.00  0.00     0.000 A 
HETATM   17  C   UNL     1       7.276  33.533  64.857  1.00  0.00     0.001 A 
HETATM   18  C   UNL     1       7.993  32.884  63.851  1.00  0.00     0.009 A 
ENDBRANCH  12  13
ENDBRANCH  11  12
ENDBRANCH   8  11
ENDBRANCH   1   5
BRANCH   2  19
HETATM   19  C   UNL     1       7.026  27.655  54.020  1.00  0.00     0.156 A 
HETATM   20  N   UNL     1       6.419  28.346  53.094  1.00  0.00    -0.166 NA
HETATM   21  N   UNL     1       5.817  27.663  52.080  1.00  0.00    -0.242 N 
HETATM   22  C   UNL     1       5.788  26.298  51.930  1.00  0.00     0.272 A 
HETATM   23  H   UNL     1       5.324  28.215  51.383  1.00  0.00     0.192 HD
HETATM   24  O   UNL     1       5.217  25.755  50.991  1.00  0.00    -0.266 OA
HETATM   25  C   UNL     1       6.497  25.515  52.957  1.00  0.00     0.046 A 
HETATM   26  C   UNL     1       7.126  26.180  54.008  1.00  0.00     0.016 A 
HETATM   27  C   UNL     1       6.549  24.119  52.862  1.00  0.00     0.018 A 
HETATM   28  C   UNL     1       7.829  25.438  54.964  1.00  0.00     0.015 A 
HETATM   29  C   UNL     1       7.882  24.044  54.871  1.00  0.00     0.001 A 
HETATM   30  C   UNL     1       7.243  23.384  53.822  1.00  0.00     0.001 A 
ENDBRANCH   2  19
TORSDOF 5
ENDMDL
MODEL 7
REMARK VINA RESULT:      -9.6      2.936     10.332
REMARK  5 active torsions:
REMARK  status: ('A' for Active; 'I' for Inactive)
REMARK    1  A    between atoms: C_4  and  C_5 
REMARK    2  A    between atoms: C_5  and  O_6 
REMARK    3  A    between atoms: O_6  and  C_7 
REMARK    4  A    between atoms: C_10  and  N_11 
REMARK       I    between atoms: N_11  and  C_12 
REMARK    5  A    between atoms: C_12  and  C_13 
ROOT
HETATM    1  N   UNL     1       7.097  30.800  59.290  1.00  0.00    -0.322 N 
HETATM    2  C   UNL     1       7.921  31.838  59.667  1.00  0.00     0.277 C 
HETATM    3  O   UNL     1       8.784  32.403  59.016  1.00  0.00    -0.266 OA
HETATM    4  H   UNL     1       6.345  30.596  59.943  1.00  0.00     0.169 HD
ENDROOT
BRANCH   1   5
HETATM    5  C   UNL     1       7.175  30.022  58.123  1.00  0.00     0.035 A 
HETATM    6  C   UNL     1       6.405  30.258  56.985  1.00  0.00     0.032 A 
HETATM    7  C   UNL     1       6.604  29.494  55.830  1.00  0.00     0.039 A 
HETATM    8  C   UNL     1       7.577  28.496  55.795  1.00  0.00     0.069 A 
HETATM    9  C   UNL     1       8.311  28.219  56.946  1.00  0.00     0.039 A 
HETATM   10  C   UNL     1       8.116  28.986  58.101  1.00  0.00     0.032 A 
BRANCH   8  11
HETATM   11  O   UNL     1       7.712  27.858  54.594  1.00  0.00    -0.347 OA
BRANCH  11  12
HETATM   12  C   UNL     1       6.598  27.068  54.170  1.00  0.00     0.214 C 
BRANCH  12  13
HETATM   13  C   UNL     1       7.034  25.635  53.965  1.00  0.00    -0.034 A 
HETATM   14  C   UNL     1       7.558  25.233  52.726  1.00  0.00     0.009 A 
HETATM   15  C   UNL     1       7.976  23.916  52.524  1.00  0.00     0.001 A 
HETATM   16  C   UNL     1       7.885  22.988  53.560  1.00  0.00     0.000 A 
HETATM   17  C   UNL     1       7.383  23.379  54.800  1.00  0.00     0.001 A 
HETATM   18  C   UNL     1       6.967  24.695  55.004  1.00  0.00     0.009 A 
ENDBRANCH  12  13
ENDBRANCH  11  12
ENDBRANCH   8  11
ENDBRANCH   1   5
BRANCH   2  19
HETATM   19  C   UNL     1       7.647  32.279  61.105  1.00  0.00     0.156 A 
HETATM   20  N   UNL     1       8.564  31.963  61.979  1.00  0.00    -0.166 NA
HETATM   21  N   UNL     1       8.375  32.352  63.270  1.00  0.00    -0.242 N 
HETATM   22  C   UNL     1       7.299  33.058  63.753  1.00  0.00     0.272 A 
HETATM   23  H   UNL     1       9.083  32.074  63.943  1.00  0.00     0.192 HD
HETATM   24  O   UNL     1       7.197  33.366  64.936  1.00  0.00    -0.266 OA
HETATM   25  C   UNL     1       6.277  33.443  62.766  1.00  0.00     0.046 A 
HETATM   26  C   UNL     1       6.438  33.064  61.434  1.00  0.00     0.016 A 
HETATM   27  C   UNL     1       5.165  34.196  63.164  1.00  0.00     0.018 A 
HETATM   28  C   UNL     1       5.484  33.459  60.489  1.00  0.00     0.015 A 
HETATM   29  C   UNL     1       4.373  34.211  60.886  1.00  0.00     0.001 A 
HETATM   30  C   UNL     1       4.213  34.578  62.221  1.00  0.00     0.001 A 
ENDBRANCH   2  19
TORSDOF 5
ENDMDL
MODEL 8
REMARK VINA RESULT:      -9.3      6.863     10.437
REMARK  5 active torsions:
REMARK  status: ('A' for Active; 'I' for Inactive)
REMARK    1  A    between atoms: C_4  and  C_5 
REMARK    2  A    between atoms: C_5  and  O_6 
REMARK    3  A    between atoms: O_6  and  C_7 
REMARK    4  A    between atoms: C_10  and  N_11 
REMARK       I    between atoms: N_11  and  C_12 
REMARK    5  A    between atoms: C_12  and  C_13 
ROOT
HETATM    1  N   UNL     1       4.659  25.950  50.894  1.00  0.00    -0.322 N 
HETATM    2  C   UNL     1       4.771  27.039  50.058  1.00  0.00     0.277 C 
HETATM    3  O   UNL     1       5.596  27.937  50.080  1.00  0.00    -0.266 OA
HETATM    4  H   UNL     1       3.991  25.247  50.590  1.00  0.00     0.169 HD
ENDROOT
BRANCH   1   5
HETATM    5  C   UNL     1       5.363  25.706  52.086  1.00  0.00     0.035 A 
HETATM    6  C   UNL     1       4.755  25.299  53.273  1.00  0.00     0.032 A 
HETATM    7  C   UNL     1       5.535  24.991  54.393  1.00  0.00     0.039 A 
HETATM    8  C   UNL     1       6.926  25.077  54.337  1.00  0.00     0.069 A 
HETATM    9  C   UNL     1       7.535  25.537  53.172  1.00  0.00     0.039 A 
HETATM   10  C   UNL     1       6.756  25.841  52.049  1.00  0.00     0.032 A 
BRANCH   8  11
HETATM   11  O   UNL     1       7.576  24.697  55.477  1.00  0.00    -0.347 OA
BRANCH  11  12
HETATM   12  C   UNL     1       8.868  24.109  55.301  1.00  0.00     0.214 C 
BRANCH  12  13
HETATM   13  C   UNL     1       8.724  22.627  55.032  1.00  0.00    -0.034 A 
HETATM   14  C   UNL     1       8.442  21.748  56.089  1.00  0.00     0.009 A 
HETATM   15  C   UNL     1       8.296  20.379  55.856  1.00  0.00     0.001 A 
HETATM   16  C   UNL     1       8.418  19.875  54.563  1.00  0.00     0.000 A 
HETATM   17  C   UNL     1       8.680  20.740  53.502  1.00  0.00     0.001 A 
HETATM   18  C   UNL     1       8.825  22.108  53.733  1.00  0.00     0.009 A 
ENDBRANCH  12  13
ENDBRANCH  11  12
ENDBRANCH   8  11
ENDBRANCH   1   5
BRANCH   2  19
HETATM   19  C   UNL     1       3.678  27.041  48.990  1.00  0.00     0.156 A 
HETATM   20  N   UNL     1       3.581  25.953  48.276  1.00  0.00    -0.166 NA
HETATM   21  N   UNL     1       2.607  25.900  47.324  1.00  0.00    -0.242 N 
HETATM   22  C   UNL     1       1.700  26.891  47.038  1.00  0.00     0.272 A 
HETATM   23  H   UNL     1       2.564  25.057  46.758  1.00  0.00     0.192 HD
HETATM   24  O   UNL     1       0.855  26.770  46.158  1.00  0.00    -0.266 OA
HETATM   25  C   UNL     1       1.786  28.109  47.861  1.00  0.00     0.046 A 
HETATM   26  C   UNL     1       2.768  28.199  48.846  1.00  0.00     0.016 A 
HETATM   27  C   UNL     1       0.876  29.155  47.663  1.00  0.00     0.018 A 
HETATM   28  C   UNL     1       2.828  29.342  49.652  1.00  0.00     0.015 A 
HETATM   29  C   UNL     1       1.921  30.388  49.454  1.00  0.00     0.001 A 
HETATM   30  C   UNL     1       0.947  30.296  48.461  1.00  0.00     0.001 A 
ENDBRANCH   2  19
TORSDOF 5
ENDMDL
MODEL 9
REMARK VINA RESULT:      -9.3      6.477     10.164
REMARK  5 active torsions:
REMARK  status: ('A' for Active; 'I' for Inactive)
REMARK    1  A    between atoms: C_4  and  C_5 
REMARK    2  A    between atoms: C_5  and  O_6 
REMARK    3  A    between atoms: O_6  and  C_7 
REMARK    4  A    between atoms: C_10  and  N_11 
REMARK       I    between atoms: N_11  and  C_12 
REMARK    5  A    between atoms: C_12  and  C_13 
ROOT
HETATM    1  N   UNL     1       5.987  26.356  52.433  1.00  0.00    -0.322 N 
HETATM    2  C   UNL     1       5.486  25.394  53.283  1.00  0.00     0.277 C 
HETATM    3  O   UNL     1       4.401  24.837  53.251  1.00  0.00    -0.266 OA
HETATM    4  H   UNL     1       6.975  26.559  52.557  1.00  0.00     0.169 HD
ENDROOT
BRANCH   1   5
HETATM    5  C   UNL     1       5.299  27.057  51.429  1.00  0.00     0.035 A 
HETATM    6  C   UNL     1       4.946  26.499  50.201  1.00  0.00     0.032 A 
HETATM    7  C   UNL     1       4.183  27.234  49.287  1.00  0.00     0.039 A 
HETATM    8  C   UNL     1       3.758  28.527  49.592  1.00  0.00     0.069 A 
HETATM    9  C   UNL     1       4.154  29.110  50.794  1.00  0.00     0.039 A 
HETATM   10  C   UNL     1       4.913  28.373  51.711  1.00  0.00     0.032 A 
BRANCH   8  11
HETATM   11  O   UNL     1       2.974  29.119  48.642  1.00  0.00    -0.347 OA
BRANCH  11  12
HETATM   12  C   UNL     1       2.869  28.432  47.393  1.00  0.00     0.214 C 
BRANCH  12  13
HETATM   13  C   UNL     1       1.480  28.615  46.822  1.00  0.00    -0.034 A 
HETATM   14  C   UNL     1       1.068  29.879  46.374  1.00  0.00     0.009 A 
HETATM   15  C   UNL     1      -0.207  30.062  45.834  1.00  0.00     0.001 A 
HETATM   16  C   UNL     1      -1.080  28.982  45.727  1.00  0.00     0.000 A 
HETATM   17  C   UNL     1      -0.677  27.718  46.151  1.00  0.00     0.001 A 
HETATM   18  C   UNL     1       0.598  27.533  46.689  1.00  0.00     0.009 A 
ENDBRANCH  12  13
ENDBRANCH  11  12
ENDBRANCH   8  11
ENDBRANCH   1   5
BRANCH   2  19
HETATM   19  C   UNL     1       6.489  25.035  54.379  1.00  0.00     0.156 A 
HETATM   20  N   UNL     1       6.463  25.793  55.441  1.00  0.00    -0.166 NA
HETATM   21  N   UNL     1       7.325  25.501  56.454  1.00  0.00    -0.242 N 
HETATM   22  C   UNL     1       8.232  24.469  56.473  1.00  0.00     0.272 A 
HETATM   23  H   UNL     1       7.312  26.118  57.262  1.00  0.00     0.192 HD
HETATM   24  O   UNL     1       8.982  24.274  57.423  1.00  0.00    -0.266 OA
HETATM   25  C   UNL     1       8.244  23.593  55.289  1.00  0.00     0.046 A 
HETATM   26  C   UNL     1       7.375  23.860  54.233  1.00  0.00     0.016 A 
HETATM   27  C   UNL     1       9.112  22.494  55.240  1.00  0.00     0.018 A 
HETATM   28  C   UNL     1       7.362  23.007  53.123  1.00  0.00     0.015 A 
HETATM   29  C   UNL     1       8.228  21.910  53.072  1.00  0.00     0.001 A 
HETATM   30  C   UNL     1       9.102  21.654  54.127  1.00  0.00     0.001 A 
ENDBRANCH   2  19
TORSDOF 5
ENDMDL
MODEL 10
REMARK VINA RESULT:      -9.2      5.811      9.287
REMARK  5 active torsions:
REMARK  status: ('A' for Active; 'I' for Inactive)
REMARK    1  A    between atoms: C_4  and  C_5 
REMARK    2  A    between atoms: C_5  and  O_6 
REMARK    3  A    between atoms: O_6  and  C_7 
REMARK    4  A    between atoms: C_10  and  N_11 
REMARK       I    between atoms: N_11  and  C_12 
REMARK    5  A    between atoms: C_12  and  C_13 
ROOT
HETATM    1  N   UNL     1       6.142  32.751  62.548  1.00  0.00    -0.322 N 
HETATM    2  C   UNL     1       5.729  33.301  61.354  1.00  0.00     0.277 C 
HETATM    3  O   UNL     1       5.224  34.393  61.150  1.00  0.00    -0.266 OA
HETATM    4  H   UNL     1       6.681  31.894  62.457  1.00  0.00     0.169 HD
ENDROOT
BRANCH   1   5
HETATM    5  C   UNL     1       5.919  33.245  63.844  1.00  0.00     0.035 A 
HETATM    6  C   UNL     1       4.650  33.461  64.380  1.00  0.00     0.032 A 
HETATM    7  C   UNL     1       4.507  33.871  65.710  1.00  0.00     0.039 A 
HETATM    8  C   UNL     1       5.627  34.061  66.519  1.00  0.00     0.069 A 
HETATM    9  C   UNL     1       6.899  33.901  65.974  1.00  0.00     0.039 A 
HETATM   10  C   UNL     1       7.042  33.486  64.644  1.00  0.00     0.032 A 
BRANCH   8  11
HETATM   11  O   UNL     1       5.355  34.408  67.813  1.00  0.00    -0.347 OA
BRANCH  11  12
HETATM   12  C   UNL     1       6.267  35.323  68.426  1.00  0.00     0.214 C 
BRANCH  12  13
HETATM   13  C   UNL     1       6.955  34.655  69.596  1.00  0.00    -0.034 A 
HETATM   14  C   UNL     1       6.346  33.565  70.237  1.00  0.00     0.009 A 
HETATM   15  C   UNL     1       6.972  32.931  71.312  1.00  0.00     0.001 A 
HETATM   16  C   UNL     1       8.220  33.371  71.751  1.00  0.00     0.000 A 
HETATM   17  C   UNL     1       8.843  34.440  71.111  1.00  0.00     0.001 A 
HETATM   18  C   UNL     1       8.219  35.074  70.036  1.00  0.00     0.009 A 
ENDBRANCH  12  13
ENDBRANCH  11  12
ENDBRANCH   8  11
ENDBRANCH   1   5
BRANCH   2  19
HETATM   19  C   UNL     1       5.974  32.350  60.183  1.00  0.00     0.156 A 
HETATM   20  N   UNL     1       4.908  31.945  59.549  1.00  0.00    -0.166 NA
HETATM   21  N   UNL     1       5.077  31.112  58.485  1.00  0.00    -0.242 N 
HETATM   22  C   UNL     1       6.277  30.650  58.001  1.00  0.00     0.272 A 
HETATM   23  H   UNL     1       4.235  30.783  58.020  1.00  0.00     0.192 HD
HETATM   24  O   UNL     1       6.347  29.893  57.039  1.00  0.00    -0.266 OA
HETATM   25  C   UNL     1       7.485  31.129  58.694  1.00  0.00     0.046 A 
HETATM   26  C   UNL     1       7.351  31.984  59.787  1.00  0.00     0.016 A 
HETATM   27  C   UNL     1       8.753  30.738  58.245  1.00  0.00     0.018 A 
HETATM   28  C   UNL     1       8.500  32.466  60.424  1.00  0.00     0.015 A 
HETATM   29  C   UNL     1       9.767  32.076  59.976  1.00  0.00     0.001 A 
HETATM   30  C   UNL     1       9.894  31.213  58.890  1.00  0.00     0.001 A 
ENDBRANCH   2  19
TORSDOF 5
ENDMDL
