MODEL 1
REMARK VINA RESULT:     -10.8      0.000      0.000
REMARK  5 active torsions:
REMARK  status: ('A' for Active; 'I' for Inactive)
REMARK    1  A    between atoms: C_14  and  C_15 
REMARK    2  A    between atoms: C_15  and  C_16 
REMARK    3  A    between atoms: C_16  and  C_17 
REMARK       I    between atoms: C_17  and  N_18 
REMARK    4  A    between atoms: N_21  and  C_22 
REMARK    5  A    between atoms: C_23  and  O_24 
ROOT
HETATM    1  C   UNL     1       7.494  25.664  55.651  1.00  0.00     0.051 C 
ENDROOT
BRANCH   1   2
HETATM    2  C   UNL     1       7.414  24.732  54.477  1.00  0.00    -0.017 A 
HETATM    3  C   UNL     1       7.859  23.363  54.510  1.00  0.00    -0.000 A 
HETATM    4  C   UNL     1       8.444  22.546  55.503  1.00  0.00     0.021 A 
HETATM    5  C   UNL     1       7.611  22.808  53.263  1.00  0.00     0.043 A 
HETATM    6  C   UNL     1       8.771  21.210  55.212  1.00  0.00    -0.061 A 
HETATM    7  C   UNL     1       9.358  20.325  56.273  1.00  0.00     0.048 C 
HETATM    8  C   UNL     1       8.495  20.692  53.943  1.00  0.00     0.009 A 
HETATM    9  C   UNL     1       7.915  21.480  52.944  1.00  0.00     0.031 A 
HETATM   10  N   UNL     1       7.037  23.791  52.501  1.00  0.00    -0.354 N 
HETATM   11  H   UNL     1       6.735  23.671  51.544  1.00  0.00     0.166 HD
HETATM   12  C   UNL     1       6.906  24.969  53.203  1.00  0.00     0.057 A 
HETATM   13  C   UNL     1       6.320  26.137  52.586  1.00  0.00     0.032 A 
HETATM   14  S   UNL     1       5.363  26.000  51.156  1.00  0.00    -0.100 SA
HETATM   15  C   UNL     1       6.410  27.460  52.976  1.00  0.00     0.021 A 
HETATM   16  C   UNL     1       5.076  27.680  51.089  1.00  0.00     0.050 A 
HETATM   17  C   UNL     1       5.693  28.348  52.119  1.00  0.00     0.008 A 
ENDBRANCH   1   2
BRANCH   1  18
HETATM   18  C   UNL     1       6.181  25.716  56.432  1.00  0.00     0.108 C 
BRANCH  18  19
HETATM   19  C   UNL     1       5.697  27.143  56.622  1.00  0.00     0.220 C 
HETATM   20  N   UNL     1       6.594  28.043  57.181  1.00  0.00    -0.349 N 
HETATM   21  C   UNL     1       7.904  27.699  57.748  1.00  0.00     0.145 C 
HETATM   22  C   UNL     1       6.124  29.391  57.520  1.00  0.00     0.145 C 
HETATM   23  C   UNL     1       8.969  28.785  57.487  1.00  0.00     0.143 C 
HETATM   24  N   UNL     1       8.501  30.164  57.750  1.00  0.00    -0.376 N 
HETATM   25  C   UNL     1       7.165  30.462  57.165  1.00  0.00     0.143 C 
HETATM   26  O   UNL     1       4.564  27.481  56.282  1.00  0.00    -0.273 OA
BRANCH  24  27
HETATM   27  C   UNL     1       8.727  30.741  59.008  1.00  0.00     0.063 A 
HETATM   28  C   UNL     1       9.778  31.670  59.150  1.00  0.00     0.092 A 
HETATM   29  C   UNL     1      10.057  32.322  60.347  1.00  0.00     0.039 A 
HETATM   30  C   UNL     1       9.287  32.031  61.467  1.00  0.00     0.003 A 
HETATM   31  C   UNL     1       8.261  31.091  61.375  1.00  0.00     0.002 A 
HETATM   32  C   UNL     1       7.987  30.449  60.158  1.00  0.00     0.032 A 
BRANCH  28  33
HETATM   33  O   UNL     1      10.611  31.903  58.084  1.00  0.00    -0.358 OA
HETATM   34  H   UNL     1      11.195  32.615  58.415  1.00  0.00     0.218 HD
ENDBRANCH  28  33
ENDBRANCH  24  27
ENDBRANCH  18  19
ENDBRANCH   1  18
TORSDOF 5
ENDMDL
MODEL 2
REMARK VINA RESULT:     -10.5      1.317      1.470
REMARK  5 active torsions:
REMARK  status: ('A' for Active; 'I' for Inactive)
REMARK    1  A    between atoms: C_14  and  C_15 
REMARK    2  A    between atoms: C_15  and  C_16 
REMARK    3  A    between atoms: C_16  and  C_17 
REMARK       I    between atoms: C_17  and  N_18 
REMARK    4  A    between atoms: N_21  and  C_22 
REMARK    5  A    between atoms: C_23  and  O_24 
ROOT
HETATM    1  C   UNL     1       5.561  25.481  55.584  1.00  0.00     0.051 C 
ENDROOT
BRANCH   1   2
HETATM    2  C   UNL     1       6.168  24.793  54.395  1.00  0.00    -0.017 A 
HETATM    3  C   UNL     1       6.940  23.581  54.479  1.00  0.00    -0.000 A 
HETATM    4  C   UNL     1       7.343  22.746  55.545  1.00  0.00     0.021 A 
HETATM    5  C   UNL     1       7.315  23.229  53.189  1.00  0.00     0.043 A 
HETATM    6  C   UNL     1       8.116  21.600  55.288  1.00  0.00    -0.061 A 
HETATM    7  C   UNL     1       8.515  20.689  56.412  1.00  0.00     0.048 C 
HETATM    8  C   UNL     1       8.463  21.282  53.972  1.00  0.00     0.009 A 
HETATM    9  C   UNL     1       8.074  22.090  52.899  1.00  0.00     0.031 A 
HETATM   10  N   UNL     1       6.793  24.181  52.353  1.00  0.00    -0.354 N 
HETATM   11  H   UNL     1       6.895  24.178  51.348  1.00  0.00     0.166 HD
HETATM   12  C   UNL     1       6.096  25.144  53.050  1.00  0.00     0.057 A 
HETATM   13  C   UNL     1       5.461  26.243  52.358  1.00  0.00     0.032 A 
HETATM   14  S   UNL     1       5.150  26.162  50.663  1.00  0.00    -0.100 SA
HETATM   15  C   UNL     1       5.030  27.453  52.867  1.00  0.00     0.021 A 
HETATM   16  C   UNL     1       4.442  27.715  50.636  1.00  0.00     0.050 A 
HETATM   17  C   UNL     1       4.441  28.299  51.880  1.00  0.00     0.008 A 
ENDBRANCH   1   2
BRANCH   1  18
HETATM   18  C   UNL     1       6.495  26.540  56.172  1.00  0.00     0.108 C 
BRANCH  18  19
HETATM   19  C   UNL     1       5.729  27.763  56.642  1.00  0.00     0.220 C 
HETATM   20  N   UNL     1       6.429  28.690  57.402  1.00  0.00    -0.349 N 
HETATM   21  C   UNL     1       7.791  28.512  57.921  1.00  0.00     0.145 C 
HETATM   22  C   UNL     1       5.696  29.810  58.003  1.00  0.00     0.145 C 
HETATM   23  C   UNL     1       8.603  29.825  57.924  1.00  0.00     0.143 C 
HETATM   24  N   UNL     1       7.864  30.990  58.457  1.00  0.00    -0.376 N 
HETATM   25  C   UNL     1       6.486  31.123  57.911  1.00  0.00     0.143 C 
HETATM   26  O   UNL     1       4.545  27.925  56.349  1.00  0.00    -0.273 OA
BRANCH  24  27
HETATM   27  C   UNL     1       7.985  31.323  59.814  1.00  0.00     0.063 A 
HETATM   28  C   UNL     1       7.210  32.384  60.325  1.00  0.00     0.092 A 
HETATM   29  C   UNL     1       7.233  32.765  61.662  1.00  0.00     0.039 A 
HETATM   30  C   UNL     1       8.077  32.092  62.539  1.00  0.00     0.003 A 
HETATM   31  C   UNL     1       8.885  31.060  62.065  1.00  0.00     0.002 A 
HETATM   32  C   UNL     1       8.843  30.682  60.714  1.00  0.00     0.032 A 
BRANCH  28  33
HETATM   33  O   UNL     1       6.441  33.124  59.461  1.00  0.00    -0.358 OA
HETATM   34  H   UNL     1       6.653  34.045  59.715  1.00  0.00     0.218 HD
ENDBRANCH  28  33
ENDBRANCH  24  27
ENDBRANCH  18  19
ENDBRANCH   1  18
TORSDOF 5
ENDMDL
MODEL 3
REMARK VINA RESULT:     -10.3      3.837      8.305
REMARK  5 active torsions:
REMARK  status: ('A' for Active; 'I' for Inactive)
REMARK    1  A    between atoms: C_14  and  C_15 
REMARK    2  A    between atoms: C_15  and  C_16 
REMARK    3  A    between atoms: C_16  and  C_17 
REMARK       I    between atoms: C_17  and  N_18 
REMARK    4  A    between atoms: N_21  and  C_22 
REMARK    5  A    between atoms: C_23  and  O_24 
ROOT
HETATM    1  C   UNL     1       7.261  26.019  52.695  1.00  0.00     0.051 C 
ENDROOT
BRANCH   1   2
HETATM    2  C   UNL     1       7.405  25.297  54.004  1.00  0.00    -0.017 A 
HETATM    3  C   UNL     1       7.622  23.878  54.116  1.00  0.00    -0.000 A 
HETATM    4  C   UNL     1       7.747  22.828  53.179  1.00  0.00     0.021 A 
HETATM    5  C   UNL     1       7.728  23.572  55.466  1.00  0.00     0.043 A 
HETATM    6  C   UNL     1       7.961  21.511  53.622  1.00  0.00    -0.061 A 
HETATM    7  C   UNL     1       8.133  20.398  52.631  1.00  0.00     0.048 C 
HETATM    8  C   UNL     1       8.069  21.253  54.991  1.00  0.00     0.009 A 
HETATM    9  C   UNL     1       7.950  22.275  55.938  1.00  0.00     0.031 A 
HETATM   10  N   UNL     1       7.586  24.751  56.149  1.00  0.00    -0.354 N 
HETATM   11  H   UNL     1       7.630  24.839  57.155  1.00  0.00     0.166 HD
HETATM   12  C   UNL     1       7.385  25.815  55.296  1.00  0.00     0.057 A 
HETATM   13  C   UNL     1       7.214  27.154  55.811  1.00  0.00     0.032 A 
HETATM   14  S   UNL     1       7.698  27.555  57.418  1.00  0.00    -0.100 SA
HETATM   15  C   UNL     1       6.675  28.261  55.183  1.00  0.00     0.021 A 
HETATM   16  C   UNL     1       7.202  29.179  57.250  1.00  0.00     0.050 A 
HETATM   17  C   UNL     1       6.670  29.427  56.007  1.00  0.00     0.008 A 
ENDBRANCH   1   2
BRANCH   1  18
HETATM   18  C   UNL     1       5.947  25.676  51.992  1.00  0.00     0.108 C 
BRANCH  18  19
HETATM   19  C   UNL     1       4.951  26.817  52.077  1.00  0.00     0.220 C 
HETATM   20  N   UNL     1       4.558  27.401  50.880  1.00  0.00    -0.349 N 
HETATM   21  C   UNL     1       5.140  27.117  49.563  1.00  0.00     0.145 C 
HETATM   22  C   UNL     1       3.714  28.600  50.922  1.00  0.00     0.145 C 
HETATM   23  C   UNL     1       4.093  27.150  48.430  1.00  0.00     0.143 C 
HETATM   24  N   UNL     1       3.178  28.311  48.487  1.00  0.00    -0.376 N 
HETATM   25  C   UNL     1       2.621  28.566  49.844  1.00  0.00     0.143 C 
HETATM   26  O   UNL     1       4.506  27.195  53.161  1.00  0.00    -0.273 OA
BRANCH  24  27
HETATM   27  C   UNL     1       3.488  29.470  47.759  1.00  0.00     0.063 A 
HETATM   28  C   UNL     1       2.656  29.837  46.681  1.00  0.00     0.092 A 
HETATM   29  C   UNL     1       2.860  30.985  45.924  1.00  0.00     0.039 A 
HETATM   30  C   UNL     1       3.945  31.802  46.217  1.00  0.00     0.003 A 
HETATM   31  C   UNL     1       4.811  31.455  47.254  1.00  0.00     0.002 A 
HETATM   32  C   UNL     1       4.586  30.297  48.014  1.00  0.00     0.032 A 
BRANCH  28  33
HETATM   33  O   UNL     1       1.635  28.997  46.312  1.00  0.00    -0.358 OA
HETATM   34  H   UNL     1       1.249  29.452  45.537  1.00  0.00     0.218 HD
ENDBRANCH  28  33
ENDBRANCH  24  27
ENDBRANCH  18  19
ENDBRANCH   1  18
TORSDOF 5
ENDMDL
MODEL 4
REMARK VINA RESULT:      -9.8      3.843      8.690
REMARK  5 active torsions:
REMARK  status: ('A' for Active; 'I' for Inactive)
REMARK    1  A    between atoms: C_14  and  C_15 
REMARK    2  A    between atoms: C_15  and  C_16 
REMARK    3  A    between atoms: C_16  and  C_17 
REMARK       I    between atoms: C_17  and  N_18 
REMARK    4  A    between atoms: N_21  and  C_22 
REMARK    5  A    between atoms: C_23  and  O_24 
ROOT
HETATM    1  C   UNL     1       5.288  26.980  54.601  1.00  0.00     0.051 C 
ENDROOT
BRANCH   1   2
HETATM    2  C   UNL     1       6.366  26.573  55.564  1.00  0.00    -0.017 A 
HETATM    3  C   UNL     1       7.044  25.304  55.518  1.00  0.00    -0.000 A 
HETATM    4  C   UNL     1       6.944  24.168  54.684  1.00  0.00     0.021 A 
HETATM    5  C   UNL     1       7.985  25.290  56.539  1.00  0.00     0.043 A 
HETATM    6  C   UNL     1       7.774  23.056  54.906  1.00  0.00    -0.061 A 
HETATM    7  C   UNL     1       7.698  21.861  54.001  1.00  0.00     0.048 C 
HETATM    8  C   UNL     1       8.712  23.091  55.942  1.00  0.00     0.009 A 
HETATM    9  C   UNL     1       8.833  24.204  56.780  1.00  0.00     0.031 A 
HETATM   10  N   UNL     1       7.889  26.498  57.179  1.00  0.00    -0.354 N 
HETATM   11  H   UNL     1       8.464  26.778  57.962  1.00  0.00     0.166 HD
HETATM   12  C   UNL     1       6.918  27.298  56.618  1.00  0.00     0.057 A 
HETATM   13  C   UNL     1       6.653  28.618  57.141  1.00  0.00     0.032 A 
HETATM   14  S   UNL     1       7.803  29.420  58.148  1.00  0.00    -0.100 SA
HETATM   15  C   UNL     1       5.537  29.414  56.962  1.00  0.00     0.021 A 
HETATM   16  C   UNL     1       6.815  30.801  58.315  1.00  0.00     0.050 A 
HETATM   17  C   UNL     1       5.629  30.670  57.633  1.00  0.00     0.008 A 
ENDBRANCH   1   2
BRANCH   1  18
HETATM   18  C   UNL     1       5.817  27.907  53.506  1.00  0.00     0.108 C 
BRANCH  18  19
HETATM   19  C   UNL     1       5.907  27.200  52.166  1.00  0.00     0.220 C 
HETATM   20  N   UNL     1       5.114  27.693  51.139  1.00  0.00    -0.349 N 
HETATM   21  C   UNL     1       4.086  28.731  51.281  1.00  0.00     0.145 C 
HETATM   22  C   UNL     1       5.055  26.953  49.874  1.00  0.00     0.145 C 
HETATM   23  C   UNL     1       4.004  29.659  50.050  1.00  0.00     0.143 C 
HETATM   24  N   UNL     1       4.016  28.945  48.754  1.00  0.00    -0.376 N 
HETATM   25  C   UNL     1       5.068  27.895  48.662  1.00  0.00     0.143 C 
HETATM   26  O   UNL     1       6.660  26.240  52.002  1.00  0.00    -0.273 OA
BRANCH  24  27
HETATM   27  C   UNL     1       2.801  28.605  48.141  1.00  0.00     0.063 A 
HETATM   28  C   UNL     1       2.291  29.448  47.133  1.00  0.00     0.092 A 
HETATM   29  C   UNL     1       1.114  29.177  46.443  1.00  0.00     0.039 A 
HETATM   30  C   UNL     1       0.385  28.040  46.774  1.00  0.00     0.003 A 
HETATM   31  C   UNL     1       0.840  27.200  47.790  1.00  0.00     0.002 A 
HETATM   32  C   UNL     1       2.034  27.483  48.470  1.00  0.00     0.032 A 
BRANCH  28  33
HETATM   33  O   UNL     1       2.941  30.624  46.855  1.00  0.00    -0.358 OA
HETATM   34  H   UNL     1       3.368  30.439  45.994  1.00  0.00     0.218 HD
ENDBRANCH  28  33
ENDBRANCH  24  27
ENDBRANCH  18  19
ENDBRANCH   1  18
TORSDOF 5
ENDMDL
MODEL 5
REMARK VINA RESULT:      -9.8      3.374      9.188
REMARK  5 active torsions:
REMARK  status: ('A' for Active; 'I' for Inactive)
REMARK    1  A    between atoms: C_14  and  C_15 
REMARK    2  A    between atoms: C_15  and  C_16 
REMARK    3  A    between atoms: C_16  and  C_17 
REMARK       I    between atoms: C_17  and  N_18 
REMARK    4  A    between atoms: N_21  and  C_22 
REMARK    5  A    between atoms: C_23  and  O_24 
ROOT
HETATM    1  C   UNL     1       6.806  31.019  57.565  1.00  0.00     0.051 C 
ENDROOT
BRANCH   1   2
HETATM    2  C   UNL     1       6.452  31.794  58.801  1.00  0.00    -0.017 A 
HETATM    3  C   UNL     1       7.163  31.682  60.048  1.00  0.00    -0.000 A 
HETATM    4  C   UNL     1       8.268  30.916  60.481  1.00  0.00     0.021 A 
HETATM    5  C   UNL     1       6.574  32.556  60.951  1.00  0.00     0.043 A 
HETATM    6  C   UNL     1       8.737  31.040  61.801  1.00  0.00    -0.061 A 
HETATM    7  C   UNL     1       9.934  30.258  62.256  1.00  0.00     0.048 C 
HETATM    8  C   UNL     1       8.116  31.940  62.672  1.00  0.00     0.009 A 
HETATM    9  C   UNL     1       7.022  32.711  62.267  1.00  0.00     0.031 A 
HETATM   10  N   UNL     1       5.549  33.178  60.287  1.00  0.00    -0.354 N 
HETATM   11  H   UNL     1       4.947  33.880  60.692  1.00  0.00     0.166 HD
HETATM   12  C   UNL     1       5.445  32.738  58.985  1.00  0.00     0.057 A 
HETATM   13  C   UNL     1       4.429  33.268  58.104  1.00  0.00     0.032 A 
HETATM   14  S   UNL     1       3.627  34.752  58.467  1.00  0.00    -0.100 SA
HETATM   15  C   UNL     1       3.944  32.738  56.923  1.00  0.00     0.021 A 
HETATM   16  C   UNL     1       2.670  34.675  57.057  1.00  0.00     0.050 A 
HETATM   17  C   UNL     1       2.935  33.547  56.318  1.00  0.00     0.008 A 
ENDBRANCH   1   2
BRANCH   1  18
HETATM   18  C   UNL     1       7.165  29.567  57.882  1.00  0.00     0.108 C 
BRANCH  18  19
HETATM   19  C   UNL     1       6.097  28.605  57.395  1.00  0.00     0.220 C 
HETATM   20  N   UNL     1       6.524  27.358  56.960  1.00  0.00    -0.349 N 
HETATM   21  C   UNL     1       7.923  26.951  56.781  1.00  0.00     0.145 C 
HETATM   22  C   UNL     1       5.547  26.453  56.342  1.00  0.00     0.145 C 
HETATM   23  C   UNL     1       8.163  25.472  57.150  1.00  0.00     0.143 C 
HETATM   24  N   UNL     1       7.152  24.541  56.603  1.00  0.00    -0.376 N 
HETATM   25  C   UNL     1       5.750  25.000  56.797  1.00  0.00     0.143 C 
HETATM   26  O   UNL     1       4.907  28.920  57.400  1.00  0.00    -0.273 OA
BRANCH  24  27
HETATM   27  C   UNL     1       7.391  23.909  55.373  1.00  0.00     0.063 A 
HETATM   28  C   UNL     1       7.786  22.555  55.371  1.00  0.00     0.092 A 
HETATM   29  C   UNL     1       8.010  21.832  54.204  1.00  0.00     0.039 A 
HETATM   30  C   UNL     1       7.867  22.472  52.978  1.00  0.00     0.003 A 
HETATM   31  C   UNL     1       7.511  23.820  52.940  1.00  0.00     0.002 A 
HETATM   32  C   UNL     1       7.280  24.532  54.127  1.00  0.00     0.032 A 
BRANCH  28  33
HETATM   33  O   UNL     1       8.027  21.929  56.569  1.00  0.00    -0.358 OA
HETATM   34  H   UNL     1       8.268  21.021  56.296  1.00  0.00     0.218 HD
ENDBRANCH  28  33
ENDBRANCH  24  27
ENDBRANCH  18  19
ENDBRANCH   1  18
TORSDOF 5
ENDMDL
MODEL 6
REMARK VINA RESULT:      -9.8      1.579      4.439
REMARK  5 active torsions:
REMARK  status: ('A' for Active; 'I' for Inactive)
REMARK    1  A    between atoms: C_14  and  C_15 
REMARK    2  A    between atoms: C_15  and  C_16 
REMARK    3  A    between atoms: C_16  and  C_17 
REMARK       I    between atoms: C_17  and  N_18 
REMARK    4  A    between atoms: N_21  and  C_22 
REMARK    5  A    between atoms: C_23  and  O_24 
ROOT
HETATM    1  C   UNL     1       5.694  25.843  55.759  1.00  0.00     0.051 C 
ENDROOT
BRANCH   1   2
HETATM    2  C   UNL     1       5.893  25.459  54.321  1.00  0.00    -0.017 A 
HETATM    3  C   UNL     1       5.372  26.214  53.212  1.00  0.00    -0.000 A 
HETATM    4  C   UNL     1       4.603  27.394  53.103  1.00  0.00     0.021 A 
HETATM    5  C   UNL     1       5.769  25.578  52.044  1.00  0.00     0.043 A 
HETATM    6  C   UNL     1       4.248  27.889  51.836  1.00  0.00    -0.061 A 
HETATM    7  C   UNL     1       3.464  29.163  51.713  1.00  0.00     0.048 C 
HETATM    8  C   UNL     1       4.678  27.218  50.688  1.00  0.00     0.009 A 
HETATM    9  C   UNL     1       5.442  26.050  50.768  1.00  0.00     0.031 A 
HETATM   10  N   UNL     1       6.503  24.484  52.421  1.00  0.00    -0.354 N 
HETATM   11  H   UNL     1       6.934  23.834  51.778  1.00  0.00     0.166 HD
HETATM   12  C   UNL     1       6.595  24.379  53.792  1.00  0.00     0.057 A 
HETATM   13  C   UNL     1       7.329  23.295  54.404  1.00  0.00     0.032 A 
HETATM   14  S   UNL     1       8.475  22.378  53.497  1.00  0.00    -0.100 SA
HETATM   15  C   UNL     1       7.257  22.824  55.701  1.00  0.00     0.021 A 
HETATM   16  C   UNL     1       8.863  21.390  54.833  1.00  0.00     0.050 A 
HETATM   17  C   UNL     1       8.140  21.731  55.951  1.00  0.00     0.008 A 
ENDBRANCH   1   2
BRANCH   1  18
HETATM   18  C   UNL     1       6.587  27.015  56.168  1.00  0.00     0.108 C 
BRANCH  18  19
HETATM   19  C   UNL     1       5.771  28.195  56.663  1.00  0.00     0.220 C 
HETATM   20  N   UNL     1       6.419  29.112  57.479  1.00  0.00    -0.349 N 
HETATM   21  C   UNL     1       7.770  28.953  58.032  1.00  0.00     0.145 C 
HETATM   22  C   UNL     1       5.635  30.184  58.101  1.00  0.00     0.145 C 
HETATM   23  C   UNL     1       8.541  30.288  58.110  1.00  0.00     0.143 C 
HETATM   24  N   UNL     1       7.752  31.409  58.665  1.00  0.00    -0.376 N 
HETATM   25  C   UNL     1       6.386  31.523  58.083  1.00  0.00     0.143 C 
HETATM   26  O   UNL     1       4.591  28.334  56.340  1.00  0.00    -0.273 OA
BRANCH  24  27
HETATM   27  C   UNL     1       7.823  31.691  60.038  1.00  0.00     0.063 A 
HETATM   28  C   UNL     1       9.044  32.151  60.573  1.00  0.00     0.092 A 
HETATM   29  C   UNL     1       9.204  32.491  61.912  1.00  0.00     0.039 A 
HETATM   30  C   UNL     1       8.125  32.348  62.777  1.00  0.00     0.003 A 
HETATM   31  C   UNL     1       6.911  31.862  62.292  1.00  0.00     0.002 A 
HETATM   32  C   UNL     1       6.764  31.532  60.936  1.00  0.00     0.032 A 
BRANCH  28  33
HETATM   33  O   UNL     1      10.149  32.210  59.760  1.00  0.00    -0.358 OA
HETATM   34  H   UNL     1       9.908  32.906  59.115  1.00  0.00     0.218 HD
ENDBRANCH  28  33
ENDBRANCH  24  27
ENDBRANCH  18  19
ENDBRANCH   1  18
TORSDOF 5
ENDMDL
MODEL 7
REMARK VINA RESULT:      -9.7      3.787      8.914
REMARK  5 active torsions:
REMARK  status: ('A' for Active; 'I' for Inactive)
REMARK    1  A    between atoms: C_14  and  C_15 
REMARK    2  A    between atoms: C_15  and  C_16 
REMARK    3  A    between atoms: C_16  and  C_17 
REMARK       I    between atoms: C_17  and  N_18 
REMARK    4  A    between atoms: N_21  and  C_22 
REMARK    5  A    between atoms: C_23  and  O_24 
ROOT
HETATM    1  C   UNL     1       5.716  24.934  53.377  1.00  0.00     0.051 C 
ENDROOT
BRANCH   1   2
HETATM    2  C   UNL     1       6.690  24.915  54.521  1.00  0.00    -0.017 A 
HETATM    3  C   UNL     1       6.808  25.973  55.490  1.00  0.00    -0.000 A 
HETATM    4  C   UNL     1       6.155  27.213  55.673  1.00  0.00     0.021 A 
HETATM    5  C   UNL     1       7.785  25.602  56.403  1.00  0.00     0.043 A 
HETATM    6  C   UNL     1       6.510  28.042  56.751  1.00  0.00    -0.061 A 
HETATM    7  C   UNL     1       5.795  29.343  56.973  1.00  0.00     0.048 C 
HETATM    8  C   UNL     1       7.495  27.623  57.650  1.00  0.00     0.009 A 
HETATM    9  C   UNL     1       8.154  26.400  57.491  1.00  0.00     0.031 A 
HETATM   10  N   UNL     1       8.243  24.371  56.013  1.00  0.00    -0.354 N 
HETATM   11  H   UNL     1       8.955  23.844  56.499  1.00  0.00     0.166 HD
HETATM   12  C   UNL     1       7.605  23.927  54.875  1.00  0.00     0.057 A 
HETATM   13  C   UNL     1       7.936  22.646  54.293  1.00  0.00     0.032 A 
HETATM   14  S   UNL     1       8.771  21.446  55.209  1.00  0.00    -0.100 SA
HETATM   15  C   UNL     1       7.681  22.183  53.016  1.00  0.00     0.021 A 
HETATM   16  C   UNL     1       8.768  20.337  53.912  1.00  0.00     0.050 A 
HETATM   17  C   UNL     1       8.155  20.855  52.796  1.00  0.00     0.008 A 
ENDBRANCH   1   2
BRANCH   1  18
HETATM   18  C   UNL     1       5.993  26.084  52.408  1.00  0.00     0.108 C 
BRANCH  18  19
HETATM   19  C   UNL     1       4.803  27.019  52.293  1.00  0.00     0.220 C 
HETATM   20  N   UNL     1       4.539  27.550  51.037  1.00  0.00    -0.349 N 
HETATM   21  C   UNL     1       5.399  27.412  49.856  1.00  0.00     0.145 C 
HETATM   22  C   UNL     1       3.494  28.571  50.907  1.00  0.00     0.145 C 
HETATM   23  C   UNL     1       4.594  27.279  48.546  1.00  0.00     0.143 C 
HETATM   24  N   UNL     1       3.485  28.250  48.418  1.00  0.00    -0.376 N 
HETATM   25  C   UNL     1       2.648  28.363  49.643  1.00  0.00     0.143 C 
HETATM   26  O   UNL     1       4.102  27.281  53.269  1.00  0.00    -0.273 OA
BRANCH  24  27
HETATM   27  C   UNL     1       3.704  29.464  47.750  1.00  0.00     0.063 A 
HETATM   28  C   UNL     1       2.799  29.856  46.742  1.00  0.00     0.092 A 
HETATM   29  C   UNL     1       2.910  31.057  46.049  1.00  0.00     0.039 A 
HETATM   30  C   UNL     1       3.974  31.904  46.336  1.00  0.00     0.003 A 
HETATM   31  C   UNL     1       4.910  31.535  47.302  1.00  0.00     0.002 A 
HETATM   32  C   UNL     1       4.778  30.323  47.998  1.00  0.00     0.032 A 
BRANCH  28  33
HETATM   33  O   UNL     1       1.796  28.994  46.374  1.00  0.00    -0.358 OA
HETATM   34  H   UNL     1       2.016  28.179  46.869  1.00  0.00     0.218 HD
ENDBRANCH  28  33
ENDBRANCH  24  27
ENDBRANCH  18  19
ENDBRANCH   1  18
TORSDOF 5
ENDMDL
MODEL 8
REMARK VINA RESULT:      -9.4      2.705      4.070
REMARK  5 active torsions:
REMARK  status: ('A' for Active; 'I' for Inactive)
REMARK    1  A    between atoms: C_14  and  C_15 
REMARK    2  A    between atoms: C_15  and  C_16 
REMARK    3  A    between atoms: C_16  and  C_17 
REMARK       I    between atoms: C_17  and  N_18 
REMARK    4  A    between atoms: N_21  and  C_22 
REMARK    5  A    between atoms: C_23  and  O_24 
ROOT
HETATM    1  C   UNL     1       6.308  25.966  55.611  1.00  0.00     0.051 C 
ENDROOT
BRANCH   1   2
HETATM    2  C   UNL     1       6.621  25.048  54.465  1.00  0.00    -0.017 A 
HETATM    3  C   UNL     1       7.179  23.731  54.623  1.00  0.00    -0.000 A 
HETATM    4  C   UNL     1       7.575  22.962  55.740  1.00  0.00     0.021 A 
HETATM    5  C   UNL     1       7.310  23.172  53.359  1.00  0.00     0.043 A 
HETATM    6  C   UNL     1       8.099  21.670  55.555  1.00  0.00    -0.061 A 
HETATM    7  C   UNL     1       8.486  20.833  56.739  1.00  0.00     0.048 C 
HETATM    8  C   UNL     1       8.204  21.146  54.263  1.00  0.00     0.009 A 
HETATM    9  C   UNL     1       7.816  21.887  53.142  1.00  0.00     0.031 A 
HETATM   10  N   UNL     1       6.849  24.104  52.467  1.00  0.00    -0.354 N 
HETATM   11  H   UNL     1       6.811  23.969  51.466  1.00  0.00     0.166 HD
HETATM   12  C   UNL     1       6.427  25.253  53.101  1.00  0.00     0.057 A 
HETATM   13  C   UNL     1       5.901  26.365  52.344  1.00  0.00     0.032 A 
HETATM   14  S   UNL     1       5.353  26.153  50.721  1.00  0.00    -0.100 SA
HETATM   15  C   UNL     1       5.755  27.684  52.729  1.00  0.00     0.021 A 
HETATM   16  C   UNL     1       4.923  27.797  50.565  1.00  0.00     0.050 A 
HETATM   17  C   UNL     1       5.191  28.508  51.710  1.00  0.00     0.008 A 
ENDBRANCH   1   2
BRANCH   1  18
HETATM   18  C   UNL     1       7.368  27.055  55.779  1.00  0.00     0.108 C 
BRANCH  18  19
HETATM   19  C   UNL     1       7.033  27.992  56.925  1.00  0.00     0.220 C 
HETATM   20  N   UNL     1       6.103  28.990  56.671  1.00  0.00    -0.349 N 
HETATM   21  C   UNL     1       5.539  29.315  55.355  1.00  0.00     0.145 C 
HETATM   22  C   UNL     1       5.859  30.008  57.700  1.00  0.00     0.145 C 
HETATM   23  C   UNL     1       4.059  29.744  55.431  1.00  0.00     0.143 C 
HETATM   24  N   UNL     1       3.767  30.715  56.507  1.00  0.00    -0.376 N 
HETATM   25  C   UNL     1       4.367  30.351  57.820  1.00  0.00     0.143 C 
HETATM   26  O   UNL     1       7.558  27.859  58.030  1.00  0.00    -0.273 OA
BRANCH  24  27
HETATM   27  C   UNL     1       3.787  32.089  56.222  1.00  0.00     0.063 A 
HETATM   28  C   UNL     1       2.602  32.705  55.767  1.00  0.00     0.092 A 
HETATM   29  C   UNL     1       2.513  34.065  55.492  1.00  0.00     0.039 A 
HETATM   30  C   UNL     1       3.644  34.859  55.644  1.00  0.00     0.003 A 
HETATM   31  C   UNL     1       4.843  34.280  56.059  1.00  0.00     0.002 A 
HETATM   32  C   UNL     1       4.914  32.907  56.340  1.00  0.00     0.032 A 
BRANCH  28  33
HETATM   33  O   UNL     1       1.499  31.926  55.518  1.00  0.00    -0.358 OA
HETATM   34  H   UNL     1       1.650  31.622  54.600  1.00  0.00     0.218 HD
ENDBRANCH  28  33
ENDBRANCH  24  27
ENDBRANCH  18  19
ENDBRANCH   1  18
TORSDOF 5
ENDMDL
MODEL 9
REMARK VINA RESULT:      -9.4      3.678      9.806
REMARK  5 active torsions:
REMARK  status: ('A' for Active; 'I' for Inactive)
REMARK    1  A    between atoms: C_14  and  C_15 
REMARK    2  A    between atoms: C_15  and  C_16 
REMARK    3  A    between atoms: C_16  and  C_17 
REMARK       I    between atoms: C_17  and  N_18 
REMARK    4  A    between atoms: N_21  and  C_22 
REMARK    5  A    between atoms: C_23  and  O_24 
ROOT
HETATM    1  C   UNL     1       7.020  30.877  57.404  1.00  0.00     0.051 C 
ENDROOT
BRANCH   1   2
HETATM    2  C   UNL     1       6.282  31.823  58.306  1.00  0.00    -0.017 A 
HETATM    3  C   UNL     1       5.175  32.638  57.879  1.00  0.00    -0.000 A 
HETATM    4  C   UNL     1       4.502  32.811  56.649  1.00  0.00     0.021 A 
HETATM    5  C   UNL     1       4.735  33.363  58.978  1.00  0.00     0.043 A 
HETATM    6  C   UNL     1       3.424  33.710  56.557  1.00  0.00    -0.061 A 
HETATM    7  C   UNL     1       2.681  33.870  55.263  1.00  0.00     0.048 C 
HETATM    8  C   UNL     1       3.011  34.412  57.693  1.00  0.00     0.009 A 
HETATM    9  C   UNL     1       3.660  34.256  58.922  1.00  0.00     0.031 A 
HETATM   10  N   UNL     1       5.534  33.006  60.032  1.00  0.00    -0.354 N 
HETATM   11  H   UNL     1       5.439  33.367  60.971  1.00  0.00     0.166 HD
HETATM   12  C   UNL     1       6.484  32.079  59.660  1.00  0.00     0.057 A 
HETATM   13  C   UNL     1       7.431  31.564  60.622  1.00  0.00     0.032 A 
HETATM   14  S   UNL     1       7.145  31.714  62.317  1.00  0.00    -0.100 SA
HETATM   15  C   UNL     1       8.635  30.923  60.395  1.00  0.00     0.021 A 
HETATM   16  C   UNL     1       8.601  30.920  62.717  1.00  0.00     0.050 A 
HETATM   17  C   UNL     1       9.307  30.550  61.597  1.00  0.00     0.008 A 
ENDBRANCH   1   2
BRANCH   1  18
HETATM   18  C   UNL     1       7.058  29.457  57.971  1.00  0.00     0.108 C 
BRANCH  18  19
HETATM   19  C   UNL     1       5.997  28.573  57.342  1.00  0.00     0.220 C 
HETATM   20  N   UNL     1       6.396  27.310  56.925  1.00  0.00    -0.349 N 
HETATM   21  C   UNL     1       7.780  26.820  56.895  1.00  0.00     0.145 C 
HETATM   22  C   UNL     1       5.445  26.479  56.179  1.00  0.00     0.145 C 
HETATM   23  C   UNL     1       7.889  25.323  57.251  1.00  0.00     0.143 C 
HETATM   24  N   UNL     1       6.893  24.467  56.569  1.00  0.00    -0.376 N 
HETATM   25  C   UNL     1       5.508  25.008  56.616  1.00  0.00     0.143 C 
HETATM   26  O   UNL     1       4.836  28.960  57.220  1.00  0.00    -0.273 OA
BRANCH  24  27
HETATM   27  C   UNL     1       7.232  23.844  55.358  1.00  0.00     0.063 A 
HETATM   28  C   UNL     1       7.803  22.555  55.394  1.00  0.00     0.092 A 
HETATM   29  C   UNL     1       8.139  21.843  54.247  1.00  0.00     0.039 A 
HETATM   30  C   UNL     1       7.932  22.430  53.005  1.00  0.00     0.003 A 
HETATM   31  C   UNL     1       7.401  23.718  52.929  1.00  0.00     0.002 A 
HETATM   32  C   UNL     1       7.059  24.419  54.095  1.00  0.00     0.032 A 
BRANCH  28  33
HETATM   33  O   UNL     1       8.106  21.994  56.609  1.00  0.00    -0.358 OA
HETATM   34  H   UNL     1       8.081  22.761  57.216  1.00  0.00     0.218 HD
ENDBRANCH  28  33
ENDBRANCH  24  27
ENDBRANCH  18  19
ENDBRANCH   1  18
TORSDOF 5
ENDMDL
MODEL 10
REMARK VINA RESULT:      -9.2      4.232      9.902
REMARK  5 active torsions:
REMARK  status: ('A' for Active; 'I' for Inactive)
REMARK    1  A    between atoms: C_14  and  C_15 
REMARK    2  A    between atoms: C_15  and  C_16 
REMARK    3  A    between atoms: C_16  and  C_17 
REMARK       I    between atoms: C_17  and  N_18 
REMARK    4  A    between atoms: N_21  and  C_22 
REMARK    5  A    between atoms: C_23  and  O_24 
ROOT
HETATM    1  C   UNL     1       4.981  32.862  59.153  1.00  0.00     0.051 C 
ENDROOT
BRANCH   1   2
HETATM    2  C   UNL     1       5.929  32.749  60.312  1.00  0.00    -0.017 A 
HETATM    3  C   UNL     1       7.301  32.332  60.187  1.00  0.00    -0.000 A 
HETATM    4  C   UNL     1       8.110  31.937  59.098  1.00  0.00     0.021 A 
HETATM    5  C   UNL     1       7.870  32.367  61.452  1.00  0.00     0.043 A 
HETATM    6  C   UNL     1       9.453  31.579  59.313  1.00  0.00    -0.061 A 
HETATM    7  C   UNL     1      10.329  31.195  58.157  1.00  0.00     0.048 C 
HETATM    8  C   UNL     1       9.985  31.638  60.604  1.00  0.00     0.009 A 
HETATM    9  C   UNL     1       9.205  32.029  61.698  1.00  0.00     0.031 A 
HETATM   10  N   UNL     1       6.892  32.791  62.313  1.00  0.00    -0.354 N 
HETATM   11  H   UNL     1       7.022  32.924  63.306  1.00  0.00     0.166 HD
HETATM   12  C   UNL     1       5.703  33.027  61.658  1.00  0.00     0.057 A 
HETATM   13  C   UNL     1       4.538  33.484  62.380  1.00  0.00     0.032 A 
HETATM   14  S   UNL     1       4.686  34.181  63.952  1.00  0.00    -0.100 SA
HETATM   15  C   UNL     1       3.211  33.448  61.996  1.00  0.00     0.021 A 
HETATM   16  C   UNL     1       3.004  34.434  64.087  1.00  0.00     0.050 A 
HETATM   17  C   UNL     1       2.328  33.996  62.974  1.00  0.00     0.008 A 
ENDBRANCH   1   2
BRANCH   1  18
HETATM   18  C   UNL     1       4.587  31.493  58.598  1.00  0.00     0.108 C 
BRANCH  18  19
HETATM   19  C   UNL     1       4.488  31.509  57.083  1.00  0.00     0.220 C 
HETATM   20  N   UNL     1       4.698  30.304  56.426  1.00  0.00    -0.349 N 
HETATM   21  C   UNL     1       5.162  29.061  57.053  1.00  0.00     0.145 C 
HETATM   22  C   UNL     1       4.759  30.300  54.960  1.00  0.00     0.145 C 
HETATM   23  C   UNL     1       4.516  27.804  56.432  1.00  0.00     0.143 C 
HETATM   24  N   UNL     1       4.497  27.804  54.953  1.00  0.00    -0.376 N 
HETATM   25  C   UNL     1       4.030  29.088  54.362  1.00  0.00     0.143 C 
HETATM   26  O   UNL     1       4.221  32.544  56.474  1.00  0.00    -0.273 OA
BRANCH  24  27
HETATM   27  C   UNL     1       5.542  27.187  54.249  1.00  0.00     0.063 A 
HETATM   28  C   UNL     1       5.237  26.118  53.381  1.00  0.00     0.092 A 
HETATM   29  C   UNL     1       6.197  25.467  52.614  1.00  0.00     0.039 A 
HETATM   30  C   UNL     1       7.525  25.863  52.720  1.00  0.00     0.003 A 
HETATM   31  C   UNL     1       7.871  26.894  53.593  1.00  0.00     0.002 A 
HETATM   32  C   UNL     1       6.889  27.546  54.354  1.00  0.00     0.032 A 
BRANCH  28  33
HETATM   33  O   UNL     1       3.949  25.647  53.331  1.00  0.00    -0.358 OA
HETATM   34  H   UNL     1       4.069  24.712  53.070  1.00  0.00     0.218 HD
ENDBRANCH  28  33
ENDBRANCH  24  27
ENDBRANCH  18  19
ENDBRANCH   1  18
TORSDOF 5
ENDMDL
