MODEL 1
REMARK VINA RESULT:      -9.0      0.000      0.000
REMARK  9 active torsions:
REMARK  status: ('A' for Active; 'I' for Inactive)
REMARK    1  A    between atoms: C_2  and  N_3 
REMARK    2  A    between atoms: C_2  and  C_23 
REMARK       I    between atoms: N_3  and  C_4 
REMARK       I    between atoms: C_4  and  N_5 
REMARK    3  A    between atoms: N_5  and  C_6 
REMARK    4  A    between atoms: C_6  and  C_7 
REMARK    5  A    between atoms: C_7  and  N_8 
REMARK    6  A    between atoms: C_7  and  C_14 
REMARK    7  A    between atoms: C_15  and  O_16 
REMARK    8  A    between atoms: C_23  and  C_24 
REMARK    9  A    between atoms: C_27  and  O_28 
ROOT
HETATM    1  N   UNL     1       5.134  27.602  57.090  1.00  0.00    -0.339 N 
HETATM    2  C   UNL     1       5.148  26.291  56.776  1.00  0.00     0.316 C 
HETATM    3  N   UNL     1       5.799  25.947  55.634  1.00  0.00    -0.341 N 
HETATM    4  O   UNL     1       4.668  25.444  57.527  1.00  0.00    -0.248 OA
HETATM    5  H   UNL     1       4.602  27.811  57.928  1.00  0.00     0.164 HD
HETATM    6  H   UNL     1       5.736  26.651  54.908  1.00  0.00     0.164 HD
ENDROOT
BRANCH   3   7
HETATM    7  C   UNL     1       5.781  24.567  55.170  1.00  0.00     0.162 C 
BRANCH   7   8
HETATM    8  C   UNL     1       7.000  24.091  54.305  1.00  0.00     0.241 C 
BRANCH   8   9
HETATM    9  N   UNL     1       6.724  24.210  52.798  1.00  0.00    -0.061 N 
HETATM   10  H   UNL     1       6.999  23.287  52.406  1.00  0.00     0.280 HD
HETATM   11  C   UNL     1       7.512  25.216  51.996  1.00  0.00     0.236 C 
HETATM   12  C   UNL     1       6.587  26.406  51.888  1.00  0.00     0.029 C 
HETATM   13  C   UNL     1       5.222  25.774  51.708  1.00  0.00     0.029 C 
HETATM   14  C   UNL     1       5.273  24.447  52.453  1.00  0.00     0.236 C 
ENDBRANCH   8   9
BRANCH   8  15
HETATM   15  C   UNL     1       7.589  22.764  54.769  1.00  0.00     0.007 A 
HETATM   16  C   UNL     1       7.985  22.584  56.113  1.00  0.00     0.076 A 
HETATM   17  C   UNL     1       8.552  21.372  56.522  1.00  0.00     0.037 A 
HETATM   18  C   UNL     1       8.703  20.320  55.619  1.00  0.00     0.003 A 
HETATM   19  C   UNL     1       8.289  20.472  54.301  1.00  0.00     0.001 A 
HETATM   20  C   UNL     1       7.736  21.681  53.880  1.00  0.00     0.012 A 
BRANCH  16  21
HETATM   21  O   UNL     1       7.802  23.653  56.951  1.00  0.00    -0.355 OA
HETATM   22  C   UNL     1       8.978  24.367  57.336  1.00  0.00     0.210 C 
ENDBRANCH  16  21
ENDBRANCH   8  15
ENDBRANCH   7   8
ENDBRANCH   3   7
BRANCH   1  23
HETATM   23  C   UNL     1       5.887  28.706  56.482  1.00  0.00     0.086 C 
HETATM   24  C   UNL     1       4.971  29.508  55.563  1.00  0.00     0.032 C 
BRANCH  23  25
HETATM   25  C   UNL     1       6.513  29.612  57.562  1.00  0.00     0.063 C 
BRANCH  25  26
HETATM   26  C   UNL     1       8.015  29.729  57.409  1.00  0.00    -0.056 A 
HETATM   27  C   UNL     1       8.660  29.206  56.279  1.00  0.00     0.010 A 
HETATM   28  C   UNL     1      10.049  29.291  56.153  1.00  0.00     0.037 A 
HETATM   29  C   UNL     1      10.791  29.891  57.163  1.00  0.00     0.065 A 
HETATM   30  C   UNL     1      10.172  30.413  58.291  1.00  0.00     0.037 A 
HETATM   31  C   UNL     1       8.784  30.338  58.413  1.00  0.00     0.010 A 
BRANCH  29  32
HETATM   32  O   UNL     1      12.149  29.980  57.088  1.00  0.00    -0.361 OA
HETATM   33  H   UNL     1      12.472  30.454  57.872  1.00  0.00     0.217 HD
ENDBRANCH  29  32
ENDBRANCH  25  26
ENDBRANCH  23  25
ENDBRANCH   1  23
TORSDOF 9
ENDMDL
MODEL 2
REMARK VINA RESULT:      -8.9      2.130      7.275
REMARK  9 active torsions:
REMARK  status: ('A' for Active; 'I' for Inactive)
REMARK    1  A    between atoms: C_2  and  N_3 
REMARK    2  A    between atoms: C_2  and  C_23 
REMARK       I    between atoms: N_3  and  C_4 
REMARK       I    between atoms: C_4  and  N_5 
REMARK    3  A    between atoms: N_5  and  C_6 
REMARK    4  A    between atoms: C_6  and  C_7 
REMARK    5  A    between atoms: C_7  and  N_8 
REMARK    6  A    between atoms: C_7  and  C_14 
REMARK    7  A    between atoms: C_15  and  O_16 
REMARK    8  A    between atoms: C_23  and  C_24 
REMARK    9  A    between atoms: C_27  and  O_28 
ROOT
HETATM    1  N   UNL     1       5.970  26.615  52.376  1.00  0.00    -0.339 N 
HETATM    2  C   UNL     1       6.442  27.658  53.090  1.00  0.00     0.316 C 
HETATM    3  N   UNL     1       6.850  27.388  54.359  1.00  0.00    -0.341 N 
HETATM    4  O   UNL     1       6.572  28.774  52.591  1.00  0.00    -0.248 OA
HETATM    5  H   UNL     1       5.641  26.876  51.452  1.00  0.00     0.164 HD
HETATM    6  H   UNL     1       6.312  26.657  54.807  1.00  0.00     0.164 HD
ENDROOT
BRANCH   3   7
HETATM    7  C   UNL     1       7.283  28.471  55.231  1.00  0.00     0.162 C 
BRANCH   7   8
HETATM    8  C   UNL     1       8.011  28.065  56.560  1.00  0.00     0.241 C 
BRANCH   8   9
HETATM    9  N   UNL     1       7.067  27.362  57.547  1.00  0.00    -0.061 N 
HETATM   10  H   UNL     1       7.169  27.894  58.435  1.00  0.00     0.280 HD
HETATM   11  C   UNL     1       7.354  25.929  57.926  1.00  0.00     0.236 C 
HETATM   12  C   UNL     1       6.434  25.123  57.039  1.00  0.00     0.029 C 
HETATM   13  C   UNL     1       5.167  25.954  57.000  1.00  0.00     0.029 C 
HETATM   14  C   UNL     1       5.612  27.403  57.146  1.00  0.00     0.236 C 
ENDBRANCH   8   9
BRANCH   8  15
HETATM   15  C   UNL     1       8.870  29.181  57.144  1.00  0.00     0.007 A 
HETATM   16  C   UNL     1       8.297  30.171  57.972  1.00  0.00     0.076 A 
HETATM   17  C   UNL     1       9.089  31.207  58.479  1.00  0.00     0.037 A 
HETATM   18  C   UNL     1      10.453  31.257  58.199  1.00  0.00     0.003 A 
HETATM   19  C   UNL     1      11.037  30.273  57.412  1.00  0.00     0.001 A 
HETATM   20  C   UNL     1      10.255  29.243  56.891  1.00  0.00     0.012 A 
BRANCH  16  21
HETATM   21  O   UNL     1       6.952  30.060  58.215  1.00  0.00    -0.355 OA
HETATM   22  C   UNL     1       6.137  31.151  57.788  1.00  0.00     0.210 C 
ENDBRANCH  16  21
ENDBRANCH   8  15
ENDBRANCH   7   8
ENDBRANCH   3   7
BRANCH   1  23
HETATM   23  C   UNL     1       6.009  25.183  52.695  1.00  0.00     0.086 C 
HETATM   24  C   UNL     1       4.792  24.489  52.093  1.00  0.00     0.032 C 
BRANCH  23  25
HETATM   25  C   UNL     1       7.316  24.538  52.190  1.00  0.00     0.063 C 
BRANCH  25  26
HETATM   26  C   UNL     1       7.857  23.508  53.160  1.00  0.00    -0.056 A 
HETATM   27  C   UNL     1       8.371  23.902  54.405  1.00  0.00     0.010 A 
HETATM   28  C   UNL     1       8.894  22.952  55.287  1.00  0.00     0.037 A 
HETATM   29  C   UNL     1       8.910  21.613  54.919  1.00  0.00     0.065 A 
HETATM   30  C   UNL     1       8.408  21.204  53.690  1.00  0.00     0.037 A 
HETATM   31  C   UNL     1       7.875  22.149  52.813  1.00  0.00     0.010 A 
BRANCH  29  32
HETATM   32  O   UNL     1       9.426  20.658  55.742  1.00  0.00    -0.361 OA
HETATM   33  H   UNL     1       9.875  21.098  56.484  1.00  0.00     0.217 HD
ENDBRANCH  29  32
ENDBRANCH  25  26
ENDBRANCH  23  25
ENDBRANCH   1  23
TORSDOF 9
ENDMDL
MODEL 3
REMARK VINA RESULT:      -8.9      1.872      7.341
REMARK  9 active torsions:
REMARK  status: ('A' for Active; 'I' for Inactive)
REMARK    1  A    between atoms: C_2  and  N_3 
REMARK    2  A    between atoms: C_2  and  C_23 
REMARK       I    between atoms: N_3  and  C_4 
REMARK       I    between atoms: C_4  and  N_5 
REMARK    3  A    between atoms: N_5  and  C_6 
REMARK    4  A    between atoms: C_6  and  C_7 
REMARK    5  A    between atoms: C_7  and  N_8 
REMARK    6  A    between atoms: C_7  and  C_14 
REMARK    7  A    between atoms: C_15  and  O_16 
REMARK    8  A    between atoms: C_23  and  C_24 
REMARK    9  A    between atoms: C_27  and  O_28 
ROOT
HETATM    1  N   UNL     1       5.776  24.775  54.966  1.00  0.00    -0.339 N 
HETATM    2  C   UNL     1       6.015  25.361  56.157  1.00  0.00     0.316 C 
HETATM    3  N   UNL     1       7.061  26.228  56.207  1.00  0.00    -0.341 N 
HETATM    4  O   UNL     1       5.276  25.183  57.122  1.00  0.00    -0.248 OA
HETATM    5  H   UNL     1       5.012  24.108  54.991  1.00  0.00     0.164 HD
HETATM    6  H   UNL     1       7.827  25.970  55.595  1.00  0.00     0.164 HD
ENDROOT
BRANCH   3   7
HETATM    7  C   UNL     1       7.450  26.831  57.474  1.00  0.00     0.162 C 
BRANCH   7   8
HETATM    8  C   UNL     1       7.235  28.377  57.622  1.00  0.00     0.241 C 
BRANCH   8   9
HETATM    9  N   UNL     1       6.113  28.897  56.709  1.00  0.00    -0.061 N 
HETATM   10  H   UNL     1       6.152  28.285  55.869  1.00  0.00     0.280 HD
HETATM   11  C   UNL     1       6.216  30.300  56.165  1.00  0.00     0.236 C 
HETATM   12  C   UNL     1       5.343  31.119  57.088  1.00  0.00     0.029 C 
HETATM   13  C   UNL     1       4.175  30.198  57.374  1.00  0.00     0.029 C 
HETATM   14  C   UNL     1       4.730  28.782  57.305  1.00  0.00     0.236 C 
ENDBRANCH   8   9
BRANCH   8  15
HETATM   15  C   UNL     1       8.534  29.174  57.595  1.00  0.00     0.007 A 
HETATM   16  C   UNL     1       8.794  30.157  58.576  1.00  0.00     0.076 A 
HETATM   17  C   UNL     1       9.977  30.903  58.525  1.00  0.00     0.037 A 
HETATM   18  C   UNL     1      10.923  30.664  57.530  1.00  0.00     0.003 A 
HETATM   19  C   UNL     1      10.695  29.679  56.577  1.00  0.00     0.001 A 
HETATM   20  C   UNL     1       9.514  28.939  56.611  1.00  0.00     0.012 A 
BRANCH  16  21
HETATM   21  O   UNL     1       7.827  30.338  59.530  1.00  0.00    -0.355 OA
HETATM   22  C   UNL     1       7.579  31.684  59.938  1.00  0.00     0.210 C 
ENDBRANCH  16  21
ENDBRANCH   8  15
ENDBRANCH   7   8
ENDBRANCH   3   7
BRANCH   1  23
HETATM   23  C   UNL     1       6.358  25.079  53.653  1.00  0.00     0.086 C 
HETATM   24  C   UNL     1       6.102  26.541  53.303  1.00  0.00     0.032 C 
BRANCH  23  25
HETATM   25  C   UNL     1       7.868  24.764  53.630  1.00  0.00     0.063 C 
BRANCH  25  26
HETATM   26  C   UNL     1       8.151  23.304  53.917  1.00  0.00    -0.056 A 
HETATM   27  C   UNL     1       8.809  22.924  55.096  1.00  0.00     0.010 A 
HETATM   28  C   UNL     1       9.094  21.578  55.345  1.00  0.00     0.037 A 
HETATM   29  C   UNL     1       8.728  20.617  54.411  1.00  0.00     0.065 A 
HETATM   30  C   UNL     1       8.077  20.974  53.237  1.00  0.00     0.037 A 
HETATM   31  C   UNL     1       7.783  22.316  52.991  1.00  0.00     0.010 A 
BRANCH  29  32
HETATM   32  O   UNL     1       9.001  19.298  54.608  1.00  0.00    -0.361 OA
HETATM   33  H   UNL     1       9.928  19.212  54.887  1.00  0.00     0.217 HD
ENDBRANCH  29  32
ENDBRANCH  25  26
ENDBRANCH  23  25
ENDBRANCH   1  23
TORSDOF 9
ENDMDL
MODEL 4
REMARK VINA RESULT:      -8.7      2.344      6.904
REMARK  9 active torsions:
REMARK  status: ('A' for Active; 'I' for Inactive)
REMARK    1  A    between atoms: C_2  and  N_3 
REMARK    2  A    between atoms: C_2  and  C_23 
REMARK       I    between atoms: N_3  and  C_4 
REMARK       I    between atoms: C_4  and  N_5 
REMARK    3  A    between atoms: N_5  and  C_6 
REMARK    4  A    between atoms: C_6  and  C_7 
REMARK    5  A    between atoms: C_7  and  N_8 
REMARK    6  A    between atoms: C_7  and  C_14 
REMARK    7  A    between atoms: C_15  and  O_16 
REMARK    8  A    between atoms: C_23  and  C_24 
REMARK    9  A    between atoms: C_27  and  O_28 
ROOT
HETATM    1  N   UNL     1       5.955  25.465  51.575  1.00  0.00    -0.339 N 
HETATM    2  C   UNL     1       5.289  26.562  51.990  1.00  0.00     0.316 C 
HETATM    3  N   UNL     1       5.506  26.954  53.273  1.00  0.00    -0.341 N 
HETATM    4  O   UNL     1       4.587  27.218  51.223  1.00  0.00    -0.248 OA
HETATM    5  H   UNL     1       5.727  25.190  50.625  1.00  0.00     0.164 HD
HETATM    6  H   UNL     1       5.674  26.181  53.907  1.00  0.00     0.164 HD
ENDROOT
BRANCH   3   7
HETATM    7  C   UNL     1       4.756  28.069  53.833  1.00  0.00     0.162 C 
BRANCH   7   8
HETATM    8  C   UNL     1       4.811  28.254  55.390  1.00  0.00     0.241 C 
BRANCH   8   9
HETATM    9  N   UNL     1       4.941  29.730  55.794  1.00  0.00    -0.061 N 
HETATM   10  H   UNL     1       5.955  29.940  55.704  1.00  0.00     0.280 HD
HETATM   11  C   UNL     1       4.593  30.125  57.208  1.00  0.00     0.236 C 
HETATM   12  C   UNL     1       3.182  30.658  57.106  1.00  0.00     0.029 C 
HETATM   13  C   UNL     1       3.184  31.406  55.788  1.00  0.00     0.029 C 
HETATM   14  C   UNL     1       4.187  30.685  54.898  1.00  0.00     0.236 C 
ENDBRANCH   8   9
BRANCH   8  15
HETATM   15  C   UNL     1       5.769  27.290  56.080  1.00  0.00     0.007 A 
HETATM   16  C   UNL     1       7.149  27.580  56.157  1.00  0.00     0.076 A 
HETATM   17  C   UNL     1       8.023  26.675  56.768  1.00  0.00     0.037 A 
HETATM   18  C   UNL     1       7.541  25.495  57.332  1.00  0.00     0.003 A 
HETATM   19  C   UNL     1       6.181  25.211  57.292  1.00  0.00     0.001 A 
HETATM   20  C   UNL     1       5.303  26.100  56.674  1.00  0.00     0.012 A 
BRANCH  16  21
HETATM   21  O   UNL     1       7.557  28.759  55.589  1.00  0.00    -0.355 OA
HETATM   22  C   UNL     1       8.764  29.326  56.100  1.00  0.00     0.210 C 
ENDBRANCH  16  21
ENDBRANCH   8  15
ENDBRANCH   7   8
ENDBRANCH   3   7
BRANCH   1  23
HETATM   23  C   UNL     1       7.038  24.733  52.244  1.00  0.00     0.086 C 
HETATM   24  C   UNL     1       8.245  25.648  52.418  1.00  0.00     0.032 C 
BRANCH  23  25
HETATM   25  C   UNL     1       6.571  24.173  53.603  1.00  0.00     0.063 C 
BRANCH  25  26
HETATM   26  C   UNL     1       7.237  22.855  53.937  1.00  0.00    -0.056 A 
HETATM   27  C   UNL     1       7.400  22.456  55.272  1.00  0.00     0.010 A 
HETATM   28  C   UNL     1       8.040  21.251  55.578  1.00  0.00     0.037 A 
HETATM   29  C   UNL     1       8.523  20.453  54.549  1.00  0.00     0.065 A 
HETATM   30  C   UNL     1       8.374  20.832  53.221  1.00  0.00     0.037 A 
HETATM   31  C   UNL     1       7.726  22.028  52.913  1.00  0.00     0.010 A 
BRANCH  29  32
HETATM   32  O   UNL     1       9.167  19.280  54.804  1.00  0.00    -0.361 OA
HETATM   33  H   UNL     1       9.141  18.731  54.002  1.00  0.00     0.217 HD
ENDBRANCH  29  32
ENDBRANCH  25  26
ENDBRANCH  23  25
ENDBRANCH   1  23
TORSDOF 9
ENDMDL
MODEL 5
REMARK VINA RESULT:      -8.5      2.295      7.696
REMARK  9 active torsions:
REMARK  status: ('A' for Active; 'I' for Inactive)
REMARK    1  A    between atoms: C_2  and  N_3 
REMARK    2  A    between atoms: C_2  and  C_23 
REMARK       I    between atoms: N_3  and  C_4 
REMARK       I    between atoms: C_4  and  N_5 
REMARK    3  A    between atoms: N_5  and  C_6 
REMARK    4  A    between atoms: C_6  and  C_7 
REMARK    5  A    between atoms: C_7  and  N_8 
REMARK    6  A    between atoms: C_7  and  C_14 
REMARK    7  A    between atoms: C_15  and  O_16 
REMARK    8  A    between atoms: C_23  and  C_24 
REMARK    9  A    between atoms: C_27  and  O_28 
ROOT
HETATM    1  N   UNL     1       6.677  26.426  52.785  1.00  0.00    -0.339 N 
HETATM    2  C   UNL     1       6.471  27.688  53.213  1.00  0.00     0.316 C 
HETATM    3  N   UNL     1       6.426  27.873  54.560  1.00  0.00    -0.341 N 
HETATM    4  O   UNL     1       6.411  28.633  52.429  1.00  0.00    -0.248 OA
HETATM    5  H   UNL     1       6.662  26.336  51.775  1.00  0.00     0.164 HD
HETATM    6  H   UNL     1       6.028  27.086  55.059  1.00  0.00     0.164 HD
ENDROOT
BRANCH   3   7
HETATM    7  C   UNL     1       6.112  29.185  55.107  1.00  0.00     0.162 C 
BRANCH   7   8
HETATM    8  C   UNL     1       6.508  29.446  56.602  1.00  0.00     0.241 C 
BRANCH   8   9
HETATM    9  N   UNL     1       5.604  30.495  57.267  1.00  0.00    -0.061 N 
HETATM   10  H   UNL     1       6.146  30.828  58.089  1.00  0.00     0.280 HD
HETATM   11  C   UNL     1       4.279  30.050  57.837  1.00  0.00     0.236 C 
HETATM   12  C   UNL     1       3.278  30.403  56.762  1.00  0.00     0.029 C 
HETATM   13  C   UNL     1       3.788  31.726  56.228  1.00  0.00     0.029 C 
HETATM   14  C   UNL     1       5.301  31.690  56.395  1.00  0.00     0.236 C 
ENDBRANCH   8   9
BRANCH   8  15
HETATM   15  C   UNL     1       8.007  29.636  56.806  1.00  0.00     0.007 A 
HETATM   16  C   UNL     1       8.515  30.040  58.061  1.00  0.00     0.076 A 
HETATM   17  C   UNL     1       9.889  30.240  58.230  1.00  0.00     0.037 A 
HETATM   18  C   UNL     1      10.773  30.013  57.175  1.00  0.00     0.003 A 
HETATM   19  C   UNL     1      10.291  29.585  55.945  1.00  0.00     0.001 A 
HETATM   20  C   UNL     1       8.921  29.395  55.762  1.00  0.00     0.012 A 
BRANCH  16  21
HETATM   21  O   UNL     1       7.595  30.239  59.057  1.00  0.00    -0.355 OA
HETATM   22  C   UNL     1       8.013  31.048  60.157  1.00  0.00     0.210 C 
ENDBRANCH  16  21
ENDBRANCH   8  15
ENDBRANCH   7   8
ENDBRANCH   3   7
BRANCH   1  23
HETATM   23  C   UNL     1       7.056  25.238  53.560  1.00  0.00     0.086 C 
HETATM   24  C   UNL     1       5.802  24.491  54.000  1.00  0.00     0.032 C 
BRANCH  23  25
HETATM   25  C   UNL     1       7.987  24.318  52.743  1.00  0.00     0.063 C 
BRANCH  25  26
HETATM   26  C   UNL     1       8.221  22.988  53.430  1.00  0.00    -0.056 A 
HETATM   27  C   UNL     1       8.827  22.934  54.693  1.00  0.00     0.010 A 
HETATM   28  C   UNL     1       9.067  21.704  55.312  1.00  0.00     0.037 A 
HETATM   29  C   UNL     1       8.707  20.530  54.662  1.00  0.00     0.065 A 
HETATM   30  C   UNL     1       8.107  20.563  53.410  1.00  0.00     0.037 A 
HETATM   31  C   UNL     1       7.858  21.790  52.795  1.00  0.00     0.010 A 
BRANCH  29  32
HETATM   32  O   UNL     1       8.937  19.311  55.223  1.00  0.00    -0.361 OA
HETATM   33  H   UNL     1       9.660  18.878  54.737  1.00  0.00     0.217 HD
ENDBRANCH  29  32
ENDBRANCH  25  26
ENDBRANCH  23  25
ENDBRANCH   1  23
TORSDOF 9
ENDMDL
MODEL 6
REMARK VINA RESULT:      -8.4      3.992      6.400
REMARK  9 active torsions:
REMARK  status: ('A' for Active; 'I' for Inactive)
REMARK    1  A    between atoms: C_2  and  N_3 
REMARK    2  A    between atoms: C_2  and  C_23 
REMARK       I    between atoms: N_3  and  C_4 
REMARK       I    between atoms: C_4  and  N_5 
REMARK    3  A    between atoms: N_5  and  C_6 
REMARK    4  A    between atoms: C_6  and  C_7 
REMARK    5  A    between atoms: C_7  and  N_8 
REMARK    6  A    between atoms: C_7  and  C_14 
REMARK    7  A    between atoms: C_15  and  O_16 
REMARK    8  A    between atoms: C_23  and  C_24 
REMARK    9  A    between atoms: C_27  and  O_28 
ROOT
HETATM    1  N   UNL     1       9.936  31.268  59.431  1.00  0.00    -0.339 N 
HETATM    2  C   UNL     1       9.939  30.790  58.170  1.00  0.00     0.316 C 
HETATM    3  N   UNL     1       8.860  30.050  57.799  1.00  0.00    -0.341 N 
HETATM    4  O   UNL     1      10.831  31.078  57.374  1.00  0.00    -0.248 OA
HETATM    5  H   UNL     1      10.780  31.778  59.670  1.00  0.00     0.164 HD
HETATM    6  H   UNL     1       8.468  29.505  58.557  1.00  0.00     0.164 HD
ENDROOT
BRANCH   3   7
HETATM    7  C   UNL     1       8.826  29.416  56.489  1.00  0.00     0.162 C 
BRANCH   7   8
HETATM    8  C   UNL     1       7.523  28.626  56.115  1.00  0.00     0.241 C 
BRANCH   8   9
HETATM    9  N   UNL     1       6.282  29.184  56.829  1.00  0.00    -0.061 N 
HETATM   10  H   UNL     1       6.621  29.456  57.773  1.00  0.00     0.280 HD
HETATM   11  C   UNL     1       5.122  28.255  57.092  1.00  0.00     0.236 C 
HETATM   12  C   UNL     1       4.154  28.547  55.968  1.00  0.00     0.029 C 
HETATM   13  C   UNL     1       4.265  30.047  55.789  1.00  0.00     0.029 C 
HETATM   14  C   UNL     1       5.693  30.411  56.174  1.00  0.00     0.236 C 
ENDBRANCH   8   9
BRANCH   8  15
HETATM   15  C   UNL     1       7.696  27.113  56.170  1.00  0.00     0.007 A 
HETATM   16  C   UNL     1       7.308  26.305  55.078  1.00  0.00     0.076 A 
HETATM   17  C   UNL     1       7.444  24.914  55.151  1.00  0.00     0.037 A 
HETATM   18  C   UNL     1       7.992  24.314  56.284  1.00  0.00     0.003 A 
HETATM   19  C   UNL     1       8.408  25.098  57.352  1.00  0.00     0.001 A 
HETATM   20  C   UNL     1       8.264  26.485  57.296  1.00  0.00     0.012 A 
BRANCH  16  21
HETATM   21  O   UNL     1       6.783  26.957  53.993  1.00  0.00    -0.355 OA
HETATM   22  C   UNL     1       5.662  26.339  53.361  1.00  0.00     0.210 C 
ENDBRANCH  16  21
ENDBRANCH   8  15
ENDBRANCH   7   8
ENDBRANCH   3   7
BRANCH   1  23
HETATM   23  C   UNL     1       8.846  31.274  60.414  1.00  0.00     0.086 C 
HETATM   24  C   UNL     1       9.235  30.419  61.617  1.00  0.00     0.032 C 
BRANCH  23  25
HETATM   25  C   UNL     1       8.501  32.713  60.850  1.00  0.00     0.063 C 
BRANCH  25  26
HETATM   26  C   UNL     1       7.462  32.742  61.951  1.00  0.00    -0.056 A 
HETATM   27  C   UNL     1       6.102  32.571  61.653  1.00  0.00     0.010 A 
HETATM   28  C   UNL     1       5.142  32.625  62.668  1.00  0.00     0.037 A 
HETATM   29  C   UNL     1       5.544  32.860  63.977  1.00  0.00     0.065 A 
HETATM   30  C   UNL     1       6.885  33.035  64.292  1.00  0.00     0.037 A 
HETATM   31  C   UNL     1       7.845  32.970  63.282  1.00  0.00     0.010 A 
BRANCH  29  32
HETATM   32  O   UNL     1       4.639  32.937  64.992  1.00  0.00    -0.361 OA
HETATM   33  H   UNL     1       3.884  32.362  64.779  1.00  0.00     0.217 HD
ENDBRANCH  29  32
ENDBRANCH  25  26
ENDBRANCH  23  25
ENDBRANCH   1  23
TORSDOF 9
ENDMDL
MODEL 7
REMARK VINA RESULT:      -8.3      2.091      6.999
REMARK  9 active torsions:
REMARK  status: ('A' for Active; 'I' for Inactive)
REMARK    1  A    between atoms: C_2  and  N_3 
REMARK    2  A    between atoms: C_2  and  C_23 
REMARK       I    between atoms: N_3  and  C_4 
REMARK       I    between atoms: C_4  and  N_5 
REMARK    3  A    between atoms: N_5  and  C_6 
REMARK    4  A    between atoms: C_6  and  C_7 
REMARK    5  A    between atoms: C_7  and  N_8 
REMARK    6  A    between atoms: C_7  and  C_14 
REMARK    7  A    between atoms: C_15  and  O_16 
REMARK    8  A    between atoms: C_23  and  C_24 
REMARK    9  A    between atoms: C_27  and  O_28 
ROOT
HETATM    1  N   UNL     1       6.289  26.300  52.448  1.00  0.00    -0.339 N 
HETATM    2  C   UNL     1       6.743  27.434  53.020  1.00  0.00     0.316 C 
HETATM    3  N   UNL     1       7.731  27.294  53.944  1.00  0.00    -0.341 N 
HETATM    4  O   UNL     1       6.342  28.540  52.664  1.00  0.00    -0.248 OA
HETATM    5  H   UNL     1       5.526  26.454  51.798  1.00  0.00     0.164 HD
HETATM    6  H   UNL     1       7.661  26.437  54.480  1.00  0.00     0.164 HD
ENDROOT
BRANCH   3   7
HETATM    7  C   UNL     1       8.212  28.455  54.680  1.00  0.00     0.162 C 
BRANCH   7   8
HETATM    8  C   UNL     1       7.754  28.590  56.174  1.00  0.00     0.241 C 
BRANCH   8   9
HETATM    9  N   UNL     1       8.940  28.801  57.127  1.00  0.00    -0.061 N 
HETATM   10  H   UNL     1       9.251  27.842  57.378  1.00  0.00     0.280 HD
HETATM   11  C   UNL     1       8.691  29.481  58.451  1.00  0.00     0.236 C 
HETATM   12  C   UNL     1       9.101  30.916  58.212  1.00  0.00     0.029 C 
HETATM   13  C   UNL     1      10.320  30.789  57.322  1.00  0.00     0.029 C 
HETATM   14  C   UNL     1      10.113  29.522  56.504  1.00  0.00     0.236 C 
ENDBRANCH   8   9
BRANCH   8  15
HETATM   15  C   UNL     1       6.744  27.529  56.595  1.00  0.00     0.007 A 
HETATM   16  C   UNL     1       7.177  26.255  57.022  1.00  0.00     0.076 A 
HETATM   17  C   UNL     1       6.241  25.278  57.380  1.00  0.00     0.037 A 
HETATM   18  C   UNL     1       4.876  25.561  57.349  1.00  0.00     0.003 A 
HETATM   19  C   UNL     1       4.436  26.821  56.961  1.00  0.00     0.001 A 
HETATM   20  C   UNL     1       5.361  27.797  56.590  1.00  0.00     0.012 A 
BRANCH  16  21
HETATM   21  O   UNL     1       8.532  26.043  57.037  1.00  0.00    -0.355 OA
HETATM   22  C   UNL     1       8.971  24.770  57.510  1.00  0.00     0.210 C 
ENDBRANCH  16  21
ENDBRANCH   8  15
ENDBRANCH   7   8
ENDBRANCH   3   7
BRANCH   1  23
HETATM   23  C   UNL     1       6.836  24.940  52.530  1.00  0.00     0.086 C 
HETATM   24  C   UNL     1       8.314  24.958  52.150  1.00  0.00     0.032 C 
BRANCH  23  25
HETATM   25  C   UNL     1       6.638  24.347  53.940  1.00  0.00     0.063 C 
BRANCH  25  26
HETATM   26  C   UNL     1       7.268  22.977  54.077  1.00  0.00    -0.056 A 
HETATM   27  C   UNL     1       7.475  22.410  55.343  1.00  0.00     0.010 A 
HETATM   28  C   UNL     1       8.082  21.157  55.468  1.00  0.00     0.037 A 
HETATM   29  C   UNL     1       8.490  20.478  54.326  1.00  0.00     0.065 A 
HETATM   30  C   UNL     1       8.296  21.024  53.064  1.00  0.00     0.037 A 
HETATM   31  C   UNL     1       7.680  22.269  52.937  1.00  0.00     0.010 A 
BRANCH  29  32
HETATM   32  O   UNL     1       9.100  19.263  54.405  1.00  0.00    -0.361 OA
HETATM   33  H   UNL     1       9.977  19.330  53.991  1.00  0.00     0.217 HD
ENDBRANCH  29  32
ENDBRANCH  25  26
ENDBRANCH  23  25
ENDBRANCH   1  23
TORSDOF 9
ENDMDL
MODEL 8
REMARK VINA RESULT:      -8.3      2.254      7.031
REMARK  9 active torsions:
REMARK  status: ('A' for Active; 'I' for Inactive)
REMARK    1  A    between atoms: C_2  and  N_3 
REMARK    2  A    between atoms: C_2  and  C_23 
REMARK       I    between atoms: N_3  and  C_4 
REMARK       I    between atoms: C_4  and  N_5 
REMARK    3  A    between atoms: N_5  and  C_6 
REMARK    4  A    between atoms: C_6  and  C_7 
REMARK    5  A    between atoms: C_7  and  N_8 
REMARK    6  A    between atoms: C_7  and  C_14 
REMARK    7  A    between atoms: C_15  and  O_16 
REMARK    8  A    between atoms: C_23  and  C_24 
REMARK    9  A    between atoms: C_27  and  O_28 
ROOT
HETATM    1  N   UNL     1       9.153  23.687  56.601  1.00  0.00    -0.339 N 
HETATM    2  C   UNL     1       8.752  24.564  57.544  1.00  0.00     0.316 C 
HETATM    3  N   UNL     1       7.956  25.583  57.124  1.00  0.00    -0.341 N 
HETATM    4  O   UNL     1       9.025  24.402  58.731  1.00  0.00    -0.248 OA
HETATM    5  H   UNL     1       9.776  22.970  56.956  1.00  0.00     0.164 HD
HETATM    6  H   UNL     1       8.166  25.896  56.184  1.00  0.00     0.164 HD
ENDROOT
BRANCH   3   7
HETATM    7  C   UNL     1       7.557  26.629  58.056  1.00  0.00     0.162 C 
BRANCH   7   8
HETATM    8  C   UNL     1       7.287  28.052  57.456  1.00  0.00     0.241 C 
BRANCH   8   9
HETATM    9  N   UNL     1       6.540  27.984  56.115  1.00  0.00    -0.061 N 
HETATM   10  H   UNL     1       7.109  27.340  55.529  1.00  0.00     0.280 HD
HETATM   11  C   UNL     1       6.418  29.242  55.291  1.00  0.00     0.236 C 
HETATM   12  C   UNL     1       5.036  29.762  55.615  1.00  0.00     0.029 C 
HETATM   13  C   UNL     1       4.202  28.501  55.717  1.00  0.00     0.029 C 
HETATM   14  C   UNL     1       5.146  27.413  56.213  1.00  0.00     0.236 C 
ENDBRANCH   8   9
BRANCH   8  15
HETATM   15  C   UNL     1       8.507  28.965  57.491  1.00  0.00     0.007 A 
HETATM   16  C   UNL     1       8.496  30.151  58.258  1.00  0.00     0.076 A 
HETATM   17  C   UNL     1       9.611  30.996  58.259  1.00  0.00     0.037 A 
HETATM   18  C   UNL     1      10.753  30.664  57.532  1.00  0.00     0.003 A 
HETATM   19  C   UNL     1      10.790  29.485  56.798  1.00  0.00     0.001 A 
HETATM   20  C   UNL     1       9.679  28.642  56.779  1.00  0.00     0.012 A 
BRANCH  16  21
HETATM   21  O   UNL     1       7.346  30.416  58.955  1.00  0.00    -0.355 OA
HETATM   22  C   UNL     1       7.323  31.631  59.705  1.00  0.00     0.210 C 
ENDBRANCH  16  21
ENDBRANCH   8  15
ENDBRANCH   7   8
ENDBRANCH   3   7
BRANCH   1  23
HETATM   23  C   UNL     1       8.700  23.553  55.211  1.00  0.00     0.086 C 
HETATM   24  C   UNL     1       9.188  22.227  54.637  1.00  0.00     0.032 C 
BRANCH  23  25
HETATM   25  C   UNL     1       7.164  23.661  55.115  1.00  0.00     0.063 C 
BRANCH  25  26
HETATM   26  C   UNL     1       6.719  24.396  53.869  1.00  0.00    -0.056 A 
HETATM   27  C   UNL     1       5.380  24.780  53.706  1.00  0.00     0.010 A 
HETATM   28  C   UNL     1       4.967  25.435  52.542  1.00  0.00     0.037 A 
HETATM   29  C   UNL     1       5.893  25.696  51.540  1.00  0.00     0.065 A 
HETATM   30  C   UNL     1       7.223  25.322  51.681  1.00  0.00     0.037 A 
HETATM   31  C   UNL     1       7.639  24.678  52.846  1.00  0.00     0.010 A 
BRANCH  29  32
HETATM   32  O   UNL     1       5.528  26.317  50.384  1.00  0.00    -0.361 OA
HETATM   33  H   UNL     1       6.332  26.526  49.878  1.00  0.00     0.217 HD
ENDBRANCH  29  32
ENDBRANCH  25  26
ENDBRANCH  23  25
ENDBRANCH   1  23
TORSDOF 9
ENDMDL
MODEL 9
REMARK VINA RESULT:      -8.1      4.219      8.202
REMARK  9 active torsions:
REMARK  status: ('A' for Active; 'I' for Inactive)
REMARK    1  A    between atoms: C_2  and  N_3 
REMARK    2  A    between atoms: C_2  and  C_23 
REMARK       I    between atoms: N_3  and  C_4 
REMARK       I    between atoms: C_4  and  N_5 
REMARK    3  A    between atoms: N_5  and  C_6 
REMARK    4  A    between atoms: C_6  and  C_7 
REMARK    5  A    between atoms: C_7  and  N_8 
REMARK    6  A    between atoms: C_7  and  C_14 
REMARK    7  A    between atoms: C_15  and  O_16 
REMARK    8  A    between atoms: C_23  and  C_24 
REMARK    9  A    between atoms: C_27  and  O_28 
ROOT
HETATM    1  N   UNL     1       4.970  26.065  54.133  1.00  0.00    -0.339 N 
HETATM    2  C   UNL     1       4.435  27.192  53.620  1.00  0.00     0.316 C 
HETATM    3  N   UNL     1       4.403  27.286  52.264  1.00  0.00    -0.341 N 
HETATM    4  O   UNL     1       3.928  28.050  54.340  1.00  0.00    -0.248 OA
HETATM    5  H   UNL     1       5.008  26.062  55.146  1.00  0.00     0.164 HD
HETATM    6  H   UNL     1       5.190  26.836  51.812  1.00  0.00     0.164 HD
ENDROOT
BRANCH   3   7
HETATM    7  C   UNL     1       3.931  28.507  51.627  1.00  0.00     0.162 C 
BRANCH   7   8
HETATM    8  C   UNL     1       4.313  28.718  50.121  1.00  0.00     0.241 C 
BRANCH   8   9
HETATM    9  N   UNL     1       4.196  30.189  49.693  1.00  0.00    -0.061 N 
HETATM   10  H   UNL     1       3.260  30.261  49.247  1.00  0.00     0.280 HD
HETATM   11  C   UNL     1       5.155  30.718  48.656  1.00  0.00     0.236 C 
HETATM   12  C   UNL     1       6.223  31.419  49.464  1.00  0.00     0.029 C 
HETATM   13  C   UNL     1       5.441  32.072  50.586  1.00  0.00     0.029 C 
HETATM   14  C   UNL     1       4.241  31.171  50.840  1.00  0.00     0.236 C 
ENDBRANCH   8   9
BRANCH   8  15
HETATM   15  C   UNL     1       3.668  27.702  49.185  1.00  0.00     0.007 A 
HETATM   16  C   UNL     1       2.339  27.878  48.740  1.00  0.00     0.076 A 
HETATM   17  C   UNL     1       1.747  26.924  47.905  1.00  0.00     0.037 A 
HETATM   18  C   UNL     1       2.469  25.810  47.479  1.00  0.00     0.003 A 
HETATM   19  C   UNL     1       3.787  25.640  47.883  1.00  0.00     0.001 A 
HETATM   20  C   UNL     1       4.382  26.578  48.726  1.00  0.00     0.012 A 
BRANCH  16  21
HETATM   21  O   UNL     1       1.688  28.997  49.189  1.00  0.00    -0.355 OA
HETATM   22  C   UNL     1       1.051  29.803  48.197  1.00  0.00     0.210 C 
ENDBRANCH  16  21
ENDBRANCH   8  15
ENDBRANCH   7   8
ENDBRANCH   3   7
BRANCH   1  23
HETATM   23  C   UNL     1       5.353  24.827  53.443  1.00  0.00     0.086 C 
HETATM   24  C   UNL     1       4.695  24.781  52.068  1.00  0.00     0.032 C 
BRANCH  23  25
HETATM   25  C   UNL     1       6.887  24.711  53.324  1.00  0.00     0.063 C 
BRANCH  25  26
HETATM   26  C   UNL     1       7.388  23.338  53.720  1.00  0.00    -0.056 A 
HETATM   27  C   UNL     1       7.838  22.434  52.747  1.00  0.00     0.010 A 
HETATM   28  C   UNL     1       8.274  21.158  53.113  1.00  0.00     0.037 A 
HETATM   29  C   UNL     1       8.252  20.786  54.451  1.00  0.00     0.065 A 
HETATM   30  C   UNL     1       7.809  21.666  55.430  1.00  0.00     0.037 A 
HETATM   31  C   UNL     1       7.383  22.944  55.067  1.00  0.00     0.010 A 
BRANCH  29  32
HETATM   32  O   UNL     1       8.654  19.547  54.848  1.00  0.00    -0.361 OA
HETATM   33  H   UNL     1       8.870  19.023  54.058  1.00  0.00     0.217 HD
ENDBRANCH  29  32
ENDBRANCH  25  26
ENDBRANCH  23  25
ENDBRANCH   1  23
TORSDOF 9
ENDMDL
MODEL 10
REMARK VINA RESULT:      -8.1      2.172      7.095
REMARK  9 active torsions:
REMARK  status: ('A' for Active; 'I' for Inactive)
REMARK    1  A    between atoms: C_2  and  N_3 
REMARK    2  A    between atoms: C_2  and  C_23 
REMARK       I    between atoms: N_3  and  C_4 
REMARK       I    between atoms: C_4  and  N_5 
REMARK    3  A    between atoms: N_5  and  C_6 
REMARK    4  A    between atoms: C_6  and  C_7 
REMARK    5  A    between atoms: C_7  and  N_8 
REMARK    6  A    between atoms: C_7  and  C_14 
REMARK    7  A    between atoms: C_15  and  O_16 
REMARK    8  A    between atoms: C_23  and  C_24 
REMARK    9  A    between atoms: C_27  and  O_28 
ROOT
HETATM    1  N   UNL     1       6.842  23.938  56.792  1.00  0.00    -0.339 N 
HETATM    2  C   UNL     1       6.764  25.260  57.048  1.00  0.00     0.316 C 
HETATM    3  N   UNL     1       7.892  25.987  56.829  1.00  0.00    -0.341 N 
HETATM    4  O   UNL     1       5.707  25.790  57.382  1.00  0.00    -0.248 OA
HETATM    5  H   UNL     1       5.989  23.435  57.010  1.00  0.00     0.164 HD
HETATM    6  H   UNL     1       8.745  25.474  57.018  1.00  0.00     0.164 HD
ENDROOT
BRANCH   3   7
HETATM    7  C   UNL     1       7.926  27.402  57.170  1.00  0.00     0.162 C 
BRANCH   7   8
HETATM    8  C   UNL     1       7.944  28.421  55.977  1.00  0.00     0.241 C 
BRANCH   8   9
HETATM    9  N   UNL     1       8.728  29.698  56.317  1.00  0.00    -0.061 N 
HETATM   10  H   UNL     1       8.178  30.468  55.886  1.00  0.00     0.280 HD
HETATM   11  C   UNL     1      10.119  29.863  55.757  1.00  0.00     0.236 C 
HETATM   12  C   UNL     1      11.025  29.443  56.892  1.00  0.00     0.029 C 
HETATM   13  C   UNL     1      10.327  29.993  58.119  1.00  0.00     0.029 C 
HETATM   14  C   UNL     1       8.839  29.979  57.797  1.00  0.00     0.236 C 
ENDBRANCH   8   9
BRANCH   8  15
HETATM   15  C   UNL     1       6.574  28.633  55.342  1.00  0.00     0.007 A 
HETATM   16  C   UNL     1       5.520  29.211  56.083  1.00  0.00     0.076 A 
HETATM   17  C   UNL     1       4.259  29.374  55.500  1.00  0.00     0.037 A 
HETATM   18  C   UNL     1       4.037  28.998  54.176  1.00  0.00     0.003 A 
HETATM   19  C   UNL     1       5.073  28.457  53.425  1.00  0.00     0.001 A 
HETATM   20  C   UNL     1       6.330  28.278  54.001  1.00  0.00     0.012 A 
BRANCH  16  21
HETATM   21  O   UNL     1       5.806  29.566  57.376  1.00  0.00    -0.355 OA
HETATM   22  C   UNL     1       5.152  30.734  57.874  1.00  0.00     0.210 C 
ENDBRANCH  16  21
ENDBRANCH   8  15
ENDBRANCH   7   8
ENDBRANCH   3   7
BRANCH   1  23
HETATM   23  C   UNL     1       7.911  23.187  56.123  1.00  0.00     0.086 C 
HETATM   24  C   UNL     1       8.466  22.128  57.070  1.00  0.00     0.032 C 
BRANCH  23  25
HETATM   25  C   UNL     1       7.403  22.545  54.815  1.00  0.00     0.063 C 
BRANCH  25  26
HETATM   26  C   UNL     1       7.081  23.580  53.758  1.00  0.00    -0.056 A 
HETATM   27  C   UNL     1       5.772  24.060  53.604  1.00  0.00     0.010 A 
HETATM   28  C   UNL     1       5.473  24.995  52.610  1.00  0.00     0.037 A 
HETATM   29  C   UNL     1       6.481  25.442  51.766  1.00  0.00     0.065 A 
HETATM   30  C   UNL     1       7.783  24.978  51.900  1.00  0.00     0.037 A 
HETATM   31  C   UNL     1       8.086  24.052  52.899  1.00  0.00     0.010 A 
BRANCH  29  32
HETATM   32  O   UNL     1       6.228  26.340  50.774  1.00  0.00    -0.361 OA
HETATM   33  H   UNL     1       5.442  26.858  51.017  1.00  0.00     0.217 HD
ENDBRANCH  29  32
ENDBRANCH  25  26
ENDBRANCH  23  25
ENDBRANCH   1  23
TORSDOF 9
ENDMDL
