MODEL 1
REMARK VINA RESULT:      -9.8      0.000      0.000
REMARK  7 active torsions:
REMARK  status: ('A' for Active; 'I' for Inactive)
REMARK    1  A    between atoms: C_7  and  C_8 
REMARK    2  A    between atoms: N_9  and  N_10 
REMARK       I    between atoms: N_10  and  C_11 
REMARK    3  A    between atoms: C_11  and  C_12 
REMARK    4  A    between atoms: C_12  and  N_13 
REMARK       I    between atoms: N_13  and  C_14 
REMARK    5  A    between atoms: C_14  and  C_15 
REMARK    6  A    between atoms: C_16  and  C_17 
REMARK    7  A    between atoms: C_18  and  O_19 
ROOT
HETATM    1  N   UNL     1       7.328  27.578  55.935  1.00  0.00    -0.246 N 
HETATM    2  C   UNL     1       7.715  27.925  57.222  1.00  0.00     0.255 C 
HETATM    3  O   UNL     1       7.929  27.144  58.146  1.00  0.00    -0.270 OA
HETATM    4  H   UNL     1       7.102  28.319  55.267  1.00  0.00     0.192 HD
ENDROOT
BRANCH   2   5
HETATM    5  C   UNL     1       7.879  29.435  57.396  1.00  0.00     0.227 C 
BRANCH   5   6
HETATM    6  N   UNL     1       7.572  29.862  58.752  1.00  0.00    -0.349 N 
HETATM    7  C   UNL     1       8.109  31.005  59.279  1.00  0.00     0.241 C 
HETATM    8  O   UNL     1       8.846  31.751  58.642  1.00  0.00    -0.269 OA
HETATM    9  H   UNL     1       6.864  29.347  59.259  1.00  0.00     0.163 HD
BRANCH   7  10
HETATM   10  C   UNL     1       7.654  31.290  60.657  1.00  0.00     0.075 C 
HETATM   11  C   UNL     1       7.474  32.559  61.051  1.00  0.00     0.020 C 
BRANCH  11  12
HETATM   12  C   UNL     1       6.969  32.874  62.391  1.00  0.00    -0.003 A 
HETATM   13  C   UNL     1       5.613  33.165  62.637  1.00  0.00     0.078 A 
HETATM   14  C   UNL     1       5.208  33.469  63.942  1.00  0.00     0.037 A 
HETATM   15  C   UNL     1       6.134  33.482  64.989  1.00  0.00     0.003 A 
HETATM   16  C   UNL     1       7.473  33.195  64.743  1.00  0.00     0.001 A 
HETATM   17  C   UNL     1       7.890  32.892  63.449  1.00  0.00     0.014 A 
BRANCH  13  18
HETATM   18  O   UNL     1       4.776  33.133  61.549  1.00  0.00    -0.355 OA
HETATM   19  C   UNL     1       3.751  32.147  61.544  1.00  0.00     0.210 C 
ENDBRANCH  13  18
ENDBRANCH  11  12
ENDBRANCH   7  10
ENDBRANCH   5   6
ENDBRANCH   2   5
BRANCH   1  20
HETATM   20  N   UNL     1       7.116  26.270  55.609  1.00  0.00    -0.184 NA
HETATM   21  C   UNL     1       8.019  25.734  54.854  1.00  0.00     0.153 C 
BRANCH  21  22
HETATM   22  C   UNL     1       7.894  24.347  54.442  1.00  0.00     0.018 A 
HETATM   23  C   UNL     1       7.635  23.940  53.138  1.00  0.00     0.018 A 
HETATM   24  C   UNL     1       7.429  24.725  51.893  1.00  0.00     0.069 C 
HETATM   25  N   UNL     1       7.588  22.568  53.130  1.00  0.00    -0.358 N 
HETATM   26  H   UNL     1       7.418  21.995  52.316  1.00  0.00     0.166 HD
HETATM   27  C   UNL     1       7.807  22.066  54.390  1.00  0.00     0.043 A 
HETATM   28  C   UNL     1       8.003  23.157  55.238  1.00  0.00     0.004 A 
HETATM   29  C   UNL     1       7.847  20.738  54.833  1.00  0.00     0.030 A 
HETATM   30  C   UNL     1       8.250  22.897  56.604  1.00  0.00     0.014 A 
HETATM   31  C   UNL     1       8.292  21.576  57.065  1.00  0.00     0.001 A 
HETATM   32  C   UNL     1       8.093  20.513  56.190  1.00  0.00     0.002 A 
ENDBRANCH  21  22
ENDBRANCH   1  20
TORSDOF 7
ENDMDL
MODEL 2
REMARK VINA RESULT:      -9.7      2.954     10.354
REMARK  7 active torsions:
REMARK  status: ('A' for Active; 'I' for Inactive)
REMARK    1  A    between atoms: C_7  and  C_8 
REMARK    2  A    between atoms: N_9  and  N_10 
REMARK       I    between atoms: N_10  and  C_11 
REMARK    3  A    between atoms: C_11  and  C_12 
REMARK    4  A    between atoms: C_12  and  N_13 
REMARK       I    between atoms: N_13  and  C_14 
REMARK    5  A    between atoms: C_14  and  C_15 
REMARK    6  A    between atoms: C_16  and  C_17 
REMARK    7  A    between atoms: C_18  and  O_19 
ROOT
HETATM    1  N   UNL     1       5.872  29.344  54.910  1.00  0.00    -0.246 N 
HETATM    2  C   UNL     1       4.657  28.737  55.198  1.00  0.00     0.255 C 
HETATM    3  O   UNL     1       4.051  28.808  56.265  1.00  0.00    -0.270 OA
HETATM    4  H   UNL     1       6.323  29.153  54.011  1.00  0.00     0.192 HD
ENDROOT
BRANCH   2   5
HETATM    5  C   UNL     1       4.102  27.948  54.012  1.00  0.00     0.227 C 
BRANCH   5   6
HETATM    6  N   UNL     1       4.563  26.569  54.014  1.00  0.00    -0.349 N 
HETATM    7  C   UNL     1       5.653  26.179  53.283  1.00  0.00     0.241 C 
HETATM    8  O   UNL     1       6.321  26.961  52.614  1.00  0.00    -0.269 OA
HETATM    9  H   UNL     1       4.121  25.926  54.658  1.00  0.00     0.163 HD
BRANCH   7  10
HETATM   10  C   UNL     1       5.986  24.747  53.440  1.00  0.00     0.075 C 
HETATM   11  C   UNL     1       7.219  24.389  53.830  1.00  0.00     0.020 C 
BRANCH  11  12
HETATM   12  C   UNL     1       7.567  22.981  54.051  1.00  0.00    -0.003 A 
HETATM   13  C   UNL     1       7.686  22.428  55.341  1.00  0.00     0.078 A 
HETATM   14  C   UNL     1       8.033  21.078  55.472  1.00  0.00     0.037 A 
HETATM   15  C   UNL     1       8.258  20.289  54.340  1.00  0.00     0.003 A 
HETATM   16  C   UNL     1       8.139  20.838  53.067  1.00  0.00     0.001 A 
HETATM   17  C   UNL     1       7.795  22.180  52.922  1.00  0.00     0.014 A 
BRANCH  13  18
HETATM   18  O   UNL     1       7.452  23.277  56.393  1.00  0.00    -0.355 OA
HETATM   19  C   UNL     1       8.580  23.713  57.144  1.00  0.00     0.210 C 
ENDBRANCH  13  18
ENDBRANCH  11  12
ENDBRANCH   7  10
ENDBRANCH   5   6
ENDBRANCH   2   5
BRANCH   1  20
HETATM   20  N   UNL     1       6.520  30.074  55.863  1.00  0.00    -0.184 NA
HETATM   21  C   UNL     1       7.522  29.483  56.428  1.00  0.00     0.153 C 
BRANCH  21  22
HETATM   22  C   UNL     1       8.284  30.165  57.459  1.00  0.00     0.018 A 
HETATM   23  C   UNL     1       9.669  30.118  57.566  1.00  0.00     0.018 A 
HETATM   24  C   UNL     1      10.690  29.426  56.737  1.00  0.00     0.069 C 
HETATM   25  N   UNL     1      10.030  30.877  58.651  1.00  0.00    -0.358 N 
HETATM   26  H   UNL     1      10.977  31.027  58.970  1.00  0.00     0.166 HD
HETATM   27  C   UNL     1       8.922  31.417  59.258  1.00  0.00     0.043 A 
HETATM   28  C   UNL     1       7.808  30.989  58.534  1.00  0.00     0.004 A 
HETATM   29  C   UNL     1       8.829  32.246  60.384  1.00  0.00     0.030 A 
HETATM   30  C   UNL     1       6.534  31.416  58.967  1.00  0.00     0.014 A 
HETATM   31  C   UNL     1       6.420  32.244  60.090  1.00  0.00     0.001 A 
HETATM   32  C   UNL     1       7.554  32.652  60.787  1.00  0.00     0.002 A 
ENDBRANCH  21  22
ENDBRANCH   1  20
TORSDOF 7
ENDMDL
MODEL 3
REMARK VINA RESULT:      -9.5      2.390      3.412
REMARK  7 active torsions:
REMARK  status: ('A' for Active; 'I' for Inactive)
REMARK    1  A    between atoms: C_7  and  C_8 
REMARK    2  A    between atoms: N_9  and  N_10 
REMARK       I    between atoms: N_10  and  C_11 
REMARK    3  A    between atoms: C_11  and  C_12 
REMARK    4  A    between atoms: C_12  and  N_13 
REMARK       I    between atoms: N_13  and  C_14 
REMARK    5  A    between atoms: C_14  and  C_15 
REMARK    6  A    between atoms: C_16  and  C_17 
REMARK    7  A    between atoms: C_18  and  O_19 
ROOT
HETATM    1  N   UNL     1       4.853  26.515  55.253  1.00  0.00    -0.246 N 
HETATM    2  C   UNL     1       4.664  27.785  54.725  1.00  0.00     0.255 C 
HETATM    3  O   UNL     1       4.938  28.137  53.580  1.00  0.00    -0.270 OA
HETATM    4  H   UNL     1       4.659  26.355  56.246  1.00  0.00     0.192 HD
ENDROOT
BRANCH   2   5
HETATM    5  C   UNL     1       4.040  28.750  55.733  1.00  0.00     0.227 C 
BRANCH   5   6
HETATM    6  N   UNL     1       4.943  29.044  56.834  1.00  0.00    -0.349 N 
HETATM    7  C   UNL     1       5.578  30.253  56.934  1.00  0.00     0.241 C 
HETATM    8  O   UNL     1       5.404  31.165  56.132  1.00  0.00    -0.269 OA
HETATM    9  H   UNL     1       5.005  28.369  57.585  1.00  0.00     0.163 HD
BRANCH   7  10
HETATM   10  C   UNL     1       6.427  30.375  58.139  1.00  0.00     0.075 C 
HETATM   11  C   UNL     1       6.828  31.586  58.551  1.00  0.00     0.020 C 
BRANCH  11  12
HETATM   12  C   UNL     1       7.623  31.748  59.773  1.00  0.00    -0.003 A 
HETATM   13  C   UNL     1       9.008  32.003  59.744  1.00  0.00     0.078 A 
HETATM   14  C   UNL     1       9.701  32.133  60.954  1.00  0.00     0.037 A 
HETATM   15  C   UNL     1       9.029  32.014  62.174  1.00  0.00     0.003 A 
HETATM   16  C   UNL     1       7.661  31.762  62.199  1.00  0.00     0.001 A 
HETATM   17  C   UNL     1       6.959  31.629  61.004  1.00  0.00     0.014 A 
BRANCH  13  18
HETATM   18  O   UNL     1       9.584  32.100  58.502  1.00  0.00    -0.355 OA
HETATM   19  C   UNL     1      10.587  31.147  58.172  1.00  0.00     0.210 C 
ENDBRANCH  13  18
ENDBRANCH  11  12
ENDBRANCH   7  10
ENDBRANCH   5   6
ENDBRANCH   2   5
BRANCH   1  20
HETATM   20  N   UNL     1       5.418  25.531  54.496  1.00  0.00    -0.184 NA
HETATM   21  C   UNL     1       6.478  24.985  54.998  1.00  0.00     0.153 C 
BRANCH  21  22
HETATM   22  C   UNL     1       7.164  23.929  54.276  1.00  0.00     0.018 A 
HETATM   23  C   UNL     1       7.560  24.020  52.946  1.00  0.00     0.018 A 
HETATM   24  C   UNL     1       7.416  25.121  51.958  1.00  0.00     0.069 C 
HETATM   25  N   UNL     1       8.175  22.840  52.611  1.00  0.00    -0.358 N 
HETATM   26  H   UNL     1       8.566  22.622  51.705  1.00  0.00     0.166 HD
HETATM   27  C   UNL     1       8.191  21.978  53.680  1.00  0.00     0.043 A 
HETATM   28  C   UNL     1       7.564  22.631  54.743  1.00  0.00     0.004 A 
HETATM   29  C   UNL     1       8.712  20.681  53.782  1.00  0.00     0.030 A 
HETATM   30  C   UNL     1       7.455  21.942  55.971  1.00  0.00     0.014 A 
HETATM   31  C   UNL     1       7.969  20.645  56.091  1.00  0.00     0.001 A 
HETATM   32  C   UNL     1       8.588  20.026  55.010  1.00  0.00     0.002 A 
ENDBRANCH  21  22
ENDBRANCH   1  20
TORSDOF 7
ENDMDL
MODEL 4
REMARK VINA RESULT:      -9.2      2.795     10.782
REMARK  7 active torsions:
REMARK  status: ('A' for Active; 'I' for Inactive)
REMARK    1  A    between atoms: C_7  and  C_8 
REMARK    2  A    between atoms: N_9  and  N_10 
REMARK       I    between atoms: N_10  and  C_11 
REMARK    3  A    between atoms: C_11  and  C_12 
REMARK    4  A    between atoms: C_12  and  N_13 
REMARK       I    between atoms: N_13  and  C_14 
REMARK    5  A    between atoms: C_14  and  C_15 
REMARK    6  A    between atoms: C_16  and  C_17 
REMARK    7  A    between atoms: C_18  and  O_19 
ROOT
HETATM    1  N   UNL     1       6.676  28.737  55.851  1.00  0.00    -0.246 N 
HETATM    2  C   UNL     1       5.764  28.885  54.815  1.00  0.00     0.255 C 
HETATM    3  O   UNL     1       4.716  29.524  54.864  1.00  0.00    -0.270 OA
HETATM    4  H   UNL     1       7.479  28.116  55.722  1.00  0.00     0.192 HD
ENDROOT
BRANCH   2   5
HETATM    5  C   UNL     1       6.205  28.164  53.541  1.00  0.00     0.227 C 
BRANCH   5   6
HETATM    6  N   UNL     1       6.424  26.745  53.768  1.00  0.00    -0.349 N 
HETATM    7  C   UNL     1       6.368  25.841  52.742  1.00  0.00     0.241 C 
HETATM    8  O   UNL     1       6.164  26.167  51.576  1.00  0.00    -0.269 OA
HETATM    9  H   UNL     1       6.728  26.457  54.689  1.00  0.00     0.163 HD
BRANCH   7  10
HETATM   10  C   UNL     1       6.651  24.452  53.164  1.00  0.00     0.075 C 
HETATM   11  C   UNL     1       7.920  24.055  53.341  1.00  0.00     0.020 C 
BRANCH  11  12
HETATM   12  C   UNL     1       8.235  22.703  53.814  1.00  0.00    -0.003 A 
HETATM   13  C   UNL     1       8.850  22.463  55.059  1.00  0.00     0.078 A 
HETATM   14  C   UNL     1       9.129  21.144  55.436  1.00  0.00     0.037 A 
HETATM   15  C   UNL     1       8.803  20.079  54.592  1.00  0.00     0.003 A 
HETATM   16  C   UNL     1       8.196  20.319  53.363  1.00  0.00     0.001 A 
HETATM   17  C   UNL     1       7.913  21.626  52.974  1.00  0.00     0.014 A 
BRANCH  13  18
HETATM   18  O   UNL     1       9.138  23.569  55.819  1.00  0.00    -0.355 OA
HETATM   19  C   UNL     1       8.564  23.635  57.119  1.00  0.00     0.210 C 
ENDBRANCH  13  18
ENDBRANCH  11  12
ENDBRANCH   7  10
ENDBRANCH   5   6
ENDBRANCH   2   5
BRANCH   1  20
HETATM   20  N   UNL     1       6.431  29.300  57.070  1.00  0.00    -0.184 NA
HETATM   21  C   UNL     1       6.931  30.479  57.246  1.00  0.00     0.153 C 
BRANCH  21  22
HETATM   22  C   UNL     1       6.735  31.172  58.507  1.00  0.00     0.018 A 
HETATM   23  C   UNL     1       5.664  32.016  58.776  1.00  0.00     0.018 A 
HETATM   24  C   UNL     1       4.505  32.422  57.938  1.00  0.00     0.069 C 
HETATM   25  N   UNL     1       5.812  32.484  60.058  1.00  0.00    -0.358 N 
HETATM   26  H   UNL     1       5.178  33.117  60.526  1.00  0.00     0.166 HD
HETATM   27  C   UNL     1       6.950  31.974  60.634  1.00  0.00     0.043 A 
HETATM   28  C   UNL     1       7.554  31.146  59.687  1.00  0.00     0.004 A 
HETATM   29  C   UNL     1       7.481  32.184  61.913  1.00  0.00     0.030 A 
HETATM   30  C   UNL     1       8.755  30.496  60.045  1.00  0.00     0.014 A 
HETATM   31  C   UNL     1       9.302  30.694  61.319  1.00  0.00     0.001 A 
HETATM   32  C   UNL     1       8.671  31.527  62.238  1.00  0.00     0.002 A 
ENDBRANCH  21  22
ENDBRANCH   1  20
TORSDOF 7
ENDMDL
MODEL 5
REMARK VINA RESULT:      -9.2      2.185      3.482
REMARK  7 active torsions:
REMARK  status: ('A' for Active; 'I' for Inactive)
REMARK    1  A    between atoms: C_7  and  C_8 
REMARK    2  A    between atoms: N_9  and  N_10 
REMARK       I    between atoms: N_10  and  C_11 
REMARK    3  A    between atoms: C_11  and  C_12 
REMARK    4  A    between atoms: C_12  and  N_13 
REMARK       I    between atoms: N_13  and  C_14 
REMARK    5  A    between atoms: C_14  and  C_15 
REMARK    6  A    between atoms: C_16  and  C_17 
REMARK    7  A    between atoms: C_18  and  O_19 
ROOT
HETATM    1  N   UNL     1       8.531  29.142  58.107  1.00  0.00    -0.246 N 
HETATM    2  C   UNL     1       8.007  30.383  58.441  1.00  0.00     0.255 C 
HETATM    3  O   UNL     1       6.845  30.743  58.273  1.00  0.00    -0.270 OA
HETATM    4  H   UNL     1       9.535  28.978  58.223  1.00  0.00     0.192 HD
ENDROOT
BRANCH   2   5
HETATM    5  C   UNL     1       9.046  31.303  59.084  1.00  0.00     0.227 C 
BRANCH   5   6
HETATM    6  N   UNL     1       8.590  31.827  60.361  1.00  0.00    -0.349 N 
HETATM    7  C   UNL     1       8.848  31.172  61.535  1.00  0.00     0.241 C 
HETATM    8  O   UNL     1       9.499  30.133  61.590  1.00  0.00    -0.269 OA
HETATM    9  H   UNL     1       8.170  32.748  60.369  1.00  0.00     0.163 HD
BRANCH   7  10
HETATM   10  C   UNL     1       8.334  31.878  62.729  1.00  0.00     0.075 C 
HETATM   11  C   UNL     1       7.045  32.244  62.783  1.00  0.00     0.020 C 
BRANCH  11  12
HETATM   12  C   UNL     1       6.489  32.894  63.975  1.00  0.00    -0.003 A 
HETATM   13  C   UNL     1       5.104  33.059  64.167  1.00  0.00     0.078 A 
HETATM   14  C   UNL     1       4.650  33.701  65.326  1.00  0.00     0.037 A 
HETATM   15  C   UNL     1       5.557  34.170  66.280  1.00  0.00     0.003 A 
HETATM   16  C   UNL     1       6.925  34.005  66.088  1.00  0.00     0.001 A 
HETATM   17  C   UNL     1       7.391  33.369  64.939  1.00  0.00     0.014 A 
BRANCH  13  18
HETATM   18  O   UNL     1       4.289  32.572  63.176  1.00  0.00    -0.355 OA
HETATM   19  C   UNL     1       3.583  33.520  62.385  1.00  0.00     0.210 C 
ENDBRANCH  13  18
ENDBRANCH  11  12
ENDBRANCH   7  10
ENDBRANCH   5   6
ENDBRANCH   2   5
BRANCH   1  20
HETATM   20  N   UNL     1       7.746  28.202  57.505  1.00  0.00    -0.184 NA
HETATM   21  C   UNL     1       8.378  27.326  56.794  1.00  0.00     0.153 C 
BRANCH  21  22
HETATM   22  C   UNL     1       7.642  26.280  56.105  1.00  0.00     0.018 A 
HETATM   23  C   UNL     1       7.774  24.923  56.378  1.00  0.00     0.018 A 
HETATM   24  C   UNL     1       8.623  24.203  57.363  1.00  0.00     0.069 C 
HETATM   25  N   UNL     1       6.928  24.244  55.537  1.00  0.00    -0.358 N 
HETATM   26  H   UNL     1       6.811  23.240  55.512  1.00  0.00     0.166 HD
HETATM   27  C   UNL     1       6.249  25.115  54.721  1.00  0.00     0.043 A 
HETATM   28  C   UNL     1       6.674  26.403  55.052  1.00  0.00     0.004 A 
HETATM   29  C   UNL     1       5.298  24.858  53.725  1.00  0.00     0.030 A 
HETATM   30  C   UNL     1       6.114  27.487  54.342  1.00  0.00     0.014 A 
HETATM   31  C   UNL     1       5.162  27.249  53.343  1.00  0.00     0.001 A 
HETATM   32  C   UNL     1       4.762  25.952  53.041  1.00  0.00     0.002 A 
ENDBRANCH  21  22
ENDBRANCH   1  20
TORSDOF 7
ENDMDL
MODEL 6
REMARK VINA RESULT:      -9.1      2.357      3.410
REMARK  7 active torsions:
REMARK  status: ('A' for Active; 'I' for Inactive)
REMARK    1  A    between atoms: C_7  and  C_8 
REMARK    2  A    between atoms: N_9  and  N_10 
REMARK       I    between atoms: N_10  and  C_11 
REMARK    3  A    between atoms: C_11  and  C_12 
REMARK    4  A    between atoms: C_12  and  N_13 
REMARK       I    between atoms: N_13  and  C_14 
REMARK    5  A    between atoms: C_14  and  C_15 
REMARK    6  A    between atoms: C_16  and  C_17 
REMARK    7  A    between atoms: C_18  and  O_19 
ROOT
HETATM    1  N   UNL     1       7.613  29.031  58.182  1.00  0.00    -0.246 N 
HETATM    2  C   UNL     1       7.284  30.344  58.486  1.00  0.00     0.255 C 
HETATM    3  O   UNL     1       6.257  30.927  58.146  1.00  0.00    -0.270 OA
HETATM    4  H   UNL     1       8.533  28.673  58.452  1.00  0.00     0.192 HD
ENDROOT
BRANCH   2   5
HETATM    5  C   UNL     1       8.353  31.033  59.335  1.00  0.00     0.227 C 
BRANCH   5   6
HETATM    6  N   UNL     1       7.859  31.370  60.660  1.00  0.00    -0.349 N 
HETATM    7  C   UNL     1       8.716  31.623  61.698  1.00  0.00     0.241 C 
HETATM    8  O   UNL     1       9.936  31.614  61.573  1.00  0.00    -0.269 OA
HETATM    9  H   UNL     1       6.864  31.520  60.768  1.00  0.00     0.163 HD
BRANCH   7  10
HETATM   10  C   UNL     1       8.026  31.981  62.957  1.00  0.00     0.075 C 
HETATM   11  C   UNL     1       7.233  33.061  62.998  1.00  0.00     0.020 C 
BRANCH  11  12
HETATM   12  C   UNL     1       6.489  33.412  64.213  1.00  0.00    -0.003 A 
HETATM   13  C   UNL     1       5.082  33.415  64.261  1.00  0.00     0.078 A 
HETATM   14  C   UNL     1       4.443  33.773  65.455  1.00  0.00     0.037 A 
HETATM   15  C   UNL     1       5.190  34.122  66.583  1.00  0.00     0.003 A 
HETATM   16  C   UNL     1       6.581  34.118  66.532  1.00  0.00     0.001 A 
HETATM   17  C   UNL     1       7.229  33.765  65.351  1.00  0.00     0.014 A 
BRANCH  13  18
HETATM   18  O   UNL     1       4.431  33.064  63.105  1.00  0.00    -0.355 OA
HETATM   19  C   UNL     1       3.167  33.668  62.858  1.00  0.00     0.210 C 
ENDBRANCH  13  18
ENDBRANCH  11  12
ENDBRANCH   7  10
ENDBRANCH   5   6
ENDBRANCH   2   5
BRANCH   1  20
HETATM   20  N   UNL     1       6.779  28.272  57.413  1.00  0.00    -0.184 NA
HETATM   21  C   UNL     1       7.050  28.257  56.149  1.00  0.00     0.153 C 
BRANCH  21  22
HETATM   22  C   UNL     1       6.227  27.485  55.236  1.00  0.00     0.018 A 
HETATM   23  C   UNL     1       4.943  27.848  54.845  1.00  0.00     0.018 A 
HETATM   24  C   UNL     1       4.108  29.023  55.205  1.00  0.00     0.069 C 
HETATM   25  N   UNL     1       4.481  26.885  53.982  1.00  0.00    -0.358 N 
HETATM   26  H   UNL     1       3.575  26.888  53.536  1.00  0.00     0.166 HD
HETATM   27  C   UNL     1       5.423  25.902  53.800  1.00  0.00     0.043 A 
HETATM   28  C   UNL     1       6.532  26.248  54.573  1.00  0.00     0.004 A 
HETATM   29  C   UNL     1       5.373  24.745  53.012  1.00  0.00     0.030 A 
HETATM   30  C   UNL     1       7.648  25.383  54.554  1.00  0.00     0.014 A 
HETATM   31  C   UNL     1       7.616  24.221  53.773  1.00  0.00     0.001 A 
HETATM   32  C   UNL     1       6.492  23.908  53.014  1.00  0.00     0.002 A 
ENDBRANCH  21  22
ENDBRANCH   1  20
TORSDOF 7
ENDMDL
MODEL 7
REMARK VINA RESULT:      -9.0      1.801      2.711
REMARK  7 active torsions:
REMARK  status: ('A' for Active; 'I' for Inactive)
REMARK    1  A    between atoms: C_7  and  C_8 
REMARK    2  A    between atoms: N_9  and  N_10 
REMARK       I    between atoms: N_10  and  C_11 
REMARK    3  A    between atoms: C_11  and  C_12 
REMARK    4  A    between atoms: C_12  and  N_13 
REMARK       I    between atoms: N_13  and  C_14 
REMARK    5  A    between atoms: C_14  and  C_15 
REMARK    6  A    between atoms: C_16  and  C_17 
REMARK    7  A    between atoms: C_18  and  O_19 
ROOT
HETATM    1  N   UNL     1       5.852  28.089  56.531  1.00  0.00    -0.246 N 
HETATM    2  C   UNL     1       6.393  29.349  56.747  1.00  0.00     0.255 C 
HETATM    3  O   UNL     1       7.535  29.701  56.464  1.00  0.00    -0.270 OA
HETATM    4  H   UNL     1       4.911  27.885  56.878  1.00  0.00     0.192 HD
ENDROOT
BRANCH   2   5
HETATM    5  C   UNL     1       5.391  30.313  57.383  1.00  0.00     0.227 C 
BRANCH   5   6
HETATM    6  N   UNL     1       5.862  30.820  58.662  1.00  0.00    -0.349 N 
HETATM    7  C   UNL     1       6.062  32.158  58.870  1.00  0.00     0.241 C 
HETATM    8  O   UNL     1       5.828  33.008  58.016  1.00  0.00    -0.269 OA
HETATM    9  H   UNL     1       5.935  30.165  59.430  1.00  0.00     0.163 HD
BRANCH   7  10
HETATM   10  C   UNL     1       6.509  32.481  60.242  1.00  0.00     0.075 C 
HETATM   11  C   UNL     1       5.602  32.657  61.214  1.00  0.00     0.020 C 
BRANCH  11  12
HETATM   12  C   UNL     1       6.012  32.921  62.598  1.00  0.00    -0.003 A 
HETATM   13  C   UNL     1       5.083  33.170  63.626  1.00  0.00     0.078 A 
HETATM   14  C   UNL     1       5.552  33.426  64.920  1.00  0.00     0.037 A 
HETATM   15  C   UNL     1       6.923  33.434  65.190  1.00  0.00     0.003 A 
HETATM   16  C   UNL     1       7.840  33.188  64.172  1.00  0.00     0.001 A 
HETATM   17  C   UNL     1       7.387  32.932  62.880  1.00  0.00     0.014 A 
BRANCH  13  18
HETATM   18  O   UNL     1       3.757  33.147  63.268  1.00  0.00    -0.355 OA
HETATM   19  C   UNL     1       2.993  34.320  63.521  1.00  0.00     0.210 C 
ENDBRANCH  13  18
ENDBRANCH  11  12
ENDBRANCH   7  10
ENDBRANCH   5   6
ENDBRANCH   2   5
BRANCH   1  20
HETATM   20  N   UNL     1       6.614  27.096  55.987  1.00  0.00    -0.184 NA
HETATM   21  C   UNL     1       6.712  26.020  56.698  1.00  0.00     0.153 C 
BRANCH  21  22
HETATM   22  C   UNL     1       7.501  24.899  56.219  1.00  0.00     0.018 A 
HETATM   23  C   UNL     1       8.462  24.240  56.976  1.00  0.00     0.018 A 
HETATM   24  C   UNL     1       8.926  24.460  58.371  1.00  0.00     0.069 C 
HETATM   25  N   UNL     1       8.995  23.242  56.199  1.00  0.00    -0.358 N 
HETATM   26  H   UNL     1       9.717  22.597  56.490  1.00  0.00     0.166 HD
HETATM   27  C   UNL     1       8.413  23.231  54.955  1.00  0.00     0.043 A 
HETATM   28  C   UNL     1       7.469  24.259  54.934  1.00  0.00     0.004 A 
HETATM   29  C   UNL     1       8.651  22.391  53.859  1.00  0.00     0.030 A 
HETATM   30  C   UNL     1       6.728  24.453  53.748  1.00  0.00     0.014 A 
HETATM   31  C   UNL     1       6.953  23.624  52.642  1.00  0.00     0.001 A 
HETATM   32  C   UNL     1       7.902  22.608  52.699  1.00  0.00     0.002 A 
ENDBRANCH  21  22
ENDBRANCH   1  20
TORSDOF 7
ENDMDL
MODEL 8
REMARK VINA RESULT:      -9.0      2.144     11.162
REMARK  7 active torsions:
REMARK  status: ('A' for Active; 'I' for Inactive)
REMARK    1  A    between atoms: C_7  and  C_8 
REMARK    2  A    between atoms: N_9  and  N_10 
REMARK       I    between atoms: N_10  and  C_11 
REMARK    3  A    between atoms: C_11  and  C_12 
REMARK    4  A    between atoms: C_12  and  N_13 
REMARK       I    between atoms: N_13  and  C_14 
REMARK    5  A    between atoms: C_14  and  C_15 
REMARK    6  A    between atoms: C_16  and  C_17 
REMARK    7  A    between atoms: C_18  and  O_19 
ROOT
HETATM    1  N   UNL     1       7.806  30.056  57.760  1.00  0.00    -0.246 N 
HETATM    2  C   UNL     1       7.048  29.229  56.944  1.00  0.00     0.255 C 
HETATM    3  O   UNL     1       5.882  28.895  57.140  1.00  0.00    -0.270 OA
HETATM    4  H   UNL     1       8.794  30.204  57.538  1.00  0.00     0.192 HD
ENDROOT
BRANCH   2   5
HETATM    5  C   UNL     1       7.819  28.758  55.710  1.00  0.00     0.227 C 
BRANCH   5   6
HETATM    6  N   UNL     1       7.610  27.343  55.446  1.00  0.00    -0.349 N 
HETATM    7  C   UNL     1       6.846  26.919  54.392  1.00  0.00     0.241 C 
HETATM    8  O   UNL     1       6.324  27.692  53.594  1.00  0.00    -0.269 OA
HETATM    9  H   UNL     1       8.134  26.678  56.000  1.00  0.00     0.163 HD
BRANCH   7  10
HETATM   10  C   UNL     1       6.779  25.447  54.268  1.00  0.00     0.075 C 
HETATM   11  C   UNL     1       7.907  24.723  54.315  1.00  0.00     0.020 C 
BRANCH  11  12
HETATM   12  C   UNL     1       7.871  23.257  54.253  1.00  0.00    -0.003 A 
HETATM   13  C   UNL     1       7.671  22.458  55.395  1.00  0.00     0.078 A 
HETATM   14  C   UNL     1       7.661  21.065  55.257  1.00  0.00     0.037 A 
HETATM   15  C   UNL     1       7.848  20.474  54.005  1.00  0.00     0.003 A 
HETATM   16  C   UNL     1       8.046  21.266  52.878  1.00  0.00     0.001 A 
HETATM   17  C   UNL     1       8.058  22.653  53.001  1.00  0.00     0.014 A 
BRANCH  13  18
HETATM   18  O   UNL     1       7.501  23.125  56.583  1.00  0.00    -0.355 OA
HETATM   19  C   UNL     1       8.672  23.591  57.243  1.00  0.00     0.210 C 
ENDBRANCH  13  18
ENDBRANCH  11  12
ENDBRANCH   7  10
ENDBRANCH   5   6
ENDBRANCH   2   5
BRANCH   1  20
HETATM   20  N   UNL     1       7.279  30.553  58.917  1.00  0.00    -0.184 NA
HETATM   21  C   UNL     1       6.837  31.766  58.849  1.00  0.00     0.153 C 
BRANCH  21  22
HETATM   22  C   UNL     1       6.258  32.397  60.021  1.00  0.00     0.018 A 
HETATM   23  C   UNL     1       5.002  32.994  60.047  1.00  0.00     0.018 A 
HETATM   24  C   UNL     1       3.972  33.149  58.986  1.00  0.00     0.069 C 
HETATM   25  N   UNL     1       4.796  33.478  61.315  1.00  0.00    -0.358 N 
HETATM   26  H   UNL     1       3.965  33.961  61.627  1.00  0.00     0.166 HD
HETATM   27  C   UNL     1       5.879  33.218  62.117  1.00  0.00     0.043 A 
HETATM   28  C   UNL     1       6.816  32.540  61.336  1.00  0.00     0.004 A 
HETATM   29  C   UNL     1       6.094  33.531  63.466  1.00  0.00     0.030 A 
HETATM   30  C   UNL     1       8.032  32.159  61.943  1.00  0.00     0.014 A 
HETATM   31  C   UNL     1       8.265  32.464  63.290  1.00  0.00     0.001 A 
HETATM   32  C   UNL     1       7.307  33.140  64.039  1.00  0.00     0.002 A 
ENDBRANCH  21  22
ENDBRANCH   1  20
TORSDOF 7
ENDMDL
MODEL 9
REMARK VINA RESULT:      -8.9      2.606     11.135
REMARK  7 active torsions:
REMARK  status: ('A' for Active; 'I' for Inactive)
REMARK    1  A    between atoms: C_7  and  C_8 
REMARK    2  A    between atoms: N_9  and  N_10 
REMARK       I    between atoms: N_10  and  C_11 
REMARK    3  A    between atoms: C_11  and  C_12 
REMARK    4  A    between atoms: C_12  and  N_13 
REMARK       I    between atoms: N_13  and  C_14 
REMARK    5  A    between atoms: C_14  and  C_15 
REMARK    6  A    between atoms: C_16  and  C_17 
REMARK    7  A    between atoms: C_18  and  O_19 
ROOT
HETATM    1  N   UNL     1       6.430  31.260  58.027  1.00  0.00    -0.246 N 
HETATM    2  C   UNL     1       5.257  30.869  57.395  1.00  0.00     0.255 C 
HETATM    3  O   UNL     1       4.180  30.655  57.945  1.00  0.00    -0.270 OA
HETATM    4  H   UNL     1       7.290  31.334  57.477  1.00  0.00     0.192 HD
ENDROOT
BRANCH   2   5
HETATM    5  C   UNL     1       5.425  30.738  55.881  1.00  0.00     0.227 C 
BRANCH   5   6
HETATM    6  N   UNL     1       6.151  29.532  55.518  1.00  0.00    -0.349 N 
HETATM    7  C   UNL     1       5.526  28.316  55.446  1.00  0.00     0.241 C 
HETATM    8  O   UNL     1       4.324  28.172  55.648  1.00  0.00    -0.269 OA
HETATM    9  H   UNL     1       7.110  29.634  55.212  1.00  0.00     0.163 HD
BRANCH   7  10
HETATM   10  C   UNL     1       6.422  27.216  55.028  1.00  0.00     0.075 C 
HETATM   11  C   UNL     1       5.961  25.957  54.996  1.00  0.00     0.020 C 
BRANCH  11  12
HETATM   12  C   UNL     1       6.805  24.851  54.532  1.00  0.00    -0.003 A 
HETATM   13  C   UNL     1       7.546  24.044  55.417  1.00  0.00     0.078 A 
HETATM   14  C   UNL     1       8.338  23.014  54.897  1.00  0.00     0.037 A 
HETATM   15  C   UNL     1       8.394  22.787  53.519  1.00  0.00     0.003 A 
HETATM   16  C   UNL     1       7.661  23.585  52.647  1.00  0.00     0.001 A 
HETATM   17  C   UNL     1       6.869  24.614  53.150  1.00  0.00     0.014 A 
BRANCH  13  18
HETATM   18  O   UNL     1       7.434  24.343  56.752  1.00  0.00    -0.355 OA
HETATM   19  C   UNL     1       8.612  24.768  57.427  1.00  0.00     0.210 C 
ENDBRANCH  13  18
ENDBRANCH  11  12
ENDBRANCH   7  10
ENDBRANCH   5   6
ENDBRANCH   2   5
BRANCH   1  20
HETATM   20  N   UNL     1       6.466  31.407  59.383  1.00  0.00    -0.184 NA
HETATM   21  C   UNL     1       7.439  32.127  59.837  1.00  0.00     0.153 C 
BRANCH  21  22
HETATM   22  C   UNL     1       7.577  32.348  61.265  1.00  0.00     0.018 A 
HETATM   23  C   UNL     1       8.425  31.617  62.091  1.00  0.00     0.018 A 
HETATM   24  C   UNL     1       9.358  30.500  61.789  1.00  0.00     0.069 C 
HETATM   25  N   UNL     1       8.289  32.106  63.366  1.00  0.00    -0.358 N 
HETATM   26  H   UNL     1       8.787  31.767  64.177  1.00  0.00     0.166 HD
HETATM   27  C   UNL     1       7.377  33.132  63.400  1.00  0.00     0.043 A 
HETATM   28  C   UNL     1       6.910  33.310  62.097  1.00  0.00     0.004 A 
HETATM   29  C   UNL     1       6.937  33.908  64.481  1.00  0.00     0.030 A 
HETATM   30  C   UNL     1       5.950  34.320  61.870  1.00  0.00     0.014 A 
HETATM   31  C   UNL     1       5.498  35.105  62.938  1.00  0.00     0.001 A 
HETATM   32  C   UNL     1       5.986  34.900  64.225  1.00  0.00     0.002 A 
ENDBRANCH  21  22
ENDBRANCH   1  20
TORSDOF 7
ENDMDL
MODEL 10
REMARK VINA RESULT:      -8.8      1.828      2.362
REMARK  7 active torsions:
REMARK  status: ('A' for Active; 'I' for Inactive)
REMARK    1  A    between atoms: C_7  and  C_8 
REMARK    2  A    between atoms: N_9  and  N_10 
REMARK       I    between atoms: N_10  and  C_11 
REMARK    3  A    between atoms: C_11  and  C_12 
REMARK    4  A    between atoms: C_12  and  N_13 
REMARK       I    between atoms: N_13  and  C_14 
REMARK    5  A    between atoms: C_14  and  C_15 
REMARK    6  A    between atoms: C_16  and  C_17 
REMARK    7  A    between atoms: C_18  and  O_19 
ROOT
HETATM    1  N   UNL     1       5.609  28.272  55.912  1.00  0.00    -0.246 N 
HETATM    2  C   UNL     1       6.056  28.948  57.039  1.00  0.00     0.255 C 
HETATM    3  O   UNL     1       7.071  28.687  57.681  1.00  0.00    -0.270 OA
HETATM    4  H   UNL     1       4.707  28.529  55.503  1.00  0.00     0.192 HD
ENDROOT
BRANCH   2   5
HETATM    5  C   UNL     1       5.143  30.113  57.422  1.00  0.00     0.227 C 
BRANCH   5   6
HETATM    6  N   UNL     1       5.683  30.885  58.530  1.00  0.00    -0.349 N 
HETATM    7  C   UNL     1       5.134  32.082  58.901  1.00  0.00     0.241 C 
HETATM    8  O   UNL     1       4.145  32.560  58.353  1.00  0.00    -0.269 OA
HETATM    9  H   UNL     1       6.411  30.459  59.090  1.00  0.00     0.163 HD
BRANCH   7  10
HETATM   10  C   UNL     1       5.799  32.699  60.069  1.00  0.00     0.075 C 
HETATM   11  C   UNL     1       5.387  32.395  61.308  1.00  0.00     0.020 C 
BRANCH  11  12
HETATM   12  C   UNL     1       6.061  32.944  62.490  1.00  0.00    -0.003 A 
HETATM   13  C   UNL     1       7.171  32.314  63.085  1.00  0.00     0.078 A 
HETATM   14  C   UNL     1       7.754  32.893  64.219  1.00  0.00     0.037 A 
HETATM   15  C   UNL     1       7.244  34.079  64.753  1.00  0.00     0.003 A 
HETATM   16  C   UNL     1       6.147  34.700  64.162  1.00  0.00     0.001 A 
HETATM   17  C   UNL     1       5.557  34.134  63.034  1.00  0.00     0.014 A 
BRANCH  13  18
HETATM   18  O   UNL     1       7.600  31.150  62.497  1.00  0.00    -0.355 OA
HETATM   19  C   UNL     1       8.885  31.164  61.885  1.00  0.00     0.210 C 
ENDBRANCH  13  18
ENDBRANCH  11  12
ENDBRANCH   7  10
ENDBRANCH   5   6
ENDBRANCH   2   5
BRANCH   1  20
HETATM   20  N   UNL     1       6.295  27.190  55.441  1.00  0.00    -0.184 NA
HETATM   21  C   UNL     1       5.563  26.206  55.030  1.00  0.00     0.153 C 
BRANCH  21  22
HETATM   22  C   UNL     1       6.187  25.002  54.511  1.00  0.00     0.018 A 
HETATM   23  C   UNL     1       6.038  24.547  53.206  1.00  0.00     0.018 A 
HETATM   24  C   UNL     1       5.273  25.102  52.058  1.00  0.00     0.069 C 
HETATM   25  N   UNL     1       6.769  23.391  53.081  1.00  0.00    -0.358 N 
HETATM   26  H   UNL     1       6.848  22.839  52.238  1.00  0.00     0.166 HD
HETATM   27  C   UNL     1       7.388  23.076  54.266  1.00  0.00     0.043 A 
HETATM   28  C   UNL     1       7.043  24.068  55.185  1.00  0.00     0.004 A 
HETATM   29  C   UNL     1       8.220  21.995  54.584  1.00  0.00     0.030 A 
HETATM   30  C   UNL     1       7.563  23.966  56.494  1.00  0.00     0.014 A 
HETATM   31  C   UNL     1       8.396  22.892  56.832  1.00  0.00     0.001 A 
HETATM   32  C   UNL     1       8.719  21.922  55.888  1.00  0.00     0.002 A 
ENDBRANCH  21  22
ENDBRANCH   1  20
TORSDOF 7
ENDMDL
