MODEL 1
REMARK VINA RESULT:      -7.7      0.000      0.000
REMARK  6 active torsions:
REMARK  status: ('A' for Active; 'I' for Inactive)
REMARK    1  A    between atoms: N_2  and  C_5 
REMARK    2  A    between atoms: C_5  and  C_6 
REMARK    3  A    between atoms: C_6  and  C_7 
REMARK    4  A    between atoms: C_7  and  C_8 
REMARK    5  A    between atoms: C_12  and  N_13 
REMARK       I    between atoms: N_13  and  C_14 
REMARK    6  A    between atoms: C_14  and  C_15 
ROOT
HETATM    1  C   UNL     1       8.589  30.918  58.719  1.00  0.00     0.079 A 
HETATM    2  N   UNL     1       7.276  30.902  59.014  1.00  0.00    -0.176 NA
HETATM    3  N   UNL     1       6.805  29.868  58.270  1.00  0.00    -0.261 N 
HETATM    4  H   UNL     1       5.822  29.599  58.323  1.00  0.00     0.191 HD
HETATM    5  C   UNL     1       7.755  29.282  57.470  1.00  0.00     0.147 A 
HETATM    6  C   UNL     1       8.931  29.939  57.755  1.00  0.00     0.116 A 
HETATM    7  C   UNL     1      10.213  29.684  57.188  1.00  0.00     0.105 C 
HETATM    8  N   UNL     1      11.257  29.499  56.721  1.00  0.00    -0.191 NA
ENDROOT
BRANCH   1   9
HETATM    9  C   UNL     1       9.472  31.909  59.405  1.00  0.00     0.064 C 
BRANCH   9  10
HETATM   10  C   UNL     1       9.046  32.242  60.839  1.00  0.00     0.033 C 
BRANCH  10  11
HETATM   11  C   UNL     1       9.067  31.105  61.862  1.00  0.00     0.232 C 
BRANCH  11  12
HETATM   12  N   UNL     1       7.695  30.641  62.206  1.00  0.00    -0.079 N 
HETATM   13  C   UNL     1       6.738  31.724  62.537  1.00  0.00     0.266 C 
HETATM   14  H   UNL     1       7.710  29.948  62.964  1.00  0.00     0.276 HD
HETATM   15  H   UNL     1       7.333  30.142  61.363  1.00  0.00     0.276 HD
ENDBRANCH  11  12
ENDBRANCH  10  11
ENDBRANCH   9  10
ENDBRANCH   1   9
BRANCH   5  16
HETATM   16  N   UNL     1       7.489  28.242  56.593  1.00  0.00    -0.306 N 
HETATM   17  C   UNL     1       7.426  26.922  57.012  1.00  0.00     0.259 C 
HETATM   18  O   UNL     1       7.622  26.602  58.185  1.00  0.00    -0.267 OA
HETATM   19  H   UNL     1       7.327  28.459  55.612  1.00  0.00     0.170 HD
BRANCH  17  20
HETATM   20  C   UNL     1       7.117  25.914  55.994  1.00  0.00     0.063 A 
HETATM   21  C   UNL     1       7.744  24.703  55.760  1.00  0.00     0.091 A 
HETATM   22 CL   UNL     1       9.087  23.995  56.582  1.00  0.00    -0.075 Cl
HETATM   23  S   UNL     1       7.087  23.813  54.467  1.00  0.00    -0.065 SA
HETATM   24  C   UNL     1       5.947  25.021  54.171  1.00  0.00     0.077 A 
HETATM   25 CL   UNL     1       4.816  24.839  52.895  1.00  0.00    -0.076 Cl
HETATM   26  C   UNL     1       6.051  26.083  55.030  1.00  0.00     0.050 A 
ENDBRANCH  17  20
ENDBRANCH   5  16
TORSDOF 6
ENDMDL
MODEL 2
REMARK VINA RESULT:      -7.6      1.082      1.991
REMARK  6 active torsions:
REMARK  status: ('A' for Active; 'I' for Inactive)
REMARK    1  A    between atoms: N_2  and  C_5 
REMARK    2  A    between atoms: C_5  and  C_6 
REMARK    3  A    between atoms: C_6  and  C_7 
REMARK    4  A    between atoms: C_7  and  C_8 
REMARK    5  A    between atoms: C_12  and  N_13 
REMARK       I    between atoms: N_13  and  C_14 
REMARK    6  A    between atoms: C_14  and  C_15 
ROOT
HETATM    1  C   UNL     1       8.555  30.713  58.783  1.00  0.00     0.079 A 
HETATM    2  N   UNL     1       7.250  30.443  58.971  1.00  0.00    -0.176 NA
HETATM    3  N   UNL     1       7.062  29.310  58.245  1.00  0.00    -0.261 N 
HETATM    4  H   UNL     1       6.151  28.851  58.232  1.00  0.00     0.191 HD
HETATM    5  C   UNL     1       8.178  28.900  57.557  1.00  0.00     0.147 A 
HETATM    6  C   UNL     1       9.170  29.790  57.902  1.00  0.00     0.116 A 
HETATM    7  C   UNL     1      10.522  29.779  57.456  1.00  0.00     0.105 C 
HETATM    8  N   UNL     1      11.620  29.792  57.086  1.00  0.00    -0.191 NA
ENDROOT
BRANCH   1   9
HETATM    9  C   UNL     1       9.159  31.885  59.486  1.00  0.00     0.064 C 
BRANCH   9  10
HETATM   10  C   UNL     1       9.634  31.584  60.912  1.00  0.00     0.033 C 
BRANCH  10  11
HETATM   11  C   UNL     1       8.679  31.924  62.058  1.00  0.00     0.232 C 
BRANCH  11  12
HETATM   12  N   UNL     1       7.527  30.984  62.119  1.00  0.00    -0.079 N 
HETATM   13  C   UNL     1       6.230  31.612  62.473  1.00  0.00     0.266 C 
HETATM   14  H   UNL     1       7.715  30.197  62.750  1.00  0.00     0.276 HD
HETATM   15  H   UNL     1       7.431  30.573  61.163  1.00  0.00     0.276 HD
ENDBRANCH  11  12
ENDBRANCH  10  11
ENDBRANCH   9  10
ENDBRANCH   1   9
BRANCH   5  16
HETATM   16  N   UNL     1       8.203  27.797  56.717  1.00  0.00    -0.306 N 
HETATM   17  C   UNL     1       7.969  26.512  57.180  1.00  0.00     0.259 C 
HETATM   18  O   UNL     1       7.745  26.280  58.369  1.00  0.00    -0.267 OA
HETATM   19  H   UNL     1       8.391  27.941  55.727  1.00  0.00     0.170 HD
BRANCH  17  20
HETATM   20  C   UNL     1       8.003  25.431  56.191  1.00  0.00     0.063 A 
HETATM   21  C   UNL     1       7.344  25.349  54.978  1.00  0.00     0.091 A 
HETATM   22 CL   UNL     1       6.269  26.483  54.243  1.00  0.00    -0.075 Cl
HETATM   23  S   UNL     1       7.641  23.912  54.116  1.00  0.00    -0.065 SA
HETATM   24  C   UNL     1       8.656  23.348  55.339  1.00  0.00     0.077 A 
HETATM   25 CL   UNL     1       9.411  21.816  55.190  1.00  0.00    -0.076 Cl
HETATM   26  C   UNL     1       8.777  24.223  56.387  1.00  0.00     0.050 A 
ENDBRANCH  17  20
ENDBRANCH   5  16
TORSDOF 6
ENDMDL
MODEL 3
REMARK VINA RESULT:      -7.2      6.235      8.250
REMARK  6 active torsions:
REMARK  status: ('A' for Active; 'I' for Inactive)
REMARK    1  A    between atoms: N_2  and  C_5 
REMARK    2  A    between atoms: C_5  and  C_6 
REMARK    3  A    between atoms: C_6  and  C_7 
REMARK    4  A    between atoms: C_7  and  C_8 
REMARK    5  A    between atoms: C_12  and  N_13 
REMARK       I    between atoms: N_13  and  C_14 
REMARK    6  A    between atoms: C_14  and  C_15 
ROOT
HETATM    1  C   UNL     1       3.854  28.404  52.481  1.00  0.00     0.079 A 
HETATM    2  N   UNL     1       3.778  28.513  53.820  1.00  0.00    -0.176 NA
HETATM    3  N   UNL     1       4.478  27.434  54.258  1.00  0.00    -0.261 N 
HETATM    4  H   UNL     1       4.616  27.279  55.256  1.00  0.00     0.191 HD
HETATM    5  C   UNL     1       4.930  26.619  53.249  1.00  0.00     0.147 A 
HETATM    6  C   UNL     1       4.548  27.237  52.079  1.00  0.00     0.116 A 
HETATM    7  C   UNL     1       4.798  26.784  50.752  1.00  0.00     0.105 C 
HETATM    8  N   UNL     1       4.978  26.418  49.667  1.00  0.00    -0.191 NA
ENDROOT
BRANCH   1   9
HETATM    9  C   UNL     1       3.234  29.466  51.633  1.00  0.00     0.064 C 
BRANCH   9  10
HETATM   10  C   UNL     1       1.969  29.017  50.892  1.00  0.00     0.033 C 
BRANCH  10  11
HETATM   11  C   UNL     1       2.087  28.761  49.388  1.00  0.00     0.232 C 
BRANCH  11  12
HETATM   12  N   UNL     1       1.748  27.355  49.036  1.00  0.00    -0.079 N 
HETATM   13  C   UNL     1       2.013  26.987  47.624  1.00  0.00     0.266 C 
HETATM   14  H   UNL     1       0.775  27.130  49.277  1.00  0.00     0.276 HD
HETATM   15  H   UNL     1       2.345  26.747  49.641  1.00  0.00     0.276 HD
ENDBRANCH  11  12
ENDBRANCH  10  11
ENDBRANCH   9  10
ENDBRANCH   1   9
BRANCH   5  16
HETATM   16  N   UNL     1       5.624  25.438  53.465  1.00  0.00    -0.306 N 
HETATM   17  C   UNL     1       6.939  25.427  53.902  1.00  0.00     0.259 C 
HETATM   18  O   UNL     1       7.567  26.468  54.105  1.00  0.00    -0.267 OA
HETATM   19  H   UNL     1       5.147  24.554  53.303  1.00  0.00     0.170 HD
BRANCH  17  20
HETATM   20  C   UNL     1       7.560  24.116  54.112  1.00  0.00     0.063 A 
HETATM   21  C   UNL     1       8.278  23.666  55.206  1.00  0.00     0.091 A 
HETATM   22 CL   UNL     1       8.678  24.499  56.664  1.00  0.00    -0.075 Cl
HETATM   23  S   UNL     1       8.846  22.069  55.060  1.00  0.00    -0.065 SA
HETATM   24  C   UNL     1       8.157  21.927  53.527  1.00  0.00     0.077 A 
HETATM   25 CL   UNL     1       8.318  20.465  52.645  1.00  0.00    -0.076 Cl
HETATM   26  C   UNL     1       7.505  23.062  53.121  1.00  0.00     0.050 A 
ENDBRANCH  17  20
ENDBRANCH   5  16
TORSDOF 6
ENDMDL
MODEL 4
REMARK VINA RESULT:      -7.2      2.978      4.269
REMARK  6 active torsions:
REMARK  status: ('A' for Active; 'I' for Inactive)
REMARK    1  A    between atoms: N_2  and  C_5 
REMARK    2  A    between atoms: C_5  and  C_6 
REMARK    3  A    between atoms: C_6  and  C_7 
REMARK    4  A    between atoms: C_7  and  C_8 
REMARK    5  A    between atoms: C_12  and  N_13 
REMARK       I    between atoms: N_13  and  C_14 
REMARK    6  A    between atoms: C_14  and  C_15 
ROOT
HETATM    1  C   UNL     1       5.005  28.992  55.628  1.00  0.00     0.079 A 
HETATM    2  N   UNL     1       4.260  28.557  54.596  1.00  0.00    -0.176 NA
HETATM    3  N   UNL     1       4.668  27.271  54.441  1.00  0.00    -0.261 N 
HETATM    4  H   UNL     1       4.238  26.674  53.735  1.00  0.00     0.191 HD
HETATM    5  C   UNL     1       5.686  26.906  55.288  1.00  0.00     0.147 A 
HETATM    6  C   UNL     1       5.915  28.006  56.082  1.00  0.00     0.116 A 
HETATM    7  C   UNL     1       6.872  28.120  57.131  1.00  0.00     0.105 C 
HETATM    8  N   UNL     1       7.659  28.231  57.975  1.00  0.00    -0.191 NA
ENDROOT
BRANCH   1   9
HETATM    9  C   UNL     1       4.794  30.380  56.138  1.00  0.00     0.064 C 
BRANCH   9  10
HETATM   10  C   UNL     1       3.976  30.455  57.432  1.00  0.00     0.033 C 
BRANCH  10  11
HETATM   11  C   UNL     1       4.548  31.291  58.580  1.00  0.00     0.232 C 
BRANCH  11  12
HETATM   12  N   UNL     1       6.022  31.124  58.707  1.00  0.00    -0.079 N 
HETATM   13  C   UNL     1       6.668  32.038  59.680  1.00  0.00     0.266 C 
HETATM   14  H   UNL     1       6.490  31.199  57.797  1.00  0.00     0.276 HD
HETATM   15  H   UNL     1       6.180  30.145  59.036  1.00  0.00     0.276 HD
ENDBRANCH  11  12
ENDBRANCH  10  11
ENDBRANCH   9  10
ENDBRANCH   1   9
BRANCH   5  16
HETATM   16  N   UNL     1       6.291  25.658  55.273  1.00  0.00    -0.306 N 
HETATM   17  C   UNL     1       7.219  25.301  54.308  1.00  0.00     0.259 C 
HETATM   18  O   UNL     1       7.544  26.069  53.401  1.00  0.00    -0.267 OA
HETATM   19  H   UNL     1       6.048  24.988  55.999  1.00  0.00     0.170 HD
BRANCH  17  20
HETATM   20  C   UNL     1       7.803  23.960  54.409  1.00  0.00     0.063 A 
HETATM   21  C   UNL     1       8.552  23.419  55.439  1.00  0.00     0.091 A 
HETATM   22 CL   UNL     1       9.041  24.145  56.927  1.00  0.00    -0.075 Cl
HETATM   23  S   UNL     1       9.057  21.818  55.170  1.00  0.00    -0.065 SA
HETATM   24  C   UNL     1       8.299  21.795  53.663  1.00  0.00     0.077 A 
HETATM   25 CL   UNL     1       8.372  20.388  52.686  1.00  0.00    -0.076 Cl
HETATM   26  C   UNL     1       7.670  22.973  53.358  1.00  0.00     0.050 A 
ENDBRANCH  17  20
ENDBRANCH   5  16
TORSDOF 6
ENDMDL
MODEL 5
REMARK VINA RESULT:      -7.1      4.315      8.049
REMARK  6 active torsions:
REMARK  status: ('A' for Active; 'I' for Inactive)
REMARK    1  A    between atoms: N_2  and  C_5 
REMARK    2  A    between atoms: C_5  and  C_6 
REMARK    3  A    between atoms: C_6  and  C_7 
REMARK    4  A    between atoms: C_7  and  C_8 
REMARK    5  A    between atoms: C_12  and  N_13 
REMARK       I    between atoms: N_13  and  C_14 
REMARK    6  A    between atoms: C_14  and  C_15 
ROOT
HETATM    1  C   UNL     1       8.070  23.810  54.287  1.00  0.00     0.079 A 
HETATM    2  N   UNL     1       8.464  23.576  55.553  1.00  0.00    -0.176 NA
HETATM    3  N   UNL     1       8.015  24.670  56.223  1.00  0.00    -0.261 N 
HETATM    4  H   UNL     1       8.147  24.748  57.231  1.00  0.00     0.191 HD
HETATM    5  C   UNL     1       7.418  25.608  55.416  1.00  0.00     0.147 A 
HETATM    6  C   UNL     1       7.429  25.065  54.151  1.00  0.00     0.116 A 
HETATM    7  C   UNL     1       6.908  25.654  52.963  1.00  0.00     0.105 C 
HETATM    8  N   UNL     1       6.505  26.130  51.986  1.00  0.00    -0.191 NA
ENDROOT
BRANCH   1   9
HETATM    9  C   UNL     1       8.343  22.777  53.243  1.00  0.00     0.064 C 
BRANCH   9  10
HETATM   10  C   UNL     1       7.788  21.387  53.576  1.00  0.00     0.033 C 
BRANCH  10  11
HETATM   11  C   UNL     1       8.790  20.234  53.668  1.00  0.00     0.232 C 
BRANCH  11  12
HETATM   12  N   UNL     1       9.048  19.833  55.078  1.00  0.00    -0.079 N 
HETATM   13  C   UNL     1       7.962  20.174  56.029  1.00  0.00     0.266 C 
HETATM   14  H   UNL     1       9.939  20.210  55.420  1.00  0.00     0.276 HD
HETATM   15  H   UNL     1       9.154  18.794  55.075  1.00  0.00     0.276 HD
ENDBRANCH  11  12
ENDBRANCH  10  11
ENDBRANCH   9  10
ENDBRANCH   1   9
BRANCH   5  16
HETATM   16  N   UNL     1       6.930  26.822  55.877  1.00  0.00    -0.306 N 
HETATM   17  C   UNL     1       7.427  27.429  57.019  1.00  0.00     0.259 C 
HETATM   18  O   UNL     1       8.317  26.912  57.697  1.00  0.00    -0.267 OA
HETATM   19  H   UNL     1       6.190  27.282  55.352  1.00  0.00     0.170 HD
BRANCH  17  20
HETATM   20  C   UNL     1       6.843  28.720  57.395  1.00  0.00     0.063 A 
HETATM   21  C   UNL     1       7.477  29.838  57.905  1.00  0.00     0.091 A 
HETATM   22 CL   UNL     1       9.149  30.072  58.268  1.00  0.00    -0.075 Cl
HETATM   23  S   UNL     1       6.438  31.148  58.222  1.00  0.00    -0.065 SA
HETATM   24  C   UNL     1       5.104  30.261  57.695  1.00  0.00     0.077 A 
HETATM   25 CL   UNL     1       3.541  30.967  57.717  1.00  0.00    -0.076 Cl
HETATM   26  C   UNL     1       5.426  28.995  57.282  1.00  0.00     0.050 A 
ENDBRANCH  17  20
ENDBRANCH   5  16
TORSDOF 6
ENDMDL
MODEL 6
REMARK VINA RESULT:      -7.0      3.690      5.359
REMARK  6 active torsions:
REMARK  status: ('A' for Active; 'I' for Inactive)
REMARK    1  A    between atoms: N_2  and  C_5 
REMARK    2  A    between atoms: C_5  and  C_6 
REMARK    3  A    between atoms: C_6  and  C_7 
REMARK    4  A    between atoms: C_7  and  C_8 
REMARK    5  A    between atoms: C_12  and  N_13 
REMARK       I    between atoms: N_13  and  C_14 
REMARK    6  A    between atoms: C_14  and  C_15 
ROOT
HETATM    1  C   UNL     1       5.005  28.865  55.946  1.00  0.00     0.079 A 
HETATM    2  N   UNL     1       4.216  28.425  54.948  1.00  0.00    -0.176 NA
HETATM    3  N   UNL     1       4.651  27.154  54.748  1.00  0.00    -0.261 N 
HETATM    4  H   UNL     1       4.198  26.556  54.056  1.00  0.00     0.191 HD
HETATM    5  C   UNL     1       5.723  26.804  55.532  1.00  0.00     0.147 A 
HETATM    6  C   UNL     1       5.965  27.898  56.332  1.00  0.00     0.116 A 
HETATM    7  C   UNL     1       6.975  28.023  57.329  1.00  0.00     0.105 C 
HETATM    8  N   UNL     1       7.804  28.143  58.131  1.00  0.00    -0.191 NA
ENDROOT
BRANCH   1   9
HETATM    9  C   UNL     1       4.784  30.238  56.491  1.00  0.00     0.064 C 
BRANCH   9  10
HETATM   10  C   UNL     1       3.708  31.041  55.751  1.00  0.00     0.033 C 
BRANCH  10  11
HETATM   11  C   UNL     1       4.175  32.003  54.656  1.00  0.00     0.232 C 
BRANCH  11  12
HETATM   12  N   UNL     1       4.526  31.286  53.400  1.00  0.00    -0.079 N 
HETATM   13  C   UNL     1       3.384  31.042  52.484  1.00  0.00     0.266 C 
HETATM   14  H   UNL     1       5.010  30.402  53.592  1.00  0.00     0.276 HD
HETATM   15  H   UNL     1       5.213  31.891  52.897  1.00  0.00     0.276 HD
ENDBRANCH  11  12
ENDBRANCH  10  11
ENDBRANCH   9  10
ENDBRANCH   1   9
BRANCH   5  16
HETATM   16  N   UNL     1       6.360  25.575  55.463  1.00  0.00    -0.306 N 
HETATM   17  C   UNL     1       7.138  25.209  54.376  1.00  0.00     0.259 C 
HETATM   18  O   UNL     1       7.291  25.952  53.405  1.00  0.00    -0.267 OA
HETATM   19  H   UNL     1       6.257  24.926  56.239  1.00  0.00     0.170 HD
BRANCH  17  20
HETATM   20  C   UNL     1       7.776  23.890  54.427  1.00  0.00     0.063 A 
HETATM   21  C   UNL     1       8.597  23.365  55.409  1.00  0.00     0.091 A 
HETATM   22 CL   UNL     1       9.136  24.089  56.880  1.00  0.00    -0.075 Cl
HETATM   23  S   UNL     1       9.147  21.787  55.090  1.00  0.00    -0.065 SA
HETATM   24  C   UNL     1       8.313  21.755  53.624  1.00  0.00     0.077 A 
HETATM   25 CL   UNL     1       8.387  20.364  52.624  1.00  0.00    -0.076 Cl
HETATM   26  C   UNL     1       7.625  22.913  53.370  1.00  0.00     0.050 A 
ENDBRANCH  17  20
ENDBRANCH   5  16
TORSDOF 6
ENDMDL
MODEL 7
REMARK VINA RESULT:      -7.0      6.347      8.696
REMARK  6 active torsions:
REMARK  status: ('A' for Active; 'I' for Inactive)
REMARK    1  A    between atoms: N_2  and  C_5 
REMARK    2  A    between atoms: C_5  and  C_6 
REMARK    3  A    between atoms: C_6  and  C_7 
REMARK    4  A    between atoms: C_7  and  C_8 
REMARK    5  A    between atoms: C_12  and  N_13 
REMARK       I    between atoms: N_13  and  C_14 
REMARK    6  A    between atoms: C_14  and  C_15 
ROOT
HETATM    1  C   UNL     1       4.524  28.218  50.654  1.00  0.00     0.079 A 
HETATM    2  N   UNL     1       4.934  27.578  49.543  1.00  0.00    -0.176 NA
HETATM    3  N   UNL     1       5.370  26.382  50.019  1.00  0.00    -0.261 N 
HETATM    4  H   UNL     1       5.713  25.666  49.379  1.00  0.00     0.191 HD
HETATM    5  C   UNL     1       5.314  26.276  51.387  1.00  0.00     0.147 A 
HETATM    6  C   UNL     1       4.753  27.454  51.824  1.00  0.00     0.116 A 
HETATM    7  C   UNL     1       4.473  27.820  53.172  1.00  0.00     0.105 C 
HETATM    8  N   UNL     1       4.257  28.137  54.266  1.00  0.00    -0.191 NA
ENDROOT
BRANCH   1   9
HETATM    9  C   UNL     1       3.915  29.575  50.523  1.00  0.00     0.064 C 
BRANCH   9  10
HETATM   10  C   UNL     1       2.867  29.688  49.410  1.00  0.00     0.033 C 
BRANCH  10  11
HETATM   11  C   UNL     1       1.519  29.000  49.640  1.00  0.00     0.232 C 
BRANCH  11  12
HETATM   12  N   UNL     1       1.531  27.587  49.174  1.00  0.00    -0.079 N 
HETATM   13  C   UNL     1       1.140  27.397  47.755  1.00  0.00     0.266 C 
HETATM   14  H   UNL     1       0.955  26.987  49.775  1.00  0.00     0.276 HD
HETATM   15  H   UNL     1       2.514  27.249  49.282  1.00  0.00     0.276 HD
ENDBRANCH  11  12
ENDBRANCH  10  11
ENDBRANCH   9  10
ENDBRANCH   1   9
BRANCH   5  16
HETATM   16  N   UNL     1       5.752  25.165  52.092  1.00  0.00    -0.306 N 
HETATM   17  C   UNL     1       6.956  25.155  52.776  1.00  0.00     0.259 C 
HETATM   18  O   UNL     1       7.712  26.128  52.779  1.00  0.00    -0.267 OA
HETATM   19  H   UNL     1       5.163  24.335  52.111  1.00  0.00     0.170 HD
BRANCH  17  20
HETATM   20  C   UNL     1       7.302  23.928  53.500  1.00  0.00     0.063 A 
HETATM   21  C   UNL     1       7.176  23.657  54.850  1.00  0.00     0.091 A 
HETATM   22 CL   UNL     1       6.582  24.673  56.114  1.00  0.00    -0.075 Cl
HETATM   23  S   UNL     1       7.700  22.104  55.305  1.00  0.00    -0.065 SA
HETATM   24  C   UNL     1       8.120  21.742  53.711  1.00  0.00     0.077 A 
HETATM   25 CL   UNL     1       8.788  20.210  53.326  1.00  0.00    -0.076 Cl
HETATM   26  C   UNL     1       7.872  22.771  52.841  1.00  0.00     0.050 A 
ENDBRANCH  17  20
ENDBRANCH   5  16
TORSDOF 6
ENDMDL
MODEL 8
REMARK VINA RESULT:      -7.0      4.127      8.059
REMARK  6 active torsions:
REMARK  status: ('A' for Active; 'I' for Inactive)
REMARK    1  A    between atoms: N_2  and  C_5 
REMARK    2  A    between atoms: C_5  and  C_6 
REMARK    3  A    between atoms: C_6  and  C_7 
REMARK    4  A    between atoms: C_7  and  C_8 
REMARK    5  A    between atoms: C_12  and  N_13 
REMARK       I    between atoms: N_13  and  C_14 
REMARK    6  A    between atoms: C_14  and  C_15 
ROOT
HETATM    1  C   UNL     1       7.325  24.570  55.181  1.00  0.00     0.079 A 
HETATM    2  N   UNL     1       8.235  24.263  56.124  1.00  0.00    -0.176 NA
HETATM    3  N   UNL     1       8.151  25.310  56.986  1.00  0.00    -0.261 N 
HETATM    4  H   UNL     1       8.718  25.327  57.834  1.00  0.00     0.191 HD
HETATM    5  C   UNL     1       7.276  26.290  56.585  1.00  0.00     0.147 A 
HETATM    6  C   UNL     1       6.714  25.826  55.418  1.00  0.00     0.116 A 
HETATM    7  C   UNL     1       5.731  26.481  54.621  1.00  0.00     0.105 C 
HETATM    8  N   UNL     1       4.946  27.012  53.955  1.00  0.00    -0.191 NA
ENDROOT
BRANCH   1   9
HETATM    9  C   UNL     1       7.085  23.605  54.066  1.00  0.00     0.064 C 
BRANCH   9  10
HETATM   10  C   UNL     1       8.355  22.928  53.540  1.00  0.00     0.033 C 
BRANCH  10  11
HETATM   11  C   UNL     1       8.581  21.462  53.920  1.00  0.00     0.232 C 
BRANCH  11  12
HETATM   12  N   UNL     1       9.032  21.318  55.331  1.00  0.00    -0.079 N 
HETATM   13  C   UNL     1       8.196  20.417  56.161  1.00  0.00     0.266 C 
HETATM   14  H   UNL     1       9.124  22.230  55.793  1.00  0.00     0.276 HD
HETATM   15  H   UNL     1       9.995  20.913  55.292  1.00  0.00     0.276 HD
ENDBRANCH  11  12
ENDBRANCH  10  11
ENDBRANCH   9  10
ENDBRANCH   1   9
BRANCH   5  16
HETATM   16  N   UNL     1       7.067  27.469  57.285  1.00  0.00    -0.306 N 
HETATM   17  C   UNL     1       8.072  28.405  57.468  1.00  0.00     0.259 C 
HETATM   18  O   UNL     1       9.212  28.229  57.034  1.00  0.00    -0.267 OA
HETATM   19  H   UNL     1       6.142  27.653  57.668  1.00  0.00     0.170 HD
BRANCH  17  20
HETATM   20  C   UNL     1       7.724  29.621  58.209  1.00  0.00     0.063 A 
HETATM   21  C   UNL     1       6.692  30.510  57.972  1.00  0.00     0.091 A 
HETATM   22 CL   UNL     1       5.491  30.480  56.732  1.00  0.00    -0.075 Cl
HETATM   23  S   UNL     1       6.628  31.814  59.063  1.00  0.00    -0.065 SA
HETATM   24  C   UNL     1       7.984  31.238  59.885  1.00  0.00     0.077 A 
HETATM   25 CL   UNL     1       8.596  32.095  61.238  1.00  0.00    -0.076 Cl
HETATM   26  C   UNL     1       8.484  30.078  59.353  1.00  0.00     0.050 A 
ENDBRANCH  17  20
ENDBRANCH   5  16
TORSDOF 6
ENDMDL
MODEL 9
REMARK VINA RESULT:      -6.9      5.944      8.894
REMARK  6 active torsions:
REMARK  status: ('A' for Active; 'I' for Inactive)
REMARK    1  A    between atoms: N_2  and  C_5 
REMARK    2  A    between atoms: C_5  and  C_6 
REMARK    3  A    between atoms: C_6  and  C_7 
REMARK    4  A    between atoms: C_7  and  C_8 
REMARK    5  A    between atoms: C_12  and  N_13 
REMARK       I    between atoms: N_13  and  C_14 
REMARK    6  A    between atoms: C_14  and  C_15 
ROOT
HETATM    1  C   UNL     1       4.590  27.908  50.552  1.00  0.00     0.079 A 
HETATM    2  N   UNL     1       4.900  26.872  49.751  1.00  0.00    -0.176 NA
HETATM    3  N   UNL     1       5.430  25.964  50.612  1.00  0.00    -0.261 N 
HETATM    4  H   UNL     1       5.728  25.048  50.278  1.00  0.00     0.191 HD
HETATM    5  C   UNL     1       5.527  26.417  51.906  1.00  0.00     0.147 A 
HETATM    6  C   UNL     1       4.973  27.678  51.896  1.00  0.00     0.116 A 
HETATM    7  C   UNL     1       4.828  28.557  53.007  1.00  0.00     0.105 C 
HETATM    8  N   UNL     1       4.720  29.288  53.900  1.00  0.00    -0.191 NA
ENDROOT
BRANCH   1   9
HETATM    9  C   UNL     1       3.920  29.105  49.960  1.00  0.00     0.064 C 
BRANCH   9  10
HETATM   10  C   UNL     1       3.153  28.817  48.664  1.00  0.00     0.033 C 
BRANCH  10  11
HETATM   11  C   UNL     1       1.782  28.149  48.791  1.00  0.00     0.232 C 
BRANCH  11  12
HETATM   12  N   UNL     1       1.829  26.709  48.418  1.00  0.00    -0.079 N 
HETATM   13  C   UNL     1       2.381  26.434  47.069  1.00  0.00     0.266 C 
HETATM   14  H   UNL     1       0.909  26.264  48.515  1.00  0.00     0.276 HD
HETATM   15  H   UNL     1       2.451  26.244  49.118  1.00  0.00     0.276 HD
ENDBRANCH  11  12
ENDBRANCH  10  11
ENDBRANCH   9  10
ENDBRANCH   1   9
BRANCH   5  16
HETATM   16  N   UNL     1       6.080  25.679  52.941  1.00  0.00    -0.306 N 
HETATM   17  C   UNL     1       7.242  24.941  52.780  1.00  0.00     0.259 C 
HETATM   18  O   UNL     1       7.836  24.889  51.702  1.00  0.00    -0.267 OA
HETATM   19  H   UNL     1       5.619  25.687  53.848  1.00  0.00     0.170 HD
BRANCH  17  20
HETATM   20  C   UNL     1       7.739  24.217  53.954  1.00  0.00     0.063 A 
HETATM   21  C   UNL     1       8.025  22.870  54.080  1.00  0.00     0.091 A 
HETATM   22 CL   UNL     1       7.884  21.612  52.906  1.00  0.00    -0.075 Cl
HETATM   23  S   UNL     1       8.579  22.414  55.622  1.00  0.00    -0.065 SA
HETATM   24  C   UNL     1       8.449  24.002  56.176  1.00  0.00     0.077 A 
HETATM   25 CL   UNL     1       8.864  24.383  57.796  1.00  0.00    -0.076 Cl
HETATM   26  C   UNL     1       7.996  24.871  55.219  1.00  0.00     0.050 A 
ENDBRANCH  17  20
ENDBRANCH   5  16
TORSDOF 6
ENDMDL
MODEL 10
REMARK VINA RESULT:      -6.9      6.068      7.227
REMARK  6 active torsions:
REMARK  status: ('A' for Active; 'I' for Inactive)
REMARK    1  A    between atoms: N_2  and  C_5 
REMARK    2  A    between atoms: C_5  and  C_6 
REMARK    3  A    between atoms: C_6  and  C_7 
REMARK    4  A    between atoms: C_7  and  C_8 
REMARK    5  A    between atoms: C_12  and  N_13 
REMARK       I    between atoms: N_13  and  C_14 
REMARK    6  A    between atoms: C_14  and  C_15 
ROOT
HETATM    1  C   UNL     1       3.999  28.250  53.090  1.00  0.00     0.079 A 
HETATM    2  N   UNL     1       3.971  28.273  54.435  1.00  0.00    -0.176 NA
HETATM    3  N   UNL     1       4.692  27.174  54.778  1.00  0.00    -0.261 N 
HETATM    4  H   UNL     1       4.867  26.956  55.758  1.00  0.00     0.191 HD
HETATM    5  C   UNL     1       5.110  26.428  53.703  1.00  0.00     0.147 A 
HETATM    6  C   UNL     1       4.683  27.115  52.590  1.00  0.00     0.116 A 
HETATM    7  C   UNL     1       4.886  26.750  51.228  1.00  0.00     0.105 C 
HETATM    8  N   UNL     1       5.029  26.454  50.116  1.00  0.00    -0.191 NA
ENDROOT
BRANCH   1   9
HETATM    9  C   UNL     1       3.342  29.359  52.334  1.00  0.00     0.064 C 
BRANCH   9  10
HETATM   10  C   UNL     1       4.240  30.580  52.106  1.00  0.00     0.033 C 
BRANCH  10  11
HETATM   11  C   UNL     1       4.799  30.790  50.697  1.00  0.00     0.232 C 
BRANCH  11  12
HETATM   12  N   UNL     1       5.746  31.937  50.640  1.00  0.00    -0.079 N 
HETATM   13  C   UNL     1       6.256  32.255  49.284  1.00  0.00     0.266 C 
HETATM   14  H   UNL     1       6.533  31.809  51.286  1.00  0.00     0.276 HD
HETATM   15  H   UNL     1       5.219  32.771  50.986  1.00  0.00     0.276 HD
ENDBRANCH  11  12
ENDBRANCH  10  11
ENDBRANCH   9  10
ENDBRANCH   1   9
BRANCH   5  16
HETATM   16  N   UNL     1       5.818  25.241  53.818  1.00  0.00    -0.306 N 
HETATM   17  C   UNL     1       7.102  25.197  54.337  1.00  0.00     0.259 C 
HETATM   18  O   UNL     1       7.690  26.214  54.707  1.00  0.00    -0.267 OA
HETATM   19  H   UNL     1       5.375  24.376  53.518  1.00  0.00     0.170 HD
BRANCH  17  20
HETATM   20  C   UNL     1       7.740  23.880  54.425  1.00  0.00     0.063 A 
HETATM   21  C   UNL     1       8.528  23.369  55.441  1.00  0.00     0.091 A 
HETATM   22 CL   UNL     1       9.017  24.113  56.920  1.00  0.00    -0.075 Cl
HETATM   23  S   UNL     1       9.092  21.788  55.160  1.00  0.00    -0.065 SA
HETATM   24  C   UNL     1       8.307  21.736  53.668  1.00  0.00     0.077 A 
HETATM   25 CL   UNL     1       8.418  20.333  52.688  1.00  0.00    -0.076 Cl
HETATM   26  C   UNL     1       7.627  22.889  53.376  1.00  0.00     0.050 A 
ENDBRANCH  17  20
ENDBRANCH   5  16
TORSDOF 6
ENDMDL
