MODEL 1
REMARK VINA RESULT:      -7.4      0.000      0.000
REMARK  1 active torsions:
REMARK  status: ('A' for Active; 'I' for Inactive)
REMARK    1  A    between atoms: C_8  and  C_9 
ROOT
HETATM    1  C   UNL     1       7.315  33.737  64.788  1.00  0.00     0.073 C 
HETATM    2  C   UNL     1       6.791  33.007  63.601  1.00  0.00     0.062 A 
HETATM    3  N   UNL     1       7.537  32.042  63.060  1.00  0.00    -0.178 NA
HETATM    4  N   UNL     1       6.763  31.541  62.100  1.00  0.00    -0.262 N 
HETATM    5  H   UNL     1       7.118  30.756  61.567  1.00  0.00     0.191 HD
HETATM    6  C   UNL     1       5.561  32.182  61.945  1.00  0.00     0.134 A 
HETATM    7  C   UNL     1       5.534  33.177  62.912  1.00  0.00     0.032 A 
HETATM    8  C   UNL     1       4.449  34.120  63.348  1.00  0.00     0.121 C 
HETATM    9  S   UNL     1       2.821  33.983  62.572  1.00  0.00    -0.140 SA
HETATM   10  C   UNL     1       3.168  33.712  60.813  1.00  0.00     0.136 C 
HETATM   11  C   UNL     1       4.086  34.690  60.101  1.00  0.00     0.031 C 
HETATM   12  C   UNL     1       3.544  32.271  60.522  1.00  0.00     0.236 C 
HETATM   13  O   UNL     1       2.863  31.591  59.745  1.00  0.00    -0.272 OA
HETATM   14  N   UNL     1       4.693  31.714  60.988  1.00  0.00    -0.311 N 
HETATM   15  H   UNL     1       4.868  30.806  60.567  1.00  0.00     0.170 HD
ENDROOT
BRANCH   8  16
HETATM   16  C   UNL     1       4.966  35.558  63.424  1.00  0.00    -0.018 A 
HETATM   17  C   UNL     1       4.710  36.357  64.562  1.00  0.00     0.041 A 
HETATM   18 CL   UNL     1       3.842  35.769  65.941  1.00  0.00    -0.084 Cl
HETATM   19  C   UNL     1       5.171  37.679  64.645  1.00  0.00     0.024 A 
HETATM   20  C   UNL     1       5.896  38.238  63.599  1.00  0.00     0.002 A 
HETATM   21  C   UNL     1       6.166  37.477  62.469  1.00  0.00     0.001 A 
HETATM   22  C   UNL     1       5.708  36.158  62.385  1.00  0.00     0.010 A 
ENDBRANCH   8  16
TORSDOF 1
ENDMDL
MODEL 2
REMARK VINA RESULT:      -6.9     10.128     11.953
REMARK  1 active torsions:
REMARK  status: ('A' for Active; 'I' for Inactive)
REMARK    1  A    between atoms: C_8  and  C_9 
ROOT
HETATM    1  C   UNL     1       7.998  24.401  54.941  1.00  0.00     0.073 C 
HETATM    2  C   UNL     1       7.574  24.789  53.568  1.00  0.00     0.062 A 
HETATM    3  N   UNL     1       8.206  24.249  52.524  1.00  0.00    -0.178 NA
HETATM    4  N   UNL     1       7.542  24.722  51.471  1.00  0.00    -0.262 N 
HETATM    5  H   UNL     1       7.831  24.411  50.551  1.00  0.00     0.191 HD
HETATM    6  C   UNL     1       6.539  25.604  51.779  1.00  0.00     0.134 A 
HETATM    7  C   UNL     1       6.525  25.696  53.164  1.00  0.00     0.032 A 
HETATM    8  C   UNL     1       5.582  26.378  54.113  1.00  0.00     0.121 C 
HETATM    9  S   UNL     1       4.133  27.222  53.434  1.00  0.00    -0.140 SA
HETATM   10  C   UNL     1       4.744  28.072  51.954  1.00  0.00     0.136 C 
HETATM   11  C   UNL     1       5.951  28.983  52.093  1.00  0.00     0.031 C 
HETATM   12  C   UNL     1       4.880  27.132  50.772  1.00  0.00     0.236 C 
HETATM   13  O   UNL     1       4.237  27.333  49.734  1.00  0.00    -0.272 OA
HETATM   14  N   UNL     1       5.791  26.123  50.749  1.00  0.00    -0.311 N 
HETATM   15  H   UNL     1       5.861  25.701  49.828  1.00  0.00     0.170 HD
ENDROOT
BRANCH   8  16
HETATM   16  C   UNL     1       6.346  27.216  55.141  1.00  0.00    -0.018 A 
HETATM   17  C   UNL     1       6.087  27.071  56.523  1.00  0.00     0.041 A 
HETATM   18 CL   UNL     1       4.938  25.933  57.146  1.00  0.00    -0.084 Cl
HETATM   19  C   UNL     1       6.773  27.834  57.479  1.00  0.00     0.024 A 
HETATM   20  C   UNL     1       7.731  28.761  57.083  1.00  0.00     0.002 A 
HETATM   21  C   UNL     1       8.008  28.924  55.732  1.00  0.00     0.001 A 
HETATM   22  C   UNL     1       7.326  28.163  54.778  1.00  0.00     0.010 A 
ENDBRANCH   8  16
TORSDOF 1
ENDMDL
MODEL 3
REMARK VINA RESULT:      -6.5      2.987      4.112
REMARK  1 active torsions:
REMARK  status: ('A' for Active; 'I' for Inactive)
REMARK    1  A    between atoms: C_8  and  C_9 
ROOT
HETATM    1  C   UNL     1       6.123  38.027  63.820  1.00  0.00     0.073 C 
HETATM    2  C   UNL     1       5.103  37.614  62.817  1.00  0.00     0.062 A 
HETATM    3  N   UNL     1       4.514  38.554  62.076  1.00  0.00    -0.178 NA
HETATM    4  N   UNL     1       3.743  37.862  61.239  1.00  0.00    -0.262 N 
HETATM    5  H   UNL     1       3.216  38.379  60.545  1.00  0.00     0.191 HD
HETATM    6  C   UNL     1       3.752  36.507  61.444  1.00  0.00     0.134 A 
HETATM    7  C   UNL     1       4.632  36.287  62.494  1.00  0.00     0.032 A 
HETATM    8  C   UNL     1       5.179  35.024  63.095  1.00  0.00     0.121 C 
HETATM    9  S   UNL     1       4.710  33.442  62.356  1.00  0.00    -0.140 SA
HETATM   10  C   UNL     1       2.943  33.609  61.986  1.00  0.00     0.136 C 
HETATM   11  C   UNL     1       2.011  34.042  63.105  1.00  0.00     0.031 C 
HETATM   12  C   UNL     1       2.699  34.396  60.712  1.00  0.00     0.236 C 
HETATM   13  O   UNL     1       2.105  33.876  59.759  1.00  0.00    -0.272 OA
HETATM   14  N   UNL     1       2.998  35.718  60.609  1.00  0.00    -0.311 N 
HETATM   15  H   UNL     1       2.622  36.122  59.757  1.00  0.00     0.170 HD
ENDROOT
BRANCH   8  16
HETATM   16  C   UNL     1       5.056  35.041  64.621  1.00  0.00    -0.018 A 
HETATM   17  C   UNL     1       6.032  34.414  65.429  1.00  0.00     0.041 A 
HETATM   18 CL   UNL     1       7.429  33.629  64.770  1.00  0.00    -0.084 Cl
HETATM   19  C   UNL     1       5.932  34.415  66.828  1.00  0.00     0.024 A 
HETATM   20  C   UNL     1       4.859  35.037  67.456  1.00  0.00     0.002 A 
HETATM   21  C   UNL     1       3.886  35.663  66.688  1.00  0.00     0.001 A 
HETATM   22  C   UNL     1       3.984  35.665  65.293  1.00  0.00     0.010 A 
ENDBRANCH   8  16
TORSDOF 1
ENDMDL
MODEL 4
REMARK VINA RESULT:      -6.4      9.669     11.776
REMARK  1 active torsions:
REMARK  status: ('A' for Active; 'I' for Inactive)
REMARK    1  A    between atoms: C_8  and  C_9 
ROOT
HETATM    1  C   UNL     1       5.237  29.944  55.691  1.00  0.00     0.073 C 
HETATM    2  C   UNL     1       4.636  29.341  54.470  1.00  0.00     0.062 A 
HETATM    3  N   UNL     1       3.444  29.777  54.058  1.00  0.00    -0.178 NA
HETATM    4  N   UNL     1       3.239  29.117  52.920  1.00  0.00    -0.262 N 
HETATM    5  H   UNL     1       2.392  29.319  52.402  1.00  0.00     0.191 HD
HETATM    6  C   UNL     1       4.220  28.214  52.601  1.00  0.00     0.134 A 
HETATM    7  C   UNL     1       5.170  28.313  53.607  1.00  0.00     0.032 A 
HETATM    8  C   UNL     1       6.531  27.699  53.763  1.00  0.00     0.121 C 
HETATM    9  S   UNL     1       7.172  26.666  52.424  1.00  0.00    -0.140 SA
HETATM   10  C   UNL     1       5.755  25.668  51.891  1.00  0.00     0.136 C 
HETATM   11  C   UNL     1       4.996  24.876  52.942  1.00  0.00     0.031 C 
HETATM   12  C   UNL     1       4.819  26.444  50.985  1.00  0.00     0.236 C 
HETATM   13  O   UNL     1       4.598  26.056  49.831  1.00  0.00    -0.272 OA
HETATM   14  N   UNL     1       4.094  27.505  51.430  1.00  0.00    -0.311 N 
HETATM   15  H   UNL     1       3.403  27.801  50.747  1.00  0.00     0.170 HD
ENDROOT
BRANCH   8  16
HETATM   16  C   UNL     1       6.698  27.069  55.148  1.00  0.00    -0.018 A 
HETATM   17  C   UNL     1       7.694  27.533  56.036  1.00  0.00     0.041 A 
HETATM   18 CL   UNL     1       8.755  28.848  55.647  1.00  0.00    -0.084 Cl
HETATM   19  C   UNL     1       7.864  26.964  57.306  1.00  0.00     0.024 A 
HETATM   20  C   UNL     1       7.049  25.917  57.722  1.00  0.00     0.002 A 
HETATM   21  C   UNL     1       6.059  25.441  56.872  1.00  0.00     0.001 A 
HETATM   22  C   UNL     1       5.888  26.008  55.606  1.00  0.00     0.010 A 
ENDBRANCH   8  16
TORSDOF 1
ENDMDL
MODEL 5
REMARK VINA RESULT:      -6.3      8.562     11.310
REMARK  1 active torsions:
REMARK  status: ('A' for Active; 'I' for Inactive)
REMARK    1  A    between atoms: C_8  and  C_9 
ROOT
HETATM    1  C   UNL     1       4.010  27.556  53.601  1.00  0.00     0.073 C 
HETATM    2  C   UNL     1       4.623  28.669  54.378  1.00  0.00     0.062 A 
HETATM    3  N   UNL     1       4.215  29.917  54.142  1.00  0.00    -0.178 NA
HETATM    4  N   UNL     1       4.875  30.643  55.043  1.00  0.00    -0.262 N 
HETATM    5  H   UNL     1       4.692  31.639  55.073  1.00  0.00     0.191 HD
HETATM    6  C   UNL     1       5.751  29.929  55.818  1.00  0.00     0.134 A 
HETATM    7  C   UNL     1       5.633  28.608  55.408  1.00  0.00     0.032 A 
HETATM    8  C   UNL     1       6.212  27.335  55.954  1.00  0.00     0.121 C 
HETATM    9  S   UNL     1       7.222  27.416  57.452  1.00  0.00    -0.140 SA
HETATM   10  C   UNL     1       8.254  28.891  57.235  1.00  0.00     0.136 C 
HETATM   11  C   UNL     1       9.070  29.018  55.959  1.00  0.00     0.031 C 
HETATM   12  C   UNL     1       7.497  30.168  57.549  1.00  0.00     0.236 C 
HETATM   13  O   UNL     1       7.886  30.920  58.451  1.00  0.00    -0.272 OA
HETATM   14  N   UNL     1       6.458  30.600  56.787  1.00  0.00    -0.311 N 
HETATM   15  H   UNL     1       6.177  31.544  57.036  1.00  0.00     0.170 HD
ENDROOT
BRANCH   8  16
HETATM   16  C   UNL     1       6.844  26.495  54.841  1.00  0.00    -0.018 A 
HETATM   17  C   UNL     1       6.916  25.087  54.953  1.00  0.00     0.041 A 
HETATM   18 CL   UNL     1       6.276  24.223  56.311  1.00  0.00    -0.084 Cl
HETATM   19  C   UNL     1       7.496  24.304  53.945  1.00  0.00     0.024 A 
HETATM   20  C   UNL     1       8.021  24.901  52.804  1.00  0.00     0.002 A 
HETATM   21  C   UNL     1       7.962  26.281  52.665  1.00  0.00     0.001 A 
HETATM   22  C   UNL     1       7.383  27.064  53.668  1.00  0.00     0.010 A 
ENDBRANCH   8  16
TORSDOF 1
ENDMDL
MODEL 6
REMARK VINA RESULT:      -6.3      9.093     11.243
REMARK  1 active torsions:
REMARK  status: ('A' for Active; 'I' for Inactive)
REMARK    1  A    between atoms: C_8  and  C_9 
ROOT
HETATM    1  C   UNL     1       5.824  28.579  52.409  1.00  0.00     0.073 C 
HETATM    2  C   UNL     1       5.863  27.124  52.724  1.00  0.00     0.062 A 
HETATM    3  N   UNL     1       5.392  26.260  51.822  1.00  0.00    -0.178 NA
HETATM    4  N   UNL     1       5.650  25.069  52.358  1.00  0.00    -0.262 N 
HETATM    5  H   UNL     1       5.405  24.245  51.821  1.00  0.00     0.191 HD
HETATM    6  C   UNL     1       6.212  25.115  53.607  1.00  0.00     0.134 A 
HETATM    7  C   UNL     1       6.364  26.462  53.905  1.00  0.00     0.032 A 
HETATM    8  C   UNL     1       7.040  27.165  55.048  1.00  0.00     0.121 C 
HETATM    9  S   UNL     1       7.891  26.168  56.294  1.00  0.00    -0.140 SA
HETATM   10  C   UNL     1       6.792  24.757  56.587  1.00  0.00     0.136 C 
HETATM   11  C   UNL     1       5.340  25.035  56.939  1.00  0.00     0.031 C 
HETATM   12  C   UNL     1       6.918  23.701  55.506  1.00  0.00     0.236 C 
HETATM   13  O   UNL     1       7.275  22.551  55.791  1.00  0.00    -0.272 OA
HETATM   14  N   UNL     1       6.529  23.928  54.222  1.00  0.00    -0.311 N 
HETATM   15  H   UNL     1       6.527  23.074  53.674  1.00  0.00     0.170 HD
ENDROOT
BRANCH   8  16
HETATM   16  C   UNL     1       6.131  28.241  55.648  1.00  0.00    -0.018 A 
HETATM   17  C   UNL     1       6.680  29.416  56.210  1.00  0.00     0.041 A 
HETATM   18 CL   UNL     1       8.383  29.737  56.228  1.00  0.00    -0.084 Cl
HETATM   19  C   UNL     1       5.864  30.409  56.769  1.00  0.00     0.024 A 
HETATM   20  C   UNL     1       4.481  30.257  56.785  1.00  0.00     0.002 A 
HETATM   21  C   UNL     1       3.913  29.114  56.238  1.00  0.00     0.001 A 
HETATM   22  C   UNL     1       4.726  28.123  55.678  1.00  0.00     0.010 A 
ENDBRANCH   8  16
TORSDOF 1
ENDMDL
MODEL 7
REMARK VINA RESULT:      -6.2      3.718      5.527
REMARK  1 active torsions:
REMARK  status: ('A' for Active; 'I' for Inactive)
REMARK    1  A    between atoms: C_8  and  C_9 
ROOT
HETATM    1  C   UNL     1       4.961  37.044  61.011  1.00  0.00     0.073 C 
HETATM    2  C   UNL     1       5.183  37.155  62.479  1.00  0.00     0.062 A 
HETATM    3  N   UNL     1       5.643  38.306  62.973  1.00  0.00    -0.178 NA
HETATM    4  N   UNL     1       5.643  38.109  64.290  1.00  0.00    -0.262 N 
HETATM    5  H   UNL     1       5.928  38.879  64.884  1.00  0.00     0.191 HD
HETATM    6  C   UNL     1       5.263  36.850  64.678  1.00  0.00     0.134 A 
HETATM    7  C   UNL     1       4.958  36.168  63.509  1.00  0.00     0.032 A 
HETATM    8  C   UNL     1       4.355  34.814  63.268  1.00  0.00     0.121 C 
HETATM    9  S   UNL     1       3.846  33.827  64.695  1.00  0.00    -0.140 SA
HETATM   10  C   UNL     1       5.172  34.054  65.911  1.00  0.00     0.136 C 
HETATM   11  C   UNL     1       6.602  33.778  65.477  1.00  0.00     0.031 C 
HETATM   12  C   UNL     1       5.051  35.374  66.648  1.00  0.00     0.236 C 
HETATM   13  O   UNL     1       4.912  35.395  67.877  1.00  0.00    -0.272 OA
HETATM   14  N   UNL     1       5.216  36.571  66.023  1.00  0.00    -0.311 N 
HETATM   15  H   UNL     1       5.266  37.337  66.687  1.00  0.00     0.170 HD
ENDROOT
BRANCH   8  16
HETATM   16  C   UNL     1       5.170  34.022  62.242  1.00  0.00    -0.018 A 
HETATM   17  C   UNL     1       4.539  33.415  61.132  1.00  0.00     0.041 A 
HETATM   18 CL   UNL     1       2.837  33.552  60.835  1.00  0.00    -0.084 Cl
HETATM   19  C   UNL     1       5.269  32.682  60.187  1.00  0.00     0.024 A 
HETATM   20  C   UNL     1       6.645  32.531  60.324  1.00  0.00     0.002 A 
HETATM   21  C   UNL     1       7.294  33.117  61.403  1.00  0.00     0.001 A 
HETATM   22  C   UNL     1       6.567  33.851  62.346  1.00  0.00     0.010 A 
ENDBRANCH   8  16
TORSDOF 1
ENDMDL
MODEL 8
REMARK VINA RESULT:      -5.9     12.297     13.929
REMARK  1 active torsions:
REMARK  status: ('A' for Active; 'I' for Inactive)
REMARK    1  A    between atoms: C_8  and  C_9 
ROOT
HETATM    1  C   UNL     1       5.484  28.761  52.822  1.00  0.00     0.073 C 
HETATM    2  C   UNL     1       5.352  27.801  51.691  1.00  0.00     0.062 A 
HETATM    3  N   UNL     1       6.011  26.642  51.752  1.00  0.00    -0.178 NA
HETATM    4  N   UNL     1       5.617  25.994  50.658  1.00  0.00    -0.262 N 
HETATM    5  H   UNL     1       5.972  25.056  50.510  1.00  0.00     0.191 HD
HETATM    6  C   UNL     1       4.776  26.707  49.845  1.00  0.00     0.134 A 
HETATM    7  C   UNL     1       4.576  27.925  50.479  1.00  0.00     0.032 A 
HETATM    8  C   UNL     1       3.658  29.074  50.175  1.00  0.00     0.121 C 
HETATM    9  S   UNL     1       2.523  28.926  48.775  1.00  0.00    -0.140 SA
HETATM   10  C   UNL     1       3.501  28.143  47.465  1.00  0.00     0.136 C 
HETATM   11  C   UNL     1       4.832  28.771  47.088  1.00  0.00     0.031 C 
HETATM   12  C   UNL     1       3.621  26.644  47.662  1.00  0.00     0.236 C 
HETATM   13  O   UNL     1       3.191  25.863  46.804  1.00  0.00    -0.272 OA
HETATM   14  N   UNL     1       4.306  26.102  48.704  1.00  0.00    -0.311 N 
HETATM   15  H   UNL     1       4.426  25.100  48.593  1.00  0.00     0.170 HD
ENDROOT
BRANCH   8  16
HETATM   16  C   UNL     1       4.413  30.406  50.206  1.00  0.00    -0.018 A 
HETATM   17  C   UNL     1       3.886  31.517  50.903  1.00  0.00     0.041 A 
HETATM   18 CL   UNL     1       2.398  31.446  51.788  1.00  0.00    -0.084 Cl
HETATM   19  C   UNL     1       4.561  32.745  50.938  1.00  0.00     0.024 A 
HETATM   20  C   UNL     1       5.775  32.899  50.276  1.00  0.00     0.002 A 
HETATM   21  C   UNL     1       6.318  31.825  49.584  1.00  0.00     0.001 A 
HETATM   22  C   UNL     1       5.647  30.599  49.551  1.00  0.00     0.010 A 
ENDBRANCH   8  16
TORSDOF 1
ENDMDL
MODEL 9
REMARK VINA RESULT:      -5.7     11.967     14.503
REMARK  1 active torsions:
REMARK  status: ('A' for Active; 'I' for Inactive)
REMARK    1  A    between atoms: C_8  and  C_9 
ROOT
HETATM    1  C   UNL     1       5.014  25.993  50.772  1.00  0.00     0.073 C 
HETATM    2  C   UNL     1       4.868  27.232  51.585  1.00  0.00     0.062 A 
HETATM    3  N   UNL     1       4.928  27.137  52.914  1.00  0.00    -0.178 NA
HETATM    4  N   UNL     1       4.857  28.401  53.327  1.00  0.00    -0.262 N 
HETATM    5  H   UNL     1       4.920  28.579  54.322  1.00  0.00     0.191 HD
HETATM    6  C   UNL     1       4.687  29.319  52.323  1.00  0.00     0.134 A 
HETATM    7  C   UNL     1       4.674  28.592  51.141  1.00  0.00     0.032 A 
HETATM    8  C   UNL     1       4.663  29.020  49.702  1.00  0.00     0.121 C 
HETATM    9  S   UNL     1       4.730  30.788  49.325  1.00  0.00    -0.140 SA
HETATM   10  C   UNL     1       3.626  31.562  50.537  1.00  0.00     0.136 C 
HETATM   11  C   UNL     1       2.206  31.034  50.658  1.00  0.00     0.031 C 
HETATM   12  C   UNL     1       4.287  31.719  51.893  1.00  0.00     0.236 C 
HETATM   13  O   UNL     1       4.432  32.841  52.394  1.00  0.00    -0.272 OA
HETATM   14  N   UNL     1       4.625  30.650  52.662  1.00  0.00    -0.311 N 
HETATM   15  H   UNL     1       4.901  30.932  53.598  1.00  0.00     0.170 HD
ENDROOT
BRANCH   8  16
HETATM   16  C   UNL     1       3.585  28.273  48.912  1.00  0.00    -0.018 A 
HETATM   17  C   UNL     1       3.923  27.527  47.760  1.00  0.00     0.041 A 
HETATM   18 CL   UNL     1       5.552  27.375  47.189  1.00  0.00    -0.084 Cl
HETATM   19  C   UNL     1       2.948  26.841  47.022  1.00  0.00     0.024 A 
HETATM   20  C   UNL     1       1.614  26.882  47.411  1.00  0.00     0.002 A 
HETATM   21  C   UNL     1       1.252  27.605  48.540  1.00  0.00     0.001 A 
HETATM   22  C   UNL     1       2.223  28.288  49.278  1.00  0.00     0.010 A 
ENDBRANCH   8  16
TORSDOF 1
ENDMDL
MODEL 10
REMARK VINA RESULT:      -5.6     13.816     15.762
REMARK  1 active torsions:
REMARK  status: ('A' for Active; 'I' for Inactive)
REMARK    1  A    between atoms: C_8  and  C_9 
ROOT
HETATM    1  C   UNL     1       4.444  26.342  49.432  1.00  0.00     0.073 C 
HETATM    2  C   UNL     1       3.491  26.493  48.298  1.00  0.00     0.062 A 
HETATM    3  N   UNL     1       3.485  25.568  47.337  1.00  0.00    -0.178 NA
HETATM    4  N   UNL     1       2.483  25.940  46.543  1.00  0.00    -0.262 N 
HETATM    5  H   UNL     1       2.267  25.352  45.747  1.00  0.00     0.191 HD
HETATM    6  C   UNL     1       1.872  27.111  46.908  1.00  0.00     0.134 A 
HETATM    7  C   UNL     1       2.513  27.530  48.066  1.00  0.00     0.032 A 
HETATM    8  C   UNL     1       2.224  28.651  49.021  1.00  0.00     0.121 C 
HETATM    9  S   UNL     1       0.760  29.675  48.735  1.00  0.00    -0.140 SA
HETATM   10  C   UNL     1       0.728  29.946  46.943  1.00  0.00     0.136 C 
HETATM   11  C   UNL     1       1.977  30.495  46.275  1.00  0.00     0.031 C 
HETATM   12  C   UNL     1       0.168  28.751  46.195  1.00  0.00     0.236 C 
HETATM   13  O   UNL     1      -0.847  28.868  45.498  1.00  0.00    -0.272 OA
HETATM   14  N   UNL     1       0.813  27.555  46.153  1.00  0.00    -0.311 N 
HETATM   15  H   UNL     1       0.389  26.924  45.480  1.00  0.00     0.170 HD
ENDROOT
BRANCH   8  16
HETATM   16  C   UNL     1       3.486  29.467  49.315  1.00  0.00    -0.018 A 
HETATM   17  C   UNL     1       3.887  29.719  50.646  1.00  0.00     0.041 A 
HETATM   18 CL   UNL     1       3.021  29.107  52.017  1.00  0.00    -0.084 Cl
HETATM   19  C   UNL     1       5.037  30.468  50.933  1.00  0.00     0.024 A 
HETATM   20  C   UNL     1       5.814  30.986  49.902  1.00  0.00     0.002 A 
HETATM   21  C   UNL     1       5.446  30.753  48.584  1.00  0.00     0.001 A 
HETATM   22  C   UNL     1       4.300  30.005  48.296  1.00  0.00     0.010 A 
ENDBRANCH   8  16
TORSDOF 1
ENDMDL
