MODEL 1
REMARK VINA RESULT:     -10.5      0.000      0.000
REMARK  5 active torsions:
REMARK  status: ('A' for Active; 'I' for Inactive)
REMARK    1  A    between atoms: C_8  and  N_9 
REMARK       I    between atoms: N_9  and  C_10 
REMARK    2  A    between atoms: C_10  and  C_11 
REMARK    3  A    between atoms: C_11  and  C_12 
REMARK    4  A    between atoms: C_14  and  N_15 
REMARK       I    between atoms: N_15  and  C_16 
REMARK       I    between atoms: C_16  and  N_17 
REMARK    5  A    between atoms: N_17  and  C_18 
ROOT
HETATM    1  C   UNL     1       8.378  29.321  57.726  1.00  0.00     0.052 A 
HETATM    2  N   UNL     1       8.411  27.934  57.733  1.00  0.00    -0.228 NA
HETATM    3  C   UNL     1       7.245  27.461  57.375  1.00  0.00     0.174 A 
HETATM    4  S   UNL     1       6.041  28.612  57.007  1.00  0.00    -0.062 SA
HETATM    5  C   UNL     1       7.162  29.865  57.354  1.00  0.00     0.081 A 
ENDROOT
BRANCH   1   6
HETATM    6  C   UNL     1       9.605  30.060  58.140  1.00  0.00     0.163 C 
BRANCH   6   7
HETATM    7  C   UNL     1       9.323  31.169  59.142  1.00  0.00     0.227 C 
HETATM    8  N   UNL     1       8.604  30.749  60.251  1.00  0.00    -0.326 N 
HETATM    9  H   UNL     1       8.569  29.737  60.382  1.00  0.00     0.169 HD
HETATM   10  O   UNL     1       9.679  32.321  58.901  1.00  0.00    -0.273 OA
BRANCH   8  11
HETATM   11  C   UNL     1       7.986  31.555  61.242  1.00  0.00     0.042 A 
HETATM   12  C   UNL     1       6.825  32.298  60.913  1.00  0.00    -0.014 A 
HETATM   13  C   UNL     1       6.187  32.170  59.554  1.00  0.00     0.052 C 
HETATM   14  C   UNL     1       6.297  33.190  61.872  1.00  0.00     0.042 A 
HETATM   15 CL   UNL     1       4.932  34.205  61.544  1.00  0.00    -0.084 Cl
HETATM   16  C   UNL     1       6.871  33.307  63.140  1.00  0.00     0.024 A 
HETATM   17  C   UNL     1       7.983  32.546  63.469  1.00  0.00     0.004 A 
HETATM   18  C   UNL     1       8.538  31.682  62.525  1.00  0.00     0.030 A 
ENDBRANCH   8  11
ENDBRANCH   6   7
ENDBRANCH   1   6
BRANCH   3  19
HETATM   19  N   UNL     1       6.851  26.164  57.203  1.00  0.00    -0.287 N 
HETATM   20  C   UNL     1       7.623  25.251  56.515  1.00  0.00     0.326 C 
HETATM   21  N   UNL     1       6.896  24.101  56.239  1.00  0.00    -0.309 N 
HETATM   22  O   UNL     1       8.780  25.443  56.165  1.00  0.00    -0.247 OA
HETATM   23  H   UNL     1       5.999  24.012  56.691  1.00  0.00     0.170 HD
HETATM   24  H   UNL     1       5.958  25.911  57.587  1.00  0.00     0.172 HD
BRANCH  21  25
HETATM   25  C   UNL     1       7.256  23.046  55.373  1.00  0.00     0.036 A 
HETATM   26  C   UNL     1       7.618  21.766  55.805  1.00  0.00     0.032 A 
HETATM   27  C   UNL     1       8.013  20.791  54.883  1.00  0.00     0.044 A 
HETATM   28  C   UNL     1       8.044  21.096  53.530  1.00  0.00     0.116 A 
HETATM   29  F   UNL     1       8.431  20.165  52.648  1.00  0.00    -0.206 F 
HETATM   30  C   UNL     1       7.681  22.357  53.077  1.00  0.00     0.044 A 
HETATM   31  C   UNL     1       7.287  23.332  53.999  1.00  0.00     0.032 A 
ENDBRANCH  21  25
ENDBRANCH   3  19
TORSDOF 5
ENDMDL
MODEL 2
REMARK VINA RESULT:     -10.4      5.607      9.053
REMARK  5 active torsions:
REMARK  status: ('A' for Active; 'I' for Inactive)
REMARK    1  A    between atoms: C_8  and  N_9 
REMARK       I    between atoms: N_9  and  C_10 
REMARK    2  A    between atoms: C_10  and  C_11 
REMARK    3  A    between atoms: C_11  and  C_12 
REMARK    4  A    between atoms: C_14  and  N_15 
REMARK       I    between atoms: N_15  and  C_16 
REMARK       I    between atoms: C_16  and  N_17 
REMARK    5  A    between atoms: N_17  and  C_18 
ROOT
HETATM    1  C   UNL     1       6.636  26.681  56.952  1.00  0.00     0.052 A 
HETATM    2  N   UNL     1       6.016  26.126  55.841  1.00  0.00    -0.228 NA
HETATM    3  C   UNL     1       5.364  27.054  55.187  1.00  0.00     0.174 A 
HETATM    4  S   UNL     1       5.440  28.631  55.834  1.00  0.00    -0.062 SA
HETATM    5  C   UNL     1       6.430  28.040  57.105  1.00  0.00     0.081 A 
ENDROOT
BRANCH   1   6
HETATM    6  C   UNL     1       7.407  25.780  57.854  1.00  0.00     0.163 C 
BRANCH   6   7
HETATM    7  C   UNL     1       8.225  24.742  57.102  1.00  0.00     0.227 C 
HETATM    8  N   UNL     1       7.465  23.717  56.559  1.00  0.00    -0.326 N 
HETATM    9  H   UNL     1       6.463  23.906  56.513  1.00  0.00     0.169 HD
HETATM   10  O   UNL     1       9.452  24.834  57.066  1.00  0.00    -0.273 OA
BRANCH   8  11
HETATM   11  C   UNL     1       7.924  22.493  56.008  1.00  0.00     0.042 A 
HETATM   12  C   UNL     1       7.844  22.283  54.609  1.00  0.00    -0.014 A 
HETATM   13  C   UNL     1       7.362  23.378  53.691  1.00  0.00     0.052 C 
HETATM   14  C   UNL     1       8.187  21.015  54.093  1.00  0.00     0.042 A 
HETATM   15 CL   UNL     1       8.045  20.627  52.411  1.00  0.00    -0.084 Cl
HETATM   16  C   UNL     1       8.647  19.997  54.931  1.00  0.00     0.024 A 
HETATM   17  C   UNL     1       8.763  20.223  56.295  1.00  0.00     0.004 A 
HETATM   18  C   UNL     1       8.399  21.459  56.828  1.00  0.00     0.030 A 
ENDBRANCH   8  11
ENDBRANCH   6   7
ENDBRANCH   1   6
BRANCH   3  19
HETATM   19  N   UNL     1       4.657  26.960  54.021  1.00  0.00    -0.287 N 
HETATM   20  C   UNL     1       5.280  26.926  52.791  1.00  0.00     0.326 C 
HETATM   21  N   UNL     1       4.359  27.110  51.768  1.00  0.00    -0.309 N 
HETATM   22  O   UNL     1       6.485  26.789  52.626  1.00  0.00    -0.247 OA
HETATM   23  H   UNL     1       3.385  27.082  52.025  1.00  0.00     0.170 HD
HETATM   24  H   UNL     1       3.657  26.937  54.103  1.00  0.00     0.172 HD
BRANCH  21  25
HETATM   25  C   UNL     1       4.629  27.358  50.405  1.00  0.00     0.036 A 
HETATM   26  C   UNL     1       4.459  26.414  49.387  1.00  0.00     0.032 A 
HETATM   27  C   UNL     1       4.802  26.724  48.067  1.00  0.00     0.044 A 
HETATM   28  C   UNL     1       5.311  27.979  47.765  1.00  0.00     0.116 A 
HETATM   29  F   UNL     1       5.647  28.272  46.502  1.00  0.00    -0.206 F 
HETATM   30  C   UNL     1       5.481  28.934  48.758  1.00  0.00     0.044 A 
HETATM   31  C   UNL     1       5.141  28.623  50.078  1.00  0.00     0.032 A 
ENDBRANCH  21  25
ENDBRANCH   3  19
TORSDOF 5
ENDMDL
MODEL 3
REMARK VINA RESULT:     -10.4      4.741     10.579
REMARK  5 active torsions:
REMARK  status: ('A' for Active; 'I' for Inactive)
REMARK    1  A    between atoms: C_8  and  N_9 
REMARK       I    between atoms: N_9  and  C_10 
REMARK    2  A    between atoms: C_10  and  C_11 
REMARK    3  A    between atoms: C_11  and  C_12 
REMARK    4  A    between atoms: C_14  and  N_15 
REMARK       I    between atoms: N_15  and  C_16 
REMARK       I    between atoms: C_16  and  N_17 
REMARK    5  A    between atoms: N_17  and  C_18 
ROOT
HETATM    1  C   UNL     1       6.517  27.274  54.610  1.00  0.00     0.052 A 
HETATM    2  N   UNL     1       7.177  28.457  54.912  1.00  0.00    -0.228 NA
HETATM    3  C   UNL     1       6.667  28.985  55.995  1.00  0.00     0.174 A 
HETATM    4  S   UNL     1       5.384  28.128  56.725  1.00  0.00    -0.062 SA
HETATM    5  C   UNL     1       5.507  26.938  55.494  1.00  0.00     0.081 A 
ENDROOT
BRANCH   1   6
HETATM    6  C   UNL     1       6.926  26.529  53.386  1.00  0.00     0.163 C 
BRANCH   6   7
HETATM    7  C   UNL     1       6.713  25.028  53.504  1.00  0.00     0.227 C 
HETATM    8  N   UNL     1       7.800  24.349  54.030  1.00  0.00    -0.326 N 
HETATM    9  H   UNL     1       8.492  24.940  54.493  1.00  0.00     0.169 HD
HETATM   10  O   UNL     1       5.668  24.522  53.097  1.00  0.00    -0.273 OA
BRANCH   8  11
HETATM   11  C   UNL     1       8.019  22.947  54.058  1.00  0.00     0.042 A 
HETATM   12  C   UNL     1       8.403  22.324  55.272  1.00  0.00    -0.014 A 
HETATM   13  C   UNL     1       8.494  23.117  56.550  1.00  0.00     0.052 C 
HETATM   14  C   UNL     1       8.738  20.953  55.254  1.00  0.00     0.042 A 
HETATM   15 CL   UNL     1       9.300  20.115  56.661  1.00  0.00    -0.084 Cl
HETATM   16  C   UNL     1       8.645  20.205  54.078  1.00  0.00     0.024 A 
HETATM   17  C   UNL     1       8.228  20.812  52.902  1.00  0.00     0.004 A 
HETATM   18  C   UNL     1       7.923  22.173  52.893  1.00  0.00     0.030 A 
ENDBRANCH   8  11
ENDBRANCH   6   7
ENDBRANCH   1   6
BRANCH   3  19
HETATM   19  N   UNL     1       7.039  30.114  56.669  1.00  0.00    -0.287 N 
HETATM   20  C   UNL     1       7.567  30.063  57.943  1.00  0.00     0.326 C 
HETATM   21  N   UNL     1       7.604  31.330  58.511  1.00  0.00    -0.309 N 
HETATM   22  O   UNL     1       7.921  29.037  58.508  1.00  0.00    -0.247 OA
HETATM   23  H   UNL     1       7.406  32.106  57.899  1.00  0.00     0.170 HD
HETATM   24  H   UNL     1       6.892  30.988  56.198  1.00  0.00     0.172 HD
BRANCH  21  25
HETATM   25  C   UNL     1       7.862  31.658  59.859  1.00  0.00     0.036 A 
HETATM   26  C   UNL     1       9.122  31.570  60.460  1.00  0.00     0.032 A 
HETATM   27  C   UNL     1       9.282  31.863  61.819  1.00  0.00     0.044 A 
HETATM   28  C   UNL     1       8.183  32.247  62.574  1.00  0.00     0.116 A 
HETATM   29  F   UNL     1       8.336  32.519  63.876  1.00  0.00    -0.206 F 
HETATM   30  C   UNL     1       6.925  32.349  61.997  1.00  0.00     0.044 A 
HETATM   31  C   UNL     1       6.764  32.054  60.639  1.00  0.00     0.032 A 
ENDBRANCH  21  25
ENDBRANCH   3  19
TORSDOF 5
ENDMDL
MODEL 4
REMARK VINA RESULT:     -10.0      2.552      3.355
REMARK  5 active torsions:
REMARK  status: ('A' for Active; 'I' for Inactive)
REMARK    1  A    between atoms: C_8  and  N_9 
REMARK       I    between atoms: N_9  and  C_10 
REMARK    2  A    between atoms: C_10  and  C_11 
REMARK    3  A    between atoms: C_11  and  C_12 
REMARK    4  A    between atoms: C_14  and  N_15 
REMARK       I    between atoms: N_15  and  C_16 
REMARK       I    between atoms: C_16  and  N_17 
REMARK    5  A    between atoms: N_17  and  C_18 
ROOT
HETATM    1  C   UNL     1       4.052  30.936  56.624  1.00  0.00     0.052 A 
HETATM    2  N   UNL     1       4.114  29.577  56.894  1.00  0.00    -0.228 NA
HETATM    3  C   UNL     1       4.141  28.903  55.773  1.00  0.00     0.174 A 
HETATM    4  S   UNL     1       4.098  29.821  54.335  1.00  0.00    -0.062 SA
HETATM    5  C   UNL     1       4.036  31.254  55.277  1.00  0.00     0.081 A 
ENDROOT
BRANCH   1   6
HETATM    6  C   UNL     1       3.978  31.883  57.773  1.00  0.00     0.163 C 
BRANCH   6   7
HETATM    7  C   UNL     1       5.346  32.335  58.261  1.00  0.00     0.227 C 
HETATM    8  N   UNL     1       5.979  31.413  59.081  1.00  0.00    -0.326 N 
HETATM    9  H   UNL     1       5.580  30.474  59.057  1.00  0.00     0.169 HD
HETATM   10  O   UNL     1       5.767  33.452  57.963  1.00  0.00    -0.273 OA
BRANCH   8  11
HETATM   11  C   UNL     1       7.137  31.610  59.877  1.00  0.00     0.042 A 
HETATM   12  C   UNL     1       6.994  31.960  61.242  1.00  0.00    -0.014 A 
HETATM   13  C   UNL     1       5.631  32.038  61.880  1.00  0.00     0.052 C 
HETATM   14  C   UNL     1       8.152  32.275  61.986  1.00  0.00     0.042 A 
HETATM   15 CL   UNL     1       8.083  32.796  63.637  1.00  0.00    -0.084 Cl
HETATM   16  C   UNL     1       9.421  32.194  61.410  1.00  0.00     0.024 A 
HETATM   17  C   UNL     1       9.557  31.810  60.084  1.00  0.00     0.004 A 
HETATM   18  C   UNL     1       8.423  31.526  59.324  1.00  0.00     0.030 A 
ENDBRANCH   8  11
ENDBRANCH   6   7
ENDBRANCH   1   6
BRANCH   3  19
HETATM   19  N   UNL     1       4.247  27.555  55.573  1.00  0.00    -0.287 N 
HETATM   20  C   UNL     1       5.470  26.929  55.450  1.00  0.00     0.326 C 
HETATM   21  N   UNL     1       5.313  25.631  54.982  1.00  0.00    -0.309 N 
HETATM   22  O   UNL     1       6.548  27.458  55.687  1.00  0.00    -0.247 OA
HETATM   23  H   UNL     1       4.372  25.272  54.948  1.00  0.00     0.170 HD
HETATM   24  H   UNL     1       3.386  27.043  55.499  1.00  0.00     0.172 HD
BRANCH  21  25
HETATM   25  C   UNL     1       6.322  24.758  54.520  1.00  0.00     0.036 A 
HETATM   26  C   UNL     1       6.671  24.605  53.175  1.00  0.00     0.032 A 
HETATM   27  C   UNL     1       7.648  23.678  52.796  1.00  0.00     0.044 A 
HETATM   28  C   UNL     1       8.275  22.906  53.762  1.00  0.00     0.116 A 
HETATM   29  F   UNL     1       9.204  22.012  53.398  1.00  0.00    -0.206 F 
HETATM   30  C   UNL     1       7.951  23.046  55.105  1.00  0.00     0.044 A 
HETATM   31  C   UNL     1       6.974  23.972  55.483  1.00  0.00     0.032 A 
ENDBRANCH  21  25
ENDBRANCH   3  19
TORSDOF 5
ENDMDL
MODEL 5
REMARK VINA RESULT:      -9.8      5.572      9.034
REMARK  5 active torsions:
REMARK  status: ('A' for Active; 'I' for Inactive)
REMARK    1  A    between atoms: C_8  and  N_9 
REMARK       I    between atoms: N_9  and  C_10 
REMARK    2  A    between atoms: C_10  and  C_11 
REMARK    3  A    between atoms: C_11  and  C_12 
REMARK    4  A    between atoms: C_14  and  N_15 
REMARK       I    between atoms: N_15  and  C_16 
REMARK       I    between atoms: C_16  and  N_17 
REMARK    5  A    between atoms: N_17  and  C_18 
ROOT
HETATM    1  C   UNL     1       6.575  27.882  56.716  1.00  0.00     0.052 A 
HETATM    2  N   UNL     1       6.427  27.767  55.341  1.00  0.00    -0.228 NA
HETATM    3  C   UNL     1       5.878  28.853  54.861  1.00  0.00     0.174 A 
HETATM    4  S   UNL     1       5.504  30.076  55.991  1.00  0.00    -0.062 SA
HETATM    5  C   UNL     1       6.125  29.079  57.243  1.00  0.00     0.081 A 
ENDROOT
BRANCH   1   6
HETATM    6  C   UNL     1       7.154  26.730  57.463  1.00  0.00     0.163 C 
BRANCH   6   7
HETATM    7  C   UNL     1       6.887  25.391  56.793  1.00  0.00     0.227 C 
HETATM    8  N   UNL     1       7.909  24.973  55.955  1.00  0.00    -0.326 N 
HETATM    9  H   UNL     1       8.793  25.469  56.076  1.00  0.00     0.169 HD
HETATM   10  O   UNL     1       5.817  24.813  56.979  1.00  0.00    -0.273 OA
BRANCH   8  11
HETATM   11  C   UNL     1       7.883  23.908  55.017  1.00  0.00     0.042 A 
HETATM   12  C   UNL     1       8.158  22.588  55.451  1.00  0.00    -0.014 A 
HETATM   13  C   UNL     1       8.388  22.289  56.910  1.00  0.00     0.052 C 
HETATM   14  C   UNL     1       8.252  21.562  54.486  1.00  0.00     0.042 A 
HETATM   15 CL   UNL     1       8.666  19.932  54.899  1.00  0.00    -0.084 Cl
HETATM   16  C   UNL     1       8.028  21.825  53.133  1.00  0.00     0.024 A 
HETATM   17  C   UNL     1       7.718  23.112  52.719  1.00  0.00     0.004 A 
HETATM   18  C   UNL     1       7.651  24.145  53.654  1.00  0.00     0.030 A 
ENDBRANCH   8  11
ENDBRANCH   6   7
ENDBRANCH   1   6
BRANCH   3  19
HETATM   19  N   UNL     1       5.595  29.184  53.565  1.00  0.00    -0.287 N 
HETATM   20  C   UNL     1       4.638  28.511  52.833  1.00  0.00     0.326 C 
HETATM   21  N   UNL     1       4.730  28.839  51.487  1.00  0.00    -0.309 N 
HETATM   22  O   UNL     1       3.841  27.709  53.302  1.00  0.00    -0.247 OA
HETATM   23  H   UNL     1       5.339  29.605  51.247  1.00  0.00     0.170 HD
HETATM   24  H   UNL     1       6.133  29.930  53.164  1.00  0.00     0.172 HD
BRANCH  21  25
HETATM   25  C   UNL     1       4.086  28.203  50.404  1.00  0.00     0.036 A 
HETATM   26  C   UNL     1       2.901  28.660  49.818  1.00  0.00     0.032 A 
HETATM   27  C   UNL     1       2.298  27.939  48.781  1.00  0.00     0.044 A 
HETATM   28  C   UNL     1       2.882  26.765  48.329  1.00  0.00     0.116 A 
HETATM   29  F   UNL     1       2.300  26.071  47.343  1.00  0.00    -0.206 F 
HETATM   30  C   UNL     1       4.062  26.296  48.890  1.00  0.00     0.044 A 
HETATM   31  C   UNL     1       4.664  27.015  49.928  1.00  0.00     0.032 A 
ENDBRANCH  21  25
ENDBRANCH   3  19
TORSDOF 5
ENDMDL
MODEL 6
REMARK VINA RESULT:      -9.7      3.694      5.113
REMARK  5 active torsions:
REMARK  status: ('A' for Active; 'I' for Inactive)
REMARK    1  A    between atoms: C_8  and  N_9 
REMARK       I    between atoms: N_9  and  C_10 
REMARK    2  A    between atoms: C_10  and  C_11 
REMARK    3  A    between atoms: C_11  and  C_12 
REMARK    4  A    between atoms: C_14  and  N_15 
REMARK       I    between atoms: N_15  and  C_16 
REMARK       I    between atoms: C_16  and  N_17 
REMARK    5  A    between atoms: N_17  and  C_18 
ROOT
HETATM    1  C   UNL     1       4.470  28.678  52.549  1.00  0.00     0.052 A 
HETATM    2  N   UNL     1       5.360  27.710  52.992  1.00  0.00    -0.228 NA
HETATM    3  C   UNL     1       5.718  26.945  51.992  1.00  0.00     0.174 A 
HETATM    4  S   UNL     1       5.033  27.315  50.473  1.00  0.00    -0.062 SA
HETATM    5  C   UNL     1       4.177  28.613  51.198  1.00  0.00     0.081 A 
ENDROOT
BRANCH   1   6
HETATM    6  C   UNL     1       3.912  29.635  53.546  1.00  0.00     0.163 C 
BRANCH   6   7
HETATM    7  C   UNL     1       4.446  29.407  54.952  1.00  0.00     0.227 C 
HETATM    8  N   UNL     1       5.674  30.006  55.188  1.00  0.00    -0.326 N 
HETATM    9  H   UNL     1       5.945  30.711  54.501  1.00  0.00     0.169 HD
HETATM   10  O   UNL     1       3.820  28.699  55.740  1.00  0.00    -0.273 OA
BRANCH   8  11
HETATM   11  C   UNL     1       6.542  29.803  56.291  1.00  0.00     0.042 A 
HETATM   12  C   UNL     1       6.447  30.653  57.421  1.00  0.00    -0.014 A 
HETATM   13  C   UNL     1       5.376  31.710  57.502  1.00  0.00     0.052 C 
HETATM   14  C   UNL     1       7.399  30.518  58.454  1.00  0.00     0.042 A 
HETATM   15 CL   UNL     1       7.425  31.559  59.837  1.00  0.00    -0.084 Cl
HETATM   16  C   UNL     1       8.389  29.534  58.396  1.00  0.00     0.024 A 
HETATM   17  C   UNL     1       8.451  28.678  57.306  1.00  0.00     0.004 A 
HETATM   18  C   UNL     1       7.538  28.816  56.261  1.00  0.00     0.030 A 
ENDBRANCH   8  11
ENDBRANCH   6   7
ENDBRANCH   1   6
BRANCH   3  19
HETATM   19  N   UNL     1       6.605  25.907  51.968  1.00  0.00    -0.287 N 
HETATM   20  C   UNL     1       6.378  24.736  52.662  1.00  0.00     0.326 C 
HETATM   21  N   UNL     1       7.529  23.960  52.707  1.00  0.00    -0.309 N 
HETATM   22  O   UNL     1       5.317  24.439  53.195  1.00  0.00    -0.247 OA
HETATM   23  H   UNL     1       8.296  24.253  52.122  1.00  0.00     0.170 HD
HETATM   24  H   UNL     1       7.444  26.045  51.434  1.00  0.00     0.172 HD
BRANCH  21  25
HETATM   25  C   UNL     1       7.761  22.816  53.501  1.00  0.00     0.036 A 
HETATM   26  C   UNL     1       7.968  21.533  52.986  1.00  0.00     0.032 A 
HETATM   27  C   UNL     1       8.138  20.442  53.845  1.00  0.00     0.044 A 
HETATM   28  C   UNL     1       8.104  20.636  55.218  1.00  0.00     0.116 A 
HETATM   29  F   UNL     1       8.259  19.590  56.039  1.00  0.00    -0.206 F 
HETATM   30  C   UNL     1       7.909  21.902  55.752  1.00  0.00     0.044 A 
HETATM   31  C   UNL     1       7.737  22.992  54.894  1.00  0.00     0.032 A 
ENDBRANCH  21  25
ENDBRANCH   3  19
TORSDOF 5
ENDMDL
MODEL 7
REMARK VINA RESULT:      -9.7      5.027     10.938
REMARK  5 active torsions:
REMARK  status: ('A' for Active; 'I' for Inactive)
REMARK    1  A    between atoms: C_8  and  N_9 
REMARK       I    between atoms: N_9  and  C_10 
REMARK    2  A    between atoms: C_10  and  C_11 
REMARK    3  A    between atoms: C_11  and  C_12 
REMARK    4  A    between atoms: C_14  and  N_15 
REMARK       I    between atoms: N_15  and  C_16 
REMARK       I    between atoms: C_16  and  N_17 
REMARK    5  A    between atoms: N_17  and  C_18 
ROOT
HETATM    1  C   UNL     1       7.281  28.280  55.763  1.00  0.00     0.052 A 
HETATM    2  N   UNL     1       6.184  28.993  56.223  1.00  0.00    -0.228 NA
HETATM    3  C   UNL     1       6.425  29.453  57.424  1.00  0.00     0.174 A 
HETATM    4  S   UNL     1       7.953  29.080  58.085  1.00  0.00    -0.062 SA
HETATM    5  C   UNL     1       8.342  28.224  56.650  1.00  0.00     0.081 A 
ENDROOT
BRANCH   1   6
HETATM    6  C   UNL     1       7.197  27.641  54.420  1.00  0.00     0.163 C 
BRANCH   6   7
HETATM    7  C   UNL     1       6.781  26.179  54.481  1.00  0.00     0.227 C 
HETATM    8  N   UNL     1       7.849  25.296  54.523  1.00  0.00    -0.326 N 
HETATM    9  H   UNL     1       8.748  25.721  54.753  1.00  0.00     0.169 HD
HETATM   10  O   UNL     1       5.589  25.877  54.438  1.00  0.00    -0.273 OA
BRANCH   8  11
HETATM   11  C   UNL     1       7.818  23.887  54.355  1.00  0.00     0.042 A 
HETATM   12  C   UNL     1       7.937  23.046  55.488  1.00  0.00    -0.014 A 
HETATM   13  C   UNL     1       8.003  23.627  56.877  1.00  0.00     0.052 C 
HETATM   14  C   UNL     1       8.031  21.651  55.290  1.00  0.00     0.042 A 
HETATM   15 CL   UNL     1       8.262  20.540  56.598  1.00  0.00    -0.084 Cl
HETATM   16  C   UNL     1       7.958  21.099  54.009  1.00  0.00     0.024 A 
HETATM   17  C   UNL     1       7.800  21.927  52.907  1.00  0.00     0.004 A 
HETATM   18  C   UNL     1       7.736  23.309  53.079  1.00  0.00     0.030 A 
ENDBRANCH   8  11
ENDBRANCH   6   7
ENDBRANCH   1   6
BRANCH   3  19
HETATM   19  N   UNL     1       5.645  30.239  58.226  1.00  0.00    -0.287 N 
HETATM   20  C   UNL     1       6.105  31.429  58.751  1.00  0.00     0.326 C 
HETATM   21  N   UNL     1       5.247  31.895  59.738  1.00  0.00    -0.309 N 
HETATM   22  O   UNL     1       7.146  31.980  58.416  1.00  0.00    -0.247 OA
HETATM   23  H   UNL     1       4.362  31.421  59.830  1.00  0.00     0.170 HD
HETATM   24  H   UNL     1       4.724  29.897  58.431  1.00  0.00     0.172 HD
BRANCH  21  25
HETATM   25  C   UNL     1       5.481  32.945  60.652  1.00  0.00     0.036 A 
HETATM   26  C   UNL     1       6.474  32.921  61.637  1.00  0.00     0.032 A 
HETATM   27  C   UNL     1       6.604  33.983  62.539  1.00  0.00     0.044 A 
HETATM   28  C   UNL     1       5.745  35.068  62.454  1.00  0.00     0.116 A 
HETATM   29  F   UNL     1       5.865  36.080  63.322  1.00  0.00    -0.206 F 
HETATM   30  C   UNL     1       4.758  35.117  61.478  1.00  0.00     0.044 A 
HETATM   31  C   UNL     1       4.626  34.055  60.578  1.00  0.00     0.032 A 
ENDBRANCH  21  25
ENDBRANCH   3  19
TORSDOF 5
ENDMDL
MODEL 8
REMARK VINA RESULT:      -9.6      4.405      5.959
REMARK  5 active torsions:
REMARK  status: ('A' for Active; 'I' for Inactive)
REMARK    1  A    between atoms: C_8  and  N_9 
REMARK       I    between atoms: N_9  and  C_10 
REMARK    2  A    between atoms: C_10  and  C_11 
REMARK    3  A    between atoms: C_11  and  C_12 
REMARK    4  A    between atoms: C_14  and  N_15 
REMARK       I    between atoms: N_15  and  C_16 
REMARK       I    between atoms: C_16  and  N_17 
REMARK    5  A    between atoms: N_17  and  C_18 
ROOT
HETATM    1  C   UNL     1       4.530  28.447  51.766  1.00  0.00     0.052 A 
HETATM    2  N   UNL     1       5.460  27.544  52.260  1.00  0.00    -0.228 NA
HETATM    3  C   UNL     1       5.683  26.607  51.374  1.00  0.00     0.174 A 
HETATM    4  S   UNL     1       4.817  26.728  49.909  1.00  0.00    -0.062 SA
HETATM    5  C   UNL     1       4.069  28.158  50.494  1.00  0.00     0.081 A 
ENDROOT
BRANCH   1   6
HETATM    6  C   UNL     1       4.110  29.578  52.640  1.00  0.00     0.163 C 
BRANCH   6   7
HETATM    7  C   UNL     1       4.425  29.344  54.110  1.00  0.00     0.227 C 
HETATM    8  N   UNL     1       5.718  29.693  54.467  1.00  0.00    -0.326 N 
HETATM    9  H   UNL     1       6.206  30.279  53.788  1.00  0.00     0.169 HD
HETATM   10  O   UNL     1       3.581  28.834  54.845  1.00  0.00    -0.273 OA
BRANCH   8  11
HETATM   11  C   UNL     1       6.396  29.393  55.676  1.00  0.00     0.042 A 
HETATM   12  C   UNL     1       7.159  28.203  55.773  1.00  0.00    -0.014 A 
HETATM   13  C   UNL     1       7.332  27.300  54.579  1.00  0.00     0.052 C 
HETATM   14  C   UNL     1       7.723  27.859  57.020  1.00  0.00     0.042 A 
HETATM   15 CL   UNL     1       8.601  26.386  57.268  1.00  0.00    -0.084 Cl
HETATM   16  C   UNL     1       7.581  28.694  58.130  1.00  0.00     0.024 A 
HETATM   17  C   UNL     1       6.867  29.879  58.018  1.00  0.00     0.004 A 
HETATM   18  C   UNL     1       6.276  30.222  56.802  1.00  0.00     0.030 A 
ENDBRANCH   8  11
ENDBRANCH   6   7
ENDBRANCH   1   6
BRANCH   3  19
HETATM   19  N   UNL     1       6.552  25.553  51.424  1.00  0.00    -0.287 N 
HETATM   20  C   UNL     1       6.478  24.593  52.413  1.00  0.00     0.326 C 
HETATM   21  N   UNL     1       7.617  23.799  52.412  1.00  0.00    -0.309 N 
HETATM   22  O   UNL     1       5.552  24.481  53.205  1.00  0.00    -0.247 OA
HETATM   23  H   UNL     1       8.245  23.908  51.632  1.00  0.00     0.170 HD
HETATM   24  H   UNL     1       7.261  25.521  50.715  1.00  0.00     0.172 HD
BRANCH  21  25
HETATM   25  C   UNL     1       8.014  22.868  53.396  1.00  0.00     0.036 A 
HETATM   26  C   UNL     1       8.490  23.221  54.663  1.00  0.00     0.032 A 
HETATM   27  C   UNL     1       8.914  22.236  55.562  1.00  0.00     0.044 A 
HETATM   28  C   UNL     1       8.859  20.900  55.194  1.00  0.00     0.116 A 
HETATM   29  F   UNL     1       9.273  19.958  56.052  1.00  0.00    -0.206 F 
HETATM   30  C   UNL     1       8.382  20.526  53.945  1.00  0.00     0.044 A 
HETATM   31  C   UNL     1       7.961  21.510  53.046  1.00  0.00     0.032 A 
ENDBRANCH  21  25
ENDBRANCH   3  19
TORSDOF 5
ENDMDL
MODEL 9
REMARK VINA RESULT:      -9.0      6.506      9.825
REMARK  5 active torsions:
REMARK  status: ('A' for Active; 'I' for Inactive)
REMARK    1  A    between atoms: C_8  and  N_9 
REMARK       I    between atoms: N_9  and  C_10 
REMARK    2  A    between atoms: C_10  and  C_11 
REMARK    3  A    between atoms: C_11  and  C_12 
REMARK    4  A    between atoms: C_14  and  N_15 
REMARK       I    between atoms: N_15  and  C_16 
REMARK       I    between atoms: C_16  and  N_17 
REMARK    5  A    between atoms: N_17  and  C_18 
ROOT
HETATM    1  C   UNL     1       4.642  34.108  65.412  1.00  0.00     0.052 A 
HETATM    2  N   UNL     1       4.935  32.938  64.726  1.00  0.00    -0.228 NA
HETATM    3  C   UNL     1       4.994  33.180  63.441  1.00  0.00     0.174 A 
HETATM    4  S   UNL     1       4.712  34.793  62.961  1.00  0.00    -0.062 SA
HETATM    5  C   UNL     1       4.487  35.222  64.607  1.00  0.00     0.081 A 
ENDROOT
BRANCH   1   6
HETATM    6  C   UNL     1       4.495  34.041  66.894  1.00  0.00     0.163 C 
BRANCH   6   7
HETATM    7  C   UNL     1       5.829  34.055  67.625  1.00  0.00     0.227 C 
HETATM    8  N   UNL     1       5.709  34.076  69.006  1.00  0.00    -0.326 N 
HETATM    9  H   UNL     1       4.782  33.834  69.359  1.00  0.00     0.169 HD
HETATM   10  O   UNL     1       6.879  34.101  66.987  1.00  0.00    -0.273 OA
BRANCH   8  11
HETATM   11  C   UNL     1       6.726  34.322  69.963  1.00  0.00     0.042 A 
HETATM   12  C   UNL     1       7.101  33.295  70.865  1.00  0.00    -0.014 A 
HETATM   13  C   UNL     1       6.496  31.919  70.759  1.00  0.00     0.052 C 
HETATM   14  C   UNL     1       8.024  33.596  71.890  1.00  0.00     0.042 A 
HETATM   15 CL   UNL     1       8.485  32.439  73.093  1.00  0.00    -0.084 Cl
HETATM   16  C   UNL     1       8.601  34.864  71.990  1.00  0.00     0.024 A 
HETATM   17  C   UNL     1       8.261  35.853  71.078  1.00  0.00     0.004 A 
HETATM   18  C   UNL     1       7.327  35.585  70.077  1.00  0.00     0.030 A 
ENDBRANCH   8  11
ENDBRANCH   6   7
ENDBRANCH   1   6
BRANCH   3  19
HETATM   19  N   UNL     1       5.298  32.334  62.412  1.00  0.00    -0.287 N 
HETATM   20  C   UNL     1       6.596  32.137  61.989  1.00  0.00     0.326 C 
HETATM   21  N   UNL     1       6.620  31.465  60.774  1.00  0.00    -0.309 N 
HETATM   22  O   UNL     1       7.589  32.531  62.586  1.00  0.00    -0.247 OA
HETATM   23  H   UNL     1       5.746  31.082  60.450  1.00  0.00     0.170 HD
HETATM   24  H   UNL     1       4.525  31.877  61.963  1.00  0.00     0.172 HD
BRANCH  21  25
HETATM   25  C   UNL     1       7.728  31.277  59.920  1.00  0.00     0.036 A 
HETATM   26  C   UNL     1       7.864  30.200  59.037  1.00  0.00     0.032 A 
HETATM   27  C   UNL     1       9.021  30.059  58.263  1.00  0.00     0.044 A 
HETATM   28  C   UNL     1      10.039  30.995  58.369  1.00  0.00     0.116 A 
HETATM   29  F   UNL     1      11.149  30.855  57.634  1.00  0.00    -0.206 F 
HETATM   30  C   UNL     1       9.922  32.077  59.232  1.00  0.00     0.044 A 
HETATM   31  C   UNL     1       8.767  32.217  60.007  1.00  0.00     0.032 A 
ENDBRANCH  21  25
ENDBRANCH   3  19
TORSDOF 5
ENDMDL
MODEL 10
REMARK VINA RESULT:      -9.0      5.216     10.504
REMARK  5 active torsions:
REMARK  status: ('A' for Active; 'I' for Inactive)
REMARK    1  A    between atoms: C_8  and  N_9 
REMARK       I    between atoms: N_9  and  C_10 
REMARK    2  A    between atoms: C_10  and  C_11 
REMARK    3  A    between atoms: C_11  and  C_12 
REMARK    4  A    between atoms: C_14  and  N_15 
REMARK       I    between atoms: N_15  and  C_16 
REMARK       I    between atoms: C_16  and  N_17 
REMARK    5  A    between atoms: N_17  and  C_18 
ROOT
HETATM    1  C   UNL     1       4.316  29.760  55.576  1.00  0.00     0.052 A 
HETATM    2  N   UNL     1       4.118  29.727  56.949  1.00  0.00    -0.228 NA
HETATM    3  C   UNL     1       4.306  30.920  57.453  1.00  0.00     0.174 A 
HETATM    4  S   UNL     1       4.724  32.152  56.349  1.00  0.00    -0.062 SA
HETATM    5  C   UNL     1       4.653  31.005  55.074  1.00  0.00     0.081 A 
ENDROOT
BRANCH   1   6
HETATM    6  C   UNL     1       4.183  28.488  54.812  1.00  0.00     0.163 C 
BRANCH   6   7
HETATM    7  C   UNL     1       5.450  27.647  54.830  1.00  0.00     0.227 C 
HETATM    8  N   UNL     1       5.214  26.281  54.836  1.00  0.00    -0.326 N 
HETATM    9  H   UNL     1       4.263  26.009  54.582  1.00  0.00     0.169 HD
HETATM   10  O   UNL     1       6.550  28.195  54.891  1.00  0.00    -0.273 OA
BRANCH   8  11
HETATM   11  C   UNL     1       6.146  25.239  55.081  1.00  0.00     0.042 A 
HETATM   12  C   UNL     1       6.498  24.356  54.031  1.00  0.00    -0.014 A 
HETATM   13  C   UNL     1       5.966  24.564  52.637  1.00  0.00     0.052 C 
HETATM   14  C   UNL     1       7.328  23.252  54.323  1.00  0.00     0.042 A 
HETATM   15 CL   UNL     1       7.750  22.066  53.134  1.00  0.00    -0.084 Cl
HETATM   16  C   UNL     1       7.838  23.055  55.608  1.00  0.00     0.024 A 
HETATM   17  C   UNL     1       7.523  23.948  56.623  1.00  0.00     0.004 A 
HETATM   18  C   UNL     1       6.679  25.027  56.361  1.00  0.00     0.030 A 
ENDBRANCH   8  11
ENDBRANCH   6   7
ENDBRANCH   1   6
BRANCH   3  19
HETATM   19  N   UNL     1       4.172  31.348  58.744  1.00  0.00    -0.287 N 
HETATM   20  C   UNL     1       5.179  32.030  59.395  1.00  0.00     0.326 C 
HETATM   21  N   UNL     1       4.919  32.108  60.757  1.00  0.00    -0.309 N 
HETATM   22  O   UNL     1       6.182  32.473  58.852  1.00  0.00    -0.247 OA
HETATM   23  H   UNL     1       4.002  31.820  61.060  1.00  0.00     0.170 HD
HETATM   24  H   UNL     1       3.308  31.124  59.204  1.00  0.00     0.172 HD
BRANCH  21  25
HETATM   25  C   UNL     1       5.802  32.524  61.776  1.00  0.00     0.036 A 
HETATM   26  C   UNL     1       6.922  31.795  62.188  1.00  0.00     0.032 A 
HETATM   27  C   UNL     1       7.717  32.252  63.245  1.00  0.00     0.044 A 
HETATM   28  C   UNL     1       7.394  33.438  63.886  1.00  0.00     0.116 A 
HETATM   29  F   UNL     1       8.150  33.871  64.903  1.00  0.00    -0.206 F 
HETATM   30  C   UNL     1       6.291  34.183  63.488  1.00  0.00     0.044 A 
HETATM   31  C   UNL     1       5.495  33.725  62.434  1.00  0.00     0.032 A 
ENDBRANCH  21  25
ENDBRANCH   3  19
TORSDOF 5
ENDMDL
