MODEL 1
REMARK VINA RESULT:     -10.1      0.000      0.000
REMARK  6 active torsions:
REMARK  status: ('A' for Active; 'I' for Inactive)
REMARK    1  A    between atoms: C_9  and  N_10 
REMARK       I    between atoms: N_10  and  C_11 
REMARK    2  A    between atoms: C_11  and  C_12 
REMARK    3  A    between atoms: C_12  and  N_13 
REMARK    4  A    between atoms: C_12  and  C_21 
REMARK       I    between atoms: N_13  and  C_14 
REMARK    5  A    between atoms: C_14  and  C_15 
REMARK    6  A    between atoms: C_21  and  C_22 
ROOT
HETATM    1  C   UNL     1       6.835  25.329  52.750  1.00  0.00     0.181 C 
ENDROOT
BRANCH   1   2
HETATM    2  C   UNL     1       7.210  26.528  53.653  1.00  0.00     0.245 C 
HETATM    3  N   UNL     1       6.483  26.607  54.825  1.00  0.00    -0.325 N 
HETATM    4  H   UNL     1       5.869  25.814  55.022  1.00  0.00     0.169 HD
HETATM    5  O   UNL     1       8.109  27.293  53.307  1.00  0.00    -0.271 OA
BRANCH   3   6
HETATM    6  C   UNL     1       6.537  27.605  55.820  1.00  0.00     0.037 A 
HETATM    7  C   UNL     1       7.639  27.807  56.660  1.00  0.00     0.063 A 
HETATM    8  C   UNL     1       7.586  28.837  57.616  1.00  0.00     0.087 A 
HETATM    9  N   UNL     1       8.521  29.222  58.548  1.00  0.00    -0.234 NA
HETATM   10  C   UNL     1       6.453  29.636  57.698  1.00  0.00     0.062 A 
HETATM   11  C   UNL     1       7.984  30.233  59.197  1.00  0.00     0.101 A 
HETATM   12  C   UNL     1       8.593  30.996  60.311  1.00  0.00     0.091 C 
HETATM   13  N   UNL     1       6.735  30.521  58.708  1.00  0.00    -0.343 N 
HETATM   14  H   UNL     1       6.126  31.254  59.039  1.00  0.00     0.167 HD
HETATM   15  C   UNL     1       5.340  29.471  56.877  1.00  0.00     0.034 A 
HETATM   16  C   UNL     1       5.409  28.433  55.937  1.00  0.00     0.032 A 
ENDBRANCH   3   6
ENDBRANCH   1   2
BRANCH   1  17
HETATM   17  N   UNL     1       6.354  25.825  51.452  1.00  0.00    -0.343 N 
HETATM   18  C   UNL     1       5.253  26.633  51.280  1.00  0.00     0.259 C 
HETATM   19  O   UNL     1       4.574  26.983  52.245  1.00  0.00    -0.267 OA
HETATM   20  H   UNL     1       6.806  25.468  50.618  1.00  0.00     0.163 HD
BRANCH  18  21
HETATM   21  C   UNL     1       4.941  27.015  49.910  1.00  0.00     0.072 A 
HETATM   22  S   UNL     1       5.370  28.544  49.262  1.00  0.00    -0.097 SA
HETATM   23  C   UNL     1       4.677  28.176  47.744  1.00  0.00     0.050 A 
HETATM   24  C   UNL     1       4.128  26.915  47.720  1.00  0.00     0.009 A 
HETATM   25  C   UNL     1       4.281  26.246  48.968  1.00  0.00     0.025 A 
ENDBRANCH  18  21
ENDBRANCH   1  17
BRANCH   1  26
HETATM   26  C   UNL     1       7.945  24.265  52.626  1.00  0.00     0.073 C 
BRANCH  26  27
HETATM   27  C   UNL     1       7.859  23.040  53.516  1.00  0.00    -0.056 A 
HETATM   28  C   UNL     1       7.764  23.090  54.912  1.00  0.00     0.007 A 
HETATM   29  C   UNL     1       7.729  21.914  55.667  1.00  0.00     0.001 A 
HETATM   30  C   UNL     1       7.799  20.672  55.041  1.00  0.00     0.000 A 
HETATM   31  C   UNL     1       7.907  20.604  53.657  1.00  0.00     0.001 A 
HETATM   32  C   UNL     1       7.941  21.777  52.901  1.00  0.00     0.007 A 
ENDBRANCH  26  27
ENDBRANCH   1  26
TORSDOF 6
ENDMDL
MODEL 2
REMARK VINA RESULT:     -10.0      1.523      1.877
REMARK  6 active torsions:
REMARK  status: ('A' for Active; 'I' for Inactive)
REMARK    1  A    between atoms: C_9  and  N_10 
REMARK       I    between atoms: N_10  and  C_11 
REMARK    2  A    between atoms: C_11  and  C_12 
REMARK    3  A    between atoms: C_12  and  N_13 
REMARK    4  A    between atoms: C_12  and  C_21 
REMARK       I    between atoms: N_13  and  C_14 
REMARK    5  A    between atoms: C_14  and  C_15 
REMARK    6  A    between atoms: C_21  and  C_22 
ROOT
HETATM    1  C   UNL     1       6.523  25.340  54.870  1.00  0.00     0.181 C 
ENDROOT
BRANCH   1   2
HETATM    2  C   UNL     1       6.348  26.313  56.061  1.00  0.00     0.245 C 
HETATM    3  N   UNL     1       6.950  27.544  55.884  1.00  0.00    -0.325 N 
HETATM    4  H   UNL     1       7.339  27.719  54.956  1.00  0.00     0.169 HD
HETATM    5  O   UNL     1       5.692  25.964  57.042  1.00  0.00    -0.271 OA
BRANCH   3   6
HETATM    6  C   UNL     1       7.029  28.615  56.796  1.00  0.00     0.037 A 
HETATM    7  C   UNL     1       7.964  28.685  57.836  1.00  0.00     0.063 A 
HETATM    8  C   UNL     1       7.956  29.805  58.686  1.00  0.00     0.087 A 
HETATM    9  N   UNL     1       8.754  30.095  59.768  1.00  0.00    -0.234 NA
HETATM   10  C   UNL     1       7.033  30.820  58.470  1.00  0.00     0.062 A 
HETATM   11  C   UNL     1       8.338  31.260  60.217  1.00  0.00     0.101 A 
HETATM   12  C   UNL     1       8.872  32.005  61.380  1.00  0.00     0.091 C 
HETATM   13  N   UNL     1       7.301  31.737  59.454  1.00  0.00    -0.343 N 
HETATM   14  H   UNL     1       6.818  32.611  59.596  1.00  0.00     0.167 HD
HETATM   15  C   UNL     1       6.092  30.791  57.444  1.00  0.00     0.034 A 
HETATM   16  C   UNL     1       6.111  29.662  56.613  1.00  0.00     0.032 A 
ENDBRANCH   3   6
ENDBRANCH   1   2
BRANCH   1  17
HETATM   17  N   UNL     1       6.262  26.054  53.612  1.00  0.00    -0.343 N 
HETATM   18  C   UNL     1       5.287  25.710  52.702  1.00  0.00     0.259 C 
HETATM   19  O   UNL     1       4.564  24.733  52.896  1.00  0.00    -0.267 OA
HETATM   20  H   UNL     1       6.906  26.791  53.349  1.00  0.00     0.163 HD
BRANCH  18  21
HETATM   21  C   UNL     1       5.190  26.546  51.515  1.00  0.00     0.072 A 
HETATM   22  S   UNL     1       5.459  28.239  51.558  1.00  0.00    -0.097 SA
HETATM   23  C   UNL     1       5.157  28.403  49.884  1.00  0.00     0.050 A 
HETATM   24  C   UNL     1       4.856  27.197  49.294  1.00  0.00     0.009 A 
HETATM   25  C   UNL     1       4.876  26.127  50.234  1.00  0.00     0.025 A 
ENDBRANCH  18  21
ENDBRANCH   1  17
BRANCH   1  26
HETATM   26  C   UNL     1       7.864  24.577  54.875  1.00  0.00     0.073 C 
BRANCH  26  27
HETATM   27  C   UNL     1       7.837  23.089  54.585  1.00  0.00    -0.056 A 
HETATM   28  C   UNL     1       7.801  22.098  55.574  1.00  0.00     0.007 A 
HETATM   29  C   UNL     1       7.819  20.744  55.227  1.00  0.00     0.001 A 
HETATM   30  C   UNL     1       7.883  20.359  53.890  1.00  0.00     0.000 A 
HETATM   31  C   UNL     1       7.933  21.329  52.896  1.00  0.00     0.001 A 
HETATM   32  C   UNL     1       7.914  22.682  53.240  1.00  0.00     0.007 A 
ENDBRANCH  26  27
ENDBRANCH   1  26
TORSDOF 6
ENDMDL
MODEL 3
REMARK VINA RESULT:      -9.6      1.048      1.493
REMARK  6 active torsions:
REMARK  status: ('A' for Active; 'I' for Inactive)
REMARK    1  A    between atoms: C_9  and  N_10 
REMARK       I    between atoms: N_10  and  C_11 
REMARK    2  A    between atoms: C_11  and  C_12 
REMARK    3  A    between atoms: C_12  and  N_13 
REMARK    4  A    between atoms: C_12  and  C_21 
REMARK       I    between atoms: N_13  and  C_14 
REMARK    5  A    between atoms: C_14  and  C_15 
REMARK    6  A    between atoms: C_21  and  C_22 
ROOT
HETATM    1  C   UNL     1       6.851  26.319  53.041  1.00  0.00     0.181 C 
ENDROOT
BRANCH   1   2
HETATM    2  C   UNL     1       7.253  27.469  53.997  1.00  0.00     0.245 C 
HETATM    3  N   UNL     1       6.566  27.479  55.195  1.00  0.00    -0.325 N 
HETATM    4  H   UNL     1       5.961  26.674  55.369  1.00  0.00     0.169 HD
HETATM    5  O   UNL     1       8.138  28.256  53.664  1.00  0.00    -0.271 OA
BRANCH   3   6
HETATM    6  C   UNL     1       6.651  28.421  56.241  1.00  0.00     0.037 A 
HETATM    7  C   UNL     1       7.698  28.460  57.170  1.00  0.00     0.063 A 
HETATM    8  C   UNL     1       7.684  29.448  58.171  1.00  0.00     0.087 A 
HETATM    9  N   UNL     1       8.579  29.682  59.188  1.00  0.00    -0.234 NA
HETATM   10  C   UNL     1       6.643  30.366  58.210  1.00  0.00     0.062 A 
HETATM   11  C   UNL     1       8.107  30.719  59.847  1.00  0.00     0.101 A 
HETATM   12  C   UNL     1       8.707  31.360  61.040  1.00  0.00     0.091 C 
HETATM   13  N   UNL     1       6.940  31.169  59.282  1.00  0.00    -0.343 N 
HETATM   14  H   UNL     1       6.392  31.952  59.604  1.00  0.00     0.167 HD
HETATM   15  C   UNL     1       5.588  30.364  57.301  1.00  0.00     0.034 A 
HETATM   16  C   UNL     1       5.616  29.366  56.317  1.00  0.00     0.032 A 
ENDBRANCH   3   6
ENDBRANCH   1   2
BRANCH   1  17
HETATM   17  N   UNL     1       6.273  26.883  51.813  1.00  0.00    -0.343 N 
HETATM   18  C   UNL     1       5.304  26.271  51.049  1.00  0.00     0.259 C 
HETATM   19  O   UNL     1       4.865  25.164  51.361  1.00  0.00    -0.267 OA
HETATM   20  H   UNL     1       6.685  27.734  51.449  1.00  0.00     0.163 HD
BRANCH  18  21
HETATM   21  C   UNL     1       4.864  26.995  49.866  1.00  0.00     0.072 A 
HETATM   22  S   UNL     1       3.872  26.277  48.664  1.00  0.00    -0.097 SA
HETATM   23  C   UNL     1       3.852  27.704  47.724  1.00  0.00     0.050 A 
HETATM   24  C   UNL     1       4.583  28.715  48.306  1.00  0.00     0.009 A 
HETATM   25  C   UNL     1       5.166  28.306  49.540  1.00  0.00     0.025 A 
ENDBRANCH  18  21
ENDBRANCH   1  17
BRANCH   1  26
HETATM   26  C   UNL     1       7.978  25.300  52.777  1.00  0.00     0.073 C 
BRANCH  26  27
HETATM   27  C   UNL     1       7.913  23.965  53.493  1.00  0.00    -0.056 A 
HETATM   28  C   UNL     1       7.973  22.725  52.847  1.00  0.00     0.007 A 
HETATM   29  C   UNL     1       7.866  21.535  53.574  1.00  0.00     0.001 A 
HETATM   30  C   UNL     1       7.687  21.567  54.955  1.00  0.00     0.000 A 
HETATM   31  C   UNL     1       7.613  22.790  55.612  1.00  0.00     0.001 A 
HETATM   32  C   UNL     1       7.721  23.978  54.887  1.00  0.00     0.007 A 
ENDBRANCH  26  27
ENDBRANCH   1  26
TORSDOF 6
ENDMDL
MODEL 4
REMARK VINA RESULT:      -9.6      2.582      7.555
REMARK  6 active torsions:
REMARK  status: ('A' for Active; 'I' for Inactive)
REMARK    1  A    between atoms: C_9  and  N_10 
REMARK       I    between atoms: N_10  and  C_11 
REMARK    2  A    between atoms: C_11  and  C_12 
REMARK    3  A    between atoms: C_12  and  N_13 
REMARK    4  A    between atoms: C_12  and  C_21 
REMARK       I    between atoms: N_13  and  C_14 
REMARK    5  A    between atoms: C_14  and  C_15 
REMARK    6  A    between atoms: C_21  and  C_22 
ROOT
HETATM    1  C   UNL     1       7.330  25.518  52.264  1.00  0.00     0.181 C 
ENDROOT
BRANCH   1   2
HETATM    2  C   UNL     1       5.904  25.682  51.684  1.00  0.00     0.245 C 
HETATM    3  N   UNL     1       5.791  26.666  50.720  1.00  0.00    -0.325 N 
HETATM    4  H   UNL     1       6.668  27.091  50.414  1.00  0.00     0.169 HD
HETATM    5  O   UNL     1       4.999  24.946  52.075  1.00  0.00    -0.271 OA
BRANCH   3   6
HETATM    6  C   UNL     1       4.629  27.103  50.052  1.00  0.00     0.037 A 
HETATM    7  C   UNL     1       4.091  26.464  48.928  1.00  0.00     0.063 A 
HETATM    8  C   UNL     1       2.923  26.985  48.344  1.00  0.00     0.087 A 
HETATM    9  N   UNL     1       2.219  26.549  47.245  1.00  0.00    -0.234 NA
HETATM   10  C   UNL     1       2.324  28.109  48.897  1.00  0.00     0.062 A 
HETATM   11  C   UNL     1       1.208  27.382  47.115  1.00  0.00     0.101 A 
HETATM   12  C   UNL     1       0.157  27.346  46.072  1.00  0.00     0.091 C 
HETATM   13  N   UNL     1       1.231  28.337  48.101  1.00  0.00    -0.343 N 
HETATM   14  H   UNL     1       0.560  29.082  48.215  1.00  0.00     0.167 HD
HETATM   15  C   UNL     1       2.825  28.768  50.016  1.00  0.00     0.034 A 
HETATM   16  C   UNL     1       3.995  28.239  50.579  1.00  0.00     0.032 A 
ENDBRANCH   3   6
ENDBRANCH   1   2
BRANCH   1  17
HETATM   17  N   UNL     1       7.355  26.010  53.648  1.00  0.00    -0.343 N 
HETATM   18  C   UNL     1       7.285  27.337  54.011  1.00  0.00     0.259 C 
HETATM   19  O   UNL     1       7.211  28.218  53.155  1.00  0.00    -0.267 OA
HETATM   20  H   UNL     1       7.536  25.335  54.382  1.00  0.00     0.163 HD
BRANCH  18  21
HETATM   21  C   UNL     1       7.327  27.618  55.438  1.00  0.00     0.072 A 
HETATM   22  S   UNL     1       6.999  29.175  56.079  1.00  0.00    -0.097 SA
HETATM   23  C   UNL     1       7.260  28.649  57.684  1.00  0.00     0.050 A 
HETATM   24  C   UNL     1       7.590  27.315  57.742  1.00  0.00     0.009 A 
HETATM   25  C   UNL     1       7.629  26.721  56.448  1.00  0.00     0.025 A 
ENDBRANCH  18  21
ENDBRANCH   1  17
BRANCH   1  26
HETATM   26  C   UNL     1       7.910  24.097  52.107  1.00  0.00     0.073 C 
BRANCH  26  27
HETATM   27  C   UNL     1       7.787  23.145  53.282  1.00  0.00    -0.056 A 
HETATM   28  C   UNL     1       7.585  23.556  54.605  1.00  0.00     0.007 A 
HETATM   29  C   UNL     1       7.523  22.618  55.641  1.00  0.00     0.001 A 
HETATM   30  C   UNL     1       7.672  21.260  55.372  1.00  0.00     0.000 A 
HETATM   31  C   UNL     1       7.886  20.836  54.066  1.00  0.00     0.001 A 
HETATM   32  C   UNL     1       7.947  21.770  53.031  1.00  0.00     0.007 A 
ENDBRANCH  26  27
ENDBRANCH   1  26
TORSDOF 6
ENDMDL
MODEL 5
REMARK VINA RESULT:      -9.6      2.388      7.317
REMARK  6 active torsions:
REMARK  status: ('A' for Active; 'I' for Inactive)
REMARK    1  A    between atoms: C_9  and  N_10 
REMARK       I    between atoms: N_10  and  C_11 
REMARK    2  A    between atoms: C_11  and  C_12 
REMARK    3  A    between atoms: C_12  and  N_13 
REMARK    4  A    between atoms: C_12  and  C_21 
REMARK       I    between atoms: N_13  and  C_14 
REMARK    5  A    between atoms: C_14  and  C_15 
REMARK    6  A    between atoms: C_21  and  C_22 
ROOT
HETATM    1  C   UNL     1       7.416  25.596  55.119  1.00  0.00     0.181 C 
ENDROOT
BRANCH   1   2
HETATM    2  C   UNL     1       6.241  25.955  54.178  1.00  0.00     0.245 C 
HETATM    3  N   UNL     1       6.625  26.340  52.908  1.00  0.00    -0.325 N 
HETATM    4  H   UNL     1       7.619  26.236  52.693  1.00  0.00     0.169 HD
HETATM    5  O   UNL     1       5.084  25.856  54.584  1.00  0.00    -0.271 OA
BRANCH   3   6
HETATM    6  C   UNL     1       5.810  26.785  51.848  1.00  0.00     0.037 A 
HETATM    7  C   UNL     1       5.241  25.935  50.893  1.00  0.00     0.063 A 
HETATM    8  C   UNL     1       4.438  26.488  49.879  1.00  0.00     0.087 A 
HETATM    9  N   UNL     1       3.787  25.871  48.837  1.00  0.00    -0.234 NA
HETATM   10  C   UNL     1       4.219  27.859  49.853  1.00  0.00     0.062 A 
HETATM   11  C   UNL     1       3.179  26.833  48.176  1.00  0.00     0.101 A 
HETATM   12  C   UNL     1       2.347  26.686  46.960  1.00  0.00     0.091 C 
HETATM   13  N   UNL     1       3.409  28.052  48.764  1.00  0.00    -0.343 N 
HETATM   14  H   UNL     1       3.048  28.938  48.444  1.00  0.00     0.167 HD
HETATM   15  C   UNL     1       4.763  28.737  50.788  1.00  0.00     0.034 A 
HETATM   16  C   UNL     1       5.566  28.167  51.785  1.00  0.00     0.032 A 
ENDBRANCH   3   6
ENDBRANCH   1   2
BRANCH   1  17
HETATM   17  N   UNL     1       7.637  26.696  56.068  1.00  0.00    -0.343 N 
HETATM   18  C   UNL     1       7.995  27.978  55.715  1.00  0.00     0.259 C 
HETATM   19  O   UNL     1       8.174  28.277  54.534  1.00  0.00    -0.267 OA
HETATM   20  H   UNL     1       7.619  26.473  57.057  1.00  0.00     0.163 HD
BRANCH  18  21
HETATM   21  C   UNL     1       8.166  28.924  56.807  1.00  0.00     0.072 A 
HETATM   22  S   UNL     1       6.836  29.651  57.612  1.00  0.00    -0.097 SA
HETATM   23  C   UNL     1       7.859  30.544  58.650  1.00  0.00     0.050 A 
HETATM   24  C   UNL     1       9.189  30.300  58.398  1.00  0.00     0.009 A 
HETATM   25  C   UNL     1       9.366  29.367  57.336  1.00  0.00     0.025 A 
ENDBRANCH  18  21
ENDBRANCH   1  17
BRANCH   1  26
HETATM   26  C   UNL     1       7.278  24.218  55.799  1.00  0.00     0.073 C 
BRANCH  26  27
HETATM   27  C   UNL     1       7.598  22.984  54.978  1.00  0.00    -0.056 A 
HETATM   28  C   UNL     1       7.749  22.987  53.586  1.00  0.00     0.007 A 
HETATM   29  C   UNL     1       8.005  21.798  52.894  1.00  0.00     0.001 A 
HETATM   30  C   UNL     1       8.104  20.591  53.581  1.00  0.00     0.000 A 
HETATM   31  C   UNL     1       7.944  20.568  54.962  1.00  0.00     0.001 A 
HETATM   32  C   UNL     1       7.690  21.753  55.653  1.00  0.00     0.007 A 
ENDBRANCH  26  27
ENDBRANCH   1  26
TORSDOF 6
ENDMDL
MODEL 6
REMARK VINA RESULT:      -9.2      2.669      5.658
REMARK  6 active torsions:
REMARK  status: ('A' for Active; 'I' for Inactive)
REMARK    1  A    between atoms: C_9  and  N_10 
REMARK       I    between atoms: N_10  and  C_11 
REMARK    2  A    between atoms: C_11  and  C_12 
REMARK    3  A    between atoms: C_12  and  N_13 
REMARK    4  A    between atoms: C_12  and  C_21 
REMARK       I    between atoms: N_13  and  C_14 
REMARK    5  A    between atoms: C_14  and  C_15 
REMARK    6  A    between atoms: C_21  and  C_22 
ROOT
HETATM    1  C   UNL     1       7.280  26.059  54.695  1.00  0.00     0.181 C 
ENDROOT
BRANCH   1   2
HETATM    2  C   UNL     1       7.732  26.764  55.997  1.00  0.00     0.245 C 
HETATM    3  N   UNL     1       8.047  28.100  55.840  1.00  0.00    -0.325 N 
HETATM    4  H   UNL     1       7.839  28.502  54.924  1.00  0.00     0.169 HD
HETATM    5  O   UNL     1       7.758  26.134  57.053  1.00  0.00    -0.271 OA
BRANCH   3   6
HETATM    6  C   UNL     1       8.547  28.997  56.806  1.00  0.00     0.037 A 
HETATM    7  C   UNL     1       7.896  29.286  58.012  1.00  0.00     0.063 A 
HETATM    8  C   UNL     1       8.489  30.194  58.906  1.00  0.00     0.087 A 
HETATM    9  N   UNL     1       8.047  30.641  60.129  1.00  0.00    -0.234 NA
HETATM   10  C   UNL     1       9.708  30.775  58.582  1.00  0.00     0.062 A 
HETATM   11  C   UNL     1       8.965  31.481  60.556  1.00  0.00     0.101 A 
HETATM   12  C   UNL     1       8.951  32.241  61.827  1.00  0.00     0.091 C 
HETATM   13  N   UNL     1       9.993  31.584  59.652  1.00  0.00    -0.343 N 
HETATM   14  H   UNL     1      10.814  32.161  59.755  1.00  0.00     0.167 HD
HETATM   15  C   UNL     1      10.390  30.509  57.397  1.00  0.00     0.034 A 
HETATM   16  C   UNL     1       9.777  29.607  56.515  1.00  0.00     0.032 A 
ENDBRANCH   3   6
ENDBRANCH   1   2
BRANCH   1  17
HETATM   17  N   UNL     1       7.525  24.615  54.809  1.00  0.00    -0.343 N 
HETATM   18  C   UNL     1       7.987  23.813  53.789  1.00  0.00     0.259 C 
HETATM   19  O   UNL     1       8.211  24.285  52.674  1.00  0.00    -0.267 OA
HETATM   20  H   UNL     1       7.243  24.158  55.669  1.00  0.00     0.163 HD
BRANCH  18  21
HETATM   21  C   UNL     1       8.164  22.404  54.105  1.00  0.00     0.072 A 
HETATM   22  S   UNL     1       8.084  21.805  55.711  1.00  0.00    -0.097 SA
HETATM   23  C   UNL     1       8.385  20.201  55.205  1.00  0.00     0.050 A 
HETATM   24  C   UNL     1       8.544  20.112  53.841  1.00  0.00     0.009 A 
HETATM   25  C   UNL     1       8.416  21.382  53.208  1.00  0.00     0.025 A 
ENDBRANCH  18  21
ENDBRANCH   1  17
BRANCH   1  26
HETATM   26  C   UNL     1       5.839  26.404  54.263  1.00  0.00     0.073 C 
BRANCH  26  27
HETATM   27  C   UNL     1       5.627  26.941  52.861  1.00  0.00    -0.056 A 
HETATM   28  C   UNL     1       5.707  28.297  52.520  1.00  0.00     0.007 A 
HETATM   29  C   UNL     1       5.458  28.719  51.210  1.00  0.00     0.001 A 
HETATM   30  C   UNL     1       5.115  27.797  50.225  1.00  0.00     0.000 A 
HETATM   31  C   UNL     1       5.017  26.448  50.548  1.00  0.00     0.001 A 
HETATM   32  C   UNL     1       5.267  26.025  51.855  1.00  0.00     0.007 A 
ENDBRANCH  26  27
ENDBRANCH   1  26
TORSDOF 6
ENDMDL
MODEL 7
REMARK VINA RESULT:      -8.9      2.159      2.923
REMARK  6 active torsions:
REMARK  status: ('A' for Active; 'I' for Inactive)
REMARK    1  A    between atoms: C_9  and  N_10 
REMARK       I    between atoms: N_10  and  C_11 
REMARK    2  A    between atoms: C_11  and  C_12 
REMARK    3  A    between atoms: C_12  and  N_13 
REMARK    4  A    between atoms: C_12  and  C_21 
REMARK       I    between atoms: N_13  and  C_14 
REMARK    5  A    between atoms: C_14  and  C_15 
REMARK    6  A    between atoms: C_21  and  C_22 
ROOT
HETATM    1  C   UNL     1       6.596  27.391  53.718  1.00  0.00     0.181 C 
ENDROOT
BRANCH   1   2
HETATM    2  C   UNL     1       6.798  27.923  55.158  1.00  0.00     0.245 C 
HETATM    3  N   UNL     1       7.785  28.882  55.277  1.00  0.00    -0.325 N 
HETATM    4  H   UNL     1       8.189  29.217  54.401  1.00  0.00     0.169 HD
HETATM    5  O   UNL     1       6.084  27.502  56.068  1.00  0.00    -0.271 OA
BRANCH   3   6
HETATM    6  C   UNL     1       8.252  29.511  56.450  1.00  0.00     0.037 A 
HETATM    7  C   UNL     1       7.412  30.038  57.438  1.00  0.00     0.063 A 
HETATM    8  C   UNL     1       7.988  30.641  58.570  1.00  0.00     0.087 A 
HETATM    9  N   UNL     1       7.384  31.231  59.656  1.00  0.00    -0.234 NA
HETATM   10  C   UNL     1       9.371  30.690  58.691  1.00  0.00     0.062 A 
HETATM   11  C   UNL     1       8.365  31.641  60.432  1.00  0.00     0.101 A 
HETATM   12  C   UNL     1       8.236  32.349  61.726  1.00  0.00     0.091 C 
HETATM   13  N   UNL     1       9.584  31.324  59.887  1.00  0.00    -0.343 N 
HETATM   14  H   UNL     1      10.483  31.530  60.296  1.00  0.00     0.167 HD
HETATM   15  C   UNL     1      10.239  30.171  57.733  1.00  0.00     0.034 A 
HETATM   16  C   UNL     1       9.646  29.583  56.608  1.00  0.00     0.032 A 
ENDBRANCH   3   6
ENDBRANCH   1   2
BRANCH   1  17
HETATM   17  N   UNL     1       6.324  28.517  52.814  1.00  0.00    -0.343 N 
HETATM   18  C   UNL     1       5.365  28.516  51.826  1.00  0.00     0.259 C 
HETATM   19  O   UNL     1       4.667  27.522  51.630  1.00  0.00    -0.267 OA
HETATM   20  H   UNL     1       6.950  29.313  52.855  1.00  0.00     0.163 HD
BRANCH  18  21
HETATM   21  C   UNL     1       5.253  29.733  51.035  1.00  0.00     0.072 A 
HETATM   22  S   UNL     1       4.311  31.075  51.540  1.00  0.00    -0.097 SA
HETATM   23  C   UNL     1       4.704  31.971  50.139  1.00  0.00     0.050 A 
HETATM   24  C   UNL     1       5.537  31.271  49.296  1.00  0.00     0.009 A 
HETATM   25  C   UNL     1       5.853  29.982  49.813  1.00  0.00     0.025 A 
ENDBRANCH  18  21
ENDBRANCH   1  17
BRANCH   1  26
HETATM   26  C   UNL     1       7.731  26.470  53.225  1.00  0.00     0.073 C 
BRANCH  26  27
HETATM   27  C   UNL     1       7.676  25.004  53.610  1.00  0.00    -0.056 A 
HETATM   28  C   UNL     1       7.524  24.544  54.924  1.00  0.00     0.007 A 
HETATM   29  C   UNL     1       7.522  23.173  55.203  1.00  0.00     0.001 A 
HETATM   30  C   UNL     1       7.682  22.245  54.179  1.00  0.00     0.000 A 
HETATM   31  C   UNL     1       7.847  22.684  52.870  1.00  0.00     0.001 A 
HETATM   32  C   UNL     1       7.848  24.051  52.589  1.00  0.00     0.007 A 
ENDBRANCH  26  27
ENDBRANCH   1  26
TORSDOF 6
ENDMDL
MODEL 8
REMARK VINA RESULT:      -8.7      2.719      6.318
REMARK  6 active torsions:
REMARK  status: ('A' for Active; 'I' for Inactive)
REMARK    1  A    between atoms: C_9  and  N_10 
REMARK       I    between atoms: N_10  and  C_11 
REMARK    2  A    between atoms: C_11  and  C_12 
REMARK    3  A    between atoms: C_12  and  N_13 
REMARK    4  A    between atoms: C_12  and  C_21 
REMARK       I    between atoms: N_13  and  C_14 
REMARK    5  A    between atoms: C_14  and  C_15 
REMARK    6  A    between atoms: C_21  and  C_22 
ROOT
HETATM    1  C   UNL     1       4.608  28.516  52.400  1.00  0.00     0.181 C 
ENDROOT
BRANCH   1   2
HETATM    2  C   UNL     1       5.787  27.606  52.825  1.00  0.00     0.245 C 
HETATM    3  N   UNL     1       5.495  26.256  52.815  1.00  0.00    -0.325 N 
HETATM    4  H   UNL     1       4.588  25.999  52.424  1.00  0.00     0.169 HD
HETATM    5  O   UNL     1       6.873  28.110  53.108  1.00  0.00    -0.271 OA
BRANCH   3   6
HETATM    6  C   UNL     1       6.322  25.183  53.207  1.00  0.00     0.037 A 
HETATM    7  C   UNL     1       6.264  24.575  54.466  1.00  0.00     0.063 A 
HETATM    8  C   UNL     1       7.134  23.507  54.748  1.00  0.00     0.087 A 
HETATM    9  N   UNL     1       7.274  22.765  55.898  1.00  0.00    -0.234 NA
HETATM   10  C   UNL     1       8.021  23.072  53.772  1.00  0.00     0.062 A 
HETATM   11  C   UNL     1       8.225  21.891  55.646  1.00  0.00     0.101 A 
HETATM   12  C   UNL     1       8.755  20.865  56.573  1.00  0.00     0.091 C 
HETATM   13  N   UNL     1       8.699  22.038  54.366  1.00  0.00    -0.343 N 
HETATM   14  H   UNL     1       9.425  21.484  53.939  1.00  0.00     0.167 HD
HETATM   15  C   UNL     1       8.105  23.646  52.506  1.00  0.00     0.034 A 
HETATM   16  C   UNL     1       7.235  24.715  52.248  1.00  0.00     0.032 A 
ENDBRANCH   3   6
ENDBRANCH   1   2
BRANCH   1  17
HETATM   17  N   UNL     1       3.929  27.926  51.238  1.00  0.00    -0.343 N 
HETATM   18  C   UNL     1       4.369  28.027  49.937  1.00  0.00     0.259 C 
HETATM   19  O   UNL     1       5.391  28.658  49.668  1.00  0.00    -0.267 OA
HETATM   20  H   UNL     1       3.023  27.499  51.391  1.00  0.00     0.163 HD
BRANCH  18  21
HETATM   21  C   UNL     1       3.551  27.371  48.927  1.00  0.00     0.072 A 
HETATM   22  S   UNL     1       1.947  27.869  48.579  1.00  0.00    -0.097 SA
HETATM   23  C   UNL     1       1.754  26.659  47.387  1.00  0.00     0.050 A 
HETATM   24  C   UNL     1       2.884  25.887  47.248  1.00  0.00     0.009 A 
HETATM   25  C   UNL     1       3.919  26.298  48.136  1.00  0.00     0.025 A 
ENDBRANCH  18  21
ENDBRANCH   1  17
BRANCH   1  26
HETATM   26  C   UNL     1       3.648  28.877  53.553  1.00  0.00     0.073 C 
BRANCH  26  27
HETATM   27  C   UNL     1       4.254  29.274  54.885  1.00  0.00    -0.056 A 
HETATM   28  C   UNL     1       4.419  28.396  55.964  1.00  0.00     0.007 A 
HETATM   29  C   UNL     1       4.949  28.848  57.176  1.00  0.00     0.001 A 
HETATM   30  C   UNL     1       5.314  30.183  57.332  1.00  0.00     0.000 A 
HETATM   31  C   UNL     1       5.146  31.071  56.276  1.00  0.00     0.001 A 
HETATM   32  C   UNL     1       4.617  30.622  55.065  1.00  0.00     0.007 A 
ENDBRANCH  26  27
ENDBRANCH   1  26
TORSDOF 6
ENDMDL
MODEL 9
REMARK VINA RESULT:      -8.7      2.292      5.722
REMARK  6 active torsions:
REMARK  status: ('A' for Active; 'I' for Inactive)
REMARK    1  A    between atoms: C_9  and  N_10 
REMARK       I    between atoms: N_10  and  C_11 
REMARK    2  A    between atoms: C_11  and  C_12 
REMARK    3  A    between atoms: C_12  and  N_13 
REMARK    4  A    between atoms: C_12  and  C_21 
REMARK       I    between atoms: N_13  and  C_14 
REMARK    5  A    between atoms: C_14  and  C_15 
REMARK    6  A    between atoms: C_21  and  C_22 
ROOT
HETATM    1  C   UNL     1       6.182  25.564  52.771  1.00  0.00     0.181 C 
ENDROOT
BRANCH   1   2
HETATM    2  C   UNL     1       5.941  26.284  54.119  1.00  0.00     0.245 C 
HETATM    3  N   UNL     1       6.806  27.331  54.368  1.00  0.00    -0.325 N 
HETATM    4  H   UNL     1       7.426  27.589  53.599  1.00  0.00     0.169 HD
HETATM    5  O   UNL     1       5.019  25.919  54.848  1.00  0.00    -0.271 OA
BRANCH   3   6
HETATM    6  C   UNL     1       6.891  28.138  55.522  1.00  0.00     0.037 A 
HETATM    7  C   UNL     1       6.141  29.305  55.713  1.00  0.00     0.063 A 
HETATM    8  C   UNL     1       6.302  30.030  56.906  1.00  0.00     0.087 A 
HETATM    9  N   UNL     1       5.697  31.195  57.317  1.00  0.00    -0.234 NA
HETATM   10  C   UNL     1       7.188  29.570  57.872  1.00  0.00     0.062 A 
HETATM   11  C   UNL     1       6.194  31.456  58.507  1.00  0.00     0.101 A 
HETATM   12  C   UNL     1       5.866  32.614  59.371  1.00  0.00     0.091 C 
HETATM   13  N   UNL     1       7.095  30.491  58.883  1.00  0.00    -0.343 N 
HETATM   14  H   UNL     1       7.605  30.469  59.753  1.00  0.00     0.167 HD
HETATM   15  C   UNL     1       7.946  28.411  57.723  1.00  0.00     0.034 A 
HETATM   16  C   UNL     1       7.778  27.708  56.522  1.00  0.00     0.032 A 
ENDBRANCH   3   6
ENDBRANCH   1   2
BRANCH   1  17
HETATM   17  N   UNL     1       6.638  24.190  53.024  1.00  0.00    -0.343 N 
HETATM   18  C   UNL     1       7.679  23.850  53.860  1.00  0.00     0.259 C 
HETATM   19  O   UNL     1       8.319  24.719  54.451  1.00  0.00    -0.267 OA
HETATM   20  H   UNL     1       6.224  23.449  52.471  1.00  0.00     0.163 HD
BRANCH  18  21
HETATM   21  C   UNL     1       7.976  22.430  53.975  1.00  0.00     0.072 A 
HETATM   22  S   UNL     1       8.192  21.655  55.490  1.00  0.00    -0.097 SA
HETATM   23  C   UNL     1       8.486  20.140  54.755  1.00  0.00     0.050 A 
HETATM   24  C   UNL     1       8.421  20.212  53.383  1.00  0.00     0.009 A 
HETATM   25  C   UNL     1       8.127  21.531  52.933  1.00  0.00     0.025 A 
ENDBRANCH  18  21
ENDBRANCH   1  17
BRANCH   1  26
HETATM   26  C   UNL     1       4.990  25.644  51.795  1.00  0.00     0.073 C 
BRANCH  26  27
HETATM   27  C   UNL     1       5.059  26.658  50.669  1.00  0.00    -0.056 A 
HETATM   28  C   UNL     1       5.461  27.989  50.836  1.00  0.00     0.007 A 
HETATM   29  C   UNL     1       5.459  28.875  49.755  1.00  0.00     0.001 A 
HETATM   30  C   UNL     1       5.048  28.449  48.495  1.00  0.00     0.000 A 
HETATM   31  C   UNL     1       4.634  27.135  48.313  1.00  0.00     0.001 A 
HETATM   32  C   UNL     1       4.636  26.248  49.391  1.00  0.00     0.007 A 
ENDBRANCH  26  27
ENDBRANCH   1  26
TORSDOF 6
ENDMDL
MODEL 10
REMARK VINA RESULT:      -8.6      2.792      3.643
REMARK  6 active torsions:
REMARK  status: ('A' for Active; 'I' for Inactive)
REMARK    1  A    between atoms: C_9  and  N_10 
REMARK       I    between atoms: N_10  and  C_11 
REMARK    2  A    between atoms: C_11  and  C_12 
REMARK    3  A    between atoms: C_12  and  N_13 
REMARK    4  A    between atoms: C_12  and  C_21 
REMARK       I    between atoms: N_13  and  C_14 
REMARK    5  A    between atoms: C_14  and  C_15 
REMARK    6  A    between atoms: C_21  and  C_22 
ROOT
HETATM    1  C   UNL     1       5.415  25.528  52.441  1.00  0.00     0.181 C 
ENDROOT
BRANCH   1   2
HETATM    2  C   UNL     1       5.471  26.888  53.177  1.00  0.00     0.245 C 
HETATM    3  N   UNL     1       4.244  27.348  53.617  1.00  0.00    -0.325 N 
HETATM    4  H   UNL     1       3.463  26.698  53.515  1.00  0.00     0.169 HD
HETATM    5  O   UNL     1       6.555  27.445  53.347  1.00  0.00    -0.271 OA
BRANCH   3   6
HETATM    6  C   UNL     1       3.949  28.569  54.257  1.00  0.00     0.037 A 
HETATM    7  C   UNL     1       3.523  29.719  53.582  1.00  0.00     0.063 A 
HETATM    8  C   UNL     1       3.251  30.882  54.323  1.00  0.00     0.087 A 
HETATM    9  N   UNL     1       2.837  32.122  53.895  1.00  0.00    -0.234 NA
HETATM   10  C   UNL     1       3.399  30.864  55.704  1.00  0.00     0.062 A 
HETATM   11  C   UNL     1       2.731  32.858  54.980  1.00  0.00     0.101 A 
HETATM   12  C   UNL     1       2.323  34.280  55.052  1.00  0.00     0.091 C 
HETATM   13  N   UNL     1       3.055  32.131  56.099  1.00  0.00    -0.343 N 
HETATM   14  H   UNL     1       3.047  32.473  57.048  1.00  0.00     0.167 HD
HETATM   15  C   UNL     1       3.814  29.739  56.412  1.00  0.00     0.034 A 
HETATM   16  C   UNL     1       4.088  28.592  55.654  1.00  0.00     0.032 A 
ENDBRANCH   3   6
ENDBRANCH   1   2
BRANCH   1  17
HETATM   17  N   UNL     1       4.612  25.666  51.218  1.00  0.00    -0.343 N 
HETATM   18  C   UNL     1       4.841  26.597  50.229  1.00  0.00     0.259 C 
HETATM   19  O   UNL     1       5.762  27.408  50.332  1.00  0.00    -0.267 OA
HETATM   20  H   UNL     1       3.773  25.103  51.141  1.00  0.00     0.163 HD
BRANCH  18  21
HETATM   21  C   UNL     1       3.930  26.571  49.095  1.00  0.00     0.072 A 
HETATM   22  S   UNL     1       2.971  27.924  48.654  1.00  0.00    -0.097 SA
HETATM   23  C   UNL     1       2.263  27.086  47.343  1.00  0.00     0.050 A 
HETATM   24  C   UNL     1       2.742  25.801  47.234  1.00  0.00     0.009 A 
HETATM   25  C   UNL     1       3.702  25.504  48.243  1.00  0.00     0.025 A 
ENDBRANCH  18  21
ENDBRANCH   1  17
BRANCH   1  26
HETATM   26  C   UNL     1       6.799  24.890  52.197  1.00  0.00     0.073 C 
BRANCH  26  27
HETATM   27  C   UNL     1       7.267  23.816  53.159  1.00  0.00    -0.056 A 
HETATM   28  C   UNL     1       7.949  22.657  52.769  1.00  0.00     0.007 A 
HETATM   29  C   UNL     1       8.313  21.692  53.714  1.00  0.00     0.001 A 
HETATM   30  C   UNL     1       7.992  21.864  55.058  1.00  0.00     0.000 A 
HETATM   31  C   UNL     1       7.303  23.003  55.461  1.00  0.00     0.001 A 
HETATM   32  C   UNL     1       6.940  23.968  54.520  1.00  0.00     0.007 A 
ENDBRANCH  26  27
ENDBRANCH   1  26
TORSDOF 6
ENDMDL
