MODEL 1
REMARK VINA RESULT:      -8.6      0.000      0.000
REMARK  4 active torsions:
REMARK  status: ('A' for Active; 'I' for Inactive)
REMARK    1  A    between atoms: C_2  and  C_3 
REMARK    2  A    between atoms: C_3  and  N_4 
REMARK    3  A    between atoms: C_3  and  C_17 
REMARK       I    between atoms: N_4  and  C_5 
REMARK    4  A    between atoms: C_5  and  C_6 
ROOT
HETATM    1  N   UNL     1       7.141  27.726  56.717  1.00  0.00    -0.345 N 
HETATM    2  C   UNL     1       7.525  26.429  57.004  1.00  0.00     0.252 C 
HETATM    3  O   UNL     1       7.697  26.043  58.156  1.00  0.00    -0.268 OA
HETATM    4  H   UNL     1       6.797  27.894  55.778  1.00  0.00     0.163 HD
ENDROOT
BRANCH   1   5
HETATM    5  C   UNL     1       6.665  28.616  57.780  1.00  0.00     0.152 C 
BRANCH   5   6
HETATM    6  C   UNL     1       5.431  29.409  57.335  1.00  0.00     0.028 C 
HETATM    7  C   UNL     1       4.625  28.700  56.255  1.00  0.00     0.007 C 
ENDBRANCH   5   6
BRANCH   5   8
HETATM    8  C   UNL     1       7.807  29.502  58.296  1.00  0.00     0.104 A 
HETATM    9  N   UNL     1       7.893  30.171  59.460  1.00  0.00    -0.347 N 
HETATM   10  H   UNL     1       7.164  30.181  60.169  1.00  0.00     0.167 HD
HETATM   11  C   UNL     1       9.104  30.847  59.571  1.00  0.00     0.022 A 
HETATM   12  C   UNL     1       9.476  31.652  60.745  1.00  0.00     0.069 C 
HETATM   13  C   UNL     1       9.772  30.580  58.401  1.00  0.00     0.114 A 
HETATM   14  N   UNL     1       8.958  29.770  57.659  1.00  0.00    -0.352 N 
HETATM   15  H   UNL     1       9.121  29.422  56.703  1.00  0.00     0.166 HD
ENDBRANCH   5   8
ENDBRANCH   1   5
BRANCH   2  16
HETATM   16  C   UNL     1       7.674  25.506  55.846  1.00  0.00     0.033 A 
HETATM   17  C   UNL     1       7.996  24.163  56.117  1.00  0.00     0.031 A 
HETATM   18  C   UNL     1       8.078  23.259  55.043  1.00  0.00     0.001 A 
HETATM   19  C   UNL     1       7.859  23.734  53.757  1.00  0.00     0.086 A 
HETATM   20  C   UNL     1       8.334  21.869  54.901  1.00  0.00     0.046 A 
HETATM   21  O   UNL     1       7.959  22.723  52.854  1.00  0.00    -0.315 OA
HETATM   22  C   UNL     1       7.575  25.062  53.448  1.00  0.00     0.039 A 
HETATM   23  C   UNL     1       8.241  21.587  53.553  1.00  0.00     0.050 A 
HETATM   24  C   UNL     1       8.374  20.344  52.768  1.00  0.00     0.077 C 
HETATM   25  C   UNL     1       7.487  25.950  54.527  1.00  0.00     0.020 A 
ENDBRANCH   2  16
TORSDOF 4
ENDMDL
MODEL 2
REMARK VINA RESULT:      -8.3      1.649      2.856
REMARK  4 active torsions:
REMARK  status: ('A' for Active; 'I' for Inactive)
REMARK    1  A    between atoms: C_2  and  C_3 
REMARK    2  A    between atoms: C_3  and  N_4 
REMARK    3  A    between atoms: C_3  and  C_17 
REMARK       I    between atoms: N_4  and  C_5 
REMARK    4  A    between atoms: C_5  and  C_6 
ROOT
HETATM    1  N   UNL     1       8.579  28.637  57.587  1.00  0.00    -0.345 N 
HETATM    2  C   UNL     1       7.683  28.077  56.694  1.00  0.00     0.252 C 
HETATM    3  O   UNL     1       6.833  28.750  56.119  1.00  0.00    -0.268 OA
HETATM    4  H   UNL     1       9.382  28.069  57.831  1.00  0.00     0.163 HD
ENDROOT
BRANCH   1   5
HETATM    5  C   UNL     1       8.725  30.092  57.682  1.00  0.00     0.152 C 
BRANCH   5   6
HETATM    6  C   UNL     1      10.162  30.530  57.377  1.00  0.00     0.028 C 
HETATM    7  C   UNL     1      11.039  29.390  56.877  1.00  0.00     0.007 C 
ENDBRANCH   5   6
BRANCH   5   8
HETATM    8  C   UNL     1       8.206  30.601  59.034  1.00  0.00     0.104 A 
HETATM    9  N   UNL     1       8.796  30.535  60.240  1.00  0.00    -0.347 N 
HETATM   10  H   UNL     1       9.700  30.103  60.412  1.00  0.00     0.167 HD
HETATM   11  C   UNL     1       8.013  31.132  61.224  1.00  0.00     0.022 A 
HETATM   12  C   UNL     1       8.417  31.218  62.637  1.00  0.00     0.069 C 
HETATM   13  C   UNL     1       6.886  31.564  60.571  1.00  0.00     0.114 A 
HETATM   14  N   UNL     1       7.038  31.223  59.256  1.00  0.00    -0.352 N 
HETATM   15  H   UNL     1       6.357  31.347  58.492  1.00  0.00     0.166 HD
ENDBRANCH   5   8
ENDBRANCH   1   5
BRANCH   2  16
HETATM   16  C   UNL     1       7.831  26.620  56.426  1.00  0.00     0.033 A 
HETATM   17  C   UNL     1       7.426  26.142  55.166  1.00  0.00     0.031 A 
HETATM   18  C   UNL     1       7.618  24.781  54.867  1.00  0.00     0.001 A 
HETATM   19  C   UNL     1       8.178  23.961  55.838  1.00  0.00     0.086 A 
HETATM   20  C   UNL     1       7.385  23.945  53.744  1.00  0.00     0.046 A 
HETATM   21  O   UNL     1       8.305  22.691  55.369  1.00  0.00    -0.315 OA
HETATM   22  C   UNL     1       8.557  24.392  57.107  1.00  0.00     0.039 A 
HETATM   23  C   UNL     1       7.828  22.685  54.093  1.00  0.00     0.050 A 
HETATM   24  C   UNL     1       7.888  21.397  53.371  1.00  0.00     0.077 C 
HETATM   25  C   UNL     1       8.369  25.751  57.388  1.00  0.00     0.020 A 
ENDBRANCH   2  16
TORSDOF 4
ENDMDL
MODEL 3
REMARK VINA RESULT:      -8.3      2.043      3.309
REMARK  4 active torsions:
REMARK  status: ('A' for Active; 'I' for Inactive)
REMARK    1  A    between atoms: C_2  and  C_3 
REMARK    2  A    between atoms: C_3  and  N_4 
REMARK    3  A    between atoms: C_3  and  C_17 
REMARK       I    between atoms: N_4  and  C_5 
REMARK    4  A    between atoms: C_5  and  C_6 
ROOT
HETATM    1  N   UNL     1       8.223  29.047  58.311  1.00  0.00    -0.345 N 
HETATM    2  C   UNL     1       7.036  28.676  57.706  1.00  0.00     0.252 C 
HETATM    3  O   UNL     1       6.090  29.450  57.603  1.00  0.00    -0.268 OA
HETATM    4  H   UNL     1       9.019  28.442  58.147  1.00  0.00     0.163 HD
ENDROOT
BRANCH   1   5
HETATM    5  C   UNL     1       8.496  30.455  58.613  1.00  0.00     0.152 C 
BRANCH   5   6
HETATM    6  C   UNL     1       9.905  30.861  58.162  1.00  0.00     0.028 C 
HETATM    7  C   UNL     1      10.536  29.858  57.205  1.00  0.00     0.007 C 
ENDBRANCH   5   6
BRANCH   5   8
HETATM    8  C   UNL     1       8.219  30.755  60.093  1.00  0.00     0.104 A 
HETATM    9  N   UNL     1       7.187  31.426  60.635  1.00  0.00    -0.347 N 
HETATM   10  H   UNL     1       6.435  31.850  60.099  1.00  0.00     0.167 HD
HETATM   11  C   UNL     1       7.279  31.466  62.024  1.00  0.00     0.022 A 
HETATM   12  C   UNL     1       6.281  32.124  62.881  1.00  0.00     0.069 C 
HETATM   13  C   UNL     1       8.439  30.797  62.325  1.00  0.00     0.114 A 
HETATM   14  N   UNL     1       8.978  30.387  61.137  1.00  0.00    -0.352 N 
HETATM   15  H   UNL     1       9.876  29.904  60.987  1.00  0.00     0.166 HD
ENDBRANCH   5   8
ENDBRANCH   1   5
BRANCH   2  16
HETATM   16  C   UNL     1       6.979  27.299  57.141  1.00  0.00     0.033 A 
HETATM   17  C   UNL     1       8.084  26.456  57.362  1.00  0.00     0.031 A 
HETATM   18  C   UNL     1       8.024  25.130  56.895  1.00  0.00     0.001 A 
HETATM   19  C   UNL     1       6.886  24.716  56.215  1.00  0.00     0.086 A 
HETATM   20  C   UNL     1       8.878  23.997  56.941  1.00  0.00     0.046 A 
HETATM   21  O   UNL     1       6.997  23.409  55.857  1.00  0.00    -0.315 OA
HETATM   22  C   UNL     1       5.791  25.534  55.947  1.00  0.00     0.039 A 
HETATM   23  C   UNL     1       8.206  22.972  56.307  1.00  0.00     0.050 A 
HETATM   24  C   UNL     1       8.535  21.555  56.045  1.00  0.00     0.077 C 
HETATM   25  C   UNL     1       5.859  26.848  56.426  1.00  0.00     0.020 A 
ENDBRANCH   2  16
TORSDOF 4
ENDMDL
MODEL 4
REMARK VINA RESULT:      -8.1      1.863      3.153
REMARK  4 active torsions:
REMARK  status: ('A' for Active; 'I' for Inactive)
REMARK    1  A    between atoms: C_2  and  C_3 
REMARK    2  A    between atoms: C_3  and  N_4 
REMARK    3  A    between atoms: C_3  and  C_17 
REMARK       I    between atoms: N_4  and  C_5 
REMARK    4  A    between atoms: C_5  and  C_6 
ROOT
HETATM    1  N   UNL     1       7.692  27.899  56.515  1.00  0.00    -0.345 N 
HETATM    2  C   UNL     1       7.307  27.326  55.316  1.00  0.00     0.252 C 
HETATM    3  O   UNL     1       6.938  28.003  54.362  1.00  0.00    -0.268 OA
HETATM    4  H   UNL     1       8.199  27.299  57.156  1.00  0.00     0.163 HD
ENDROOT
BRANCH   1   5
HETATM    5  C   UNL     1       7.931  29.342  56.608  1.00  0.00     0.152 C 
BRANCH   5   6
HETATM    6  C   UNL     1       9.003  29.664  57.656  1.00  0.00     0.028 C 
HETATM    7  C   UNL     1      10.357  29.996  57.041  1.00  0.00     0.007 C 
ENDBRANCH   5   6
BRANCH   5   8
HETATM    8  C   UNL     1       6.612  30.095  56.832  1.00  0.00     0.104 A 
HETATM    9  N   UNL     1       5.984  30.363  57.990  1.00  0.00    -0.347 N 
HETATM   10  H   UNL     1       6.318  30.070  58.904  1.00  0.00     0.167 HD
HETATM   11  C   UNL     1       4.817  31.092  57.779  1.00  0.00     0.022 A 
HETATM   12  C   UNL     1       3.933  31.537  58.868  1.00  0.00     0.069 C 
HETATM   13  C   UNL     1       4.737  31.254  56.418  1.00  0.00     0.114 A 
HETATM   14  N   UNL     1       5.834  30.637  55.883  1.00  0.00    -0.352 N 
HETATM   15  H   UNL     1       6.063  30.518  54.885  1.00  0.00     0.166 HD
ENDBRANCH   5   8
ENDBRANCH   1   5
BRANCH   2  16
HETATM   16  C   UNL     1       7.408  25.843  55.223  1.00  0.00     0.033 A 
HETATM   17  C   UNL     1       7.552  25.276  53.943  1.00  0.00     0.031 A 
HETATM   18  C   UNL     1       7.715  23.883  53.837  1.00  0.00     0.001 A 
HETATM   19  C   UNL     1       7.704  23.123  54.999  1.00  0.00     0.086 A 
HETATM   20  C   UNL     1       7.916  22.962  52.775  1.00  0.00     0.046 A 
HETATM   21  O   UNL     1       7.893  21.809  54.706  1.00  0.00    -0.315 OA
HETATM   22  C   UNL     1       7.528  23.646  56.277  1.00  0.00     0.039 A 
HETATM   23  C   UNL     1       8.029  21.714  53.354  1.00  0.00     0.050 A 
HETATM   24  C   UNL     1       8.268  20.363  52.807  1.00  0.00     0.077 C 
HETATM   25  C   UNL     1       7.376  25.034  56.370  1.00  0.00     0.020 A 
ENDBRANCH   2  16
TORSDOF 4
ENDMDL
MODEL 5
REMARK VINA RESULT:      -8.1      4.386      7.084
REMARK  4 active torsions:
REMARK  status: ('A' for Active; 'I' for Inactive)
REMARK    1  A    between atoms: C_2  and  C_3 
REMARK    2  A    between atoms: C_3  and  N_4 
REMARK    3  A    between atoms: C_3  and  C_17 
REMARK       I    between atoms: N_4  and  C_5 
REMARK    4  A    between atoms: C_5  and  C_6 
ROOT
HETATM    1  N   UNL     1       5.892  26.531  52.172  1.00  0.00    -0.345 N 
HETATM    2  C   UNL     1       6.768  26.804  53.207  1.00  0.00     0.252 C 
HETATM    3  O   UNL     1       7.220  27.929  53.395  1.00  0.00    -0.268 OA
HETATM    4  H   UNL     1       5.391  25.651  52.229  1.00  0.00     0.163 HD
ENDROOT
BRANCH   1   5
HETATM    5  C   UNL     1       5.259  27.621  51.424  1.00  0.00     0.152 C 
BRANCH   5   6
HETATM    6  C   UNL     1       4.078  28.219  52.198  1.00  0.00     0.028 C 
HETATM    7  C   UNL     1       3.349  29.309  51.425  1.00  0.00     0.007 C 
ENDBRANCH   5   6
BRANCH   5   8
HETATM    8  C   UNL     1       4.891  27.163  50.006  1.00  0.00     0.104 A 
HETATM    9  N   UNL     1       4.009  26.219  49.631  1.00  0.00    -0.347 N 
HETATM   10  H   UNL     1       3.462  25.657  50.278  1.00  0.00     0.167 HD
HETATM   11  C   UNL     1       3.939  26.110  48.245  1.00  0.00     0.022 A 
HETATM   12  C   UNL     1       3.048  25.166  47.552  1.00  0.00     0.069 C 
HETATM   13  C   UNL     1       4.842  27.028  47.768  1.00  0.00     0.114 A 
HETATM   14  N   UNL     1       5.396  27.639  48.858  1.00  0.00    -0.352 N 
HETATM   15  H   UNL     1       6.151  28.341  48.869  1.00  0.00     0.166 HD
ENDBRANCH   5   8
ENDBRANCH   1   5
BRANCH   2  16
HETATM   16  C   UNL     1       7.101  25.671  54.114  1.00  0.00     0.033 A 
HETATM   17  C   UNL     1       7.168  24.382  53.553  1.00  0.00     0.031 A 
HETATM   18  C   UNL     1       7.546  23.307  54.377  1.00  0.00     0.001 A 
HETATM   19  C   UNL     1       7.815  23.559  55.716  1.00  0.00     0.086 A 
HETATM   20  C   UNL     1       7.757  21.914  54.197  1.00  0.00     0.046 A 
HETATM   21  O   UNL     1       8.180  22.413  56.350  1.00  0.00    -0.315 OA
HETATM   22  C   UNL     1       7.723  24.814  56.312  1.00  0.00     0.039 A 
HETATM   23  C   UNL     1       8.151  21.415  55.422  1.00  0.00     0.050 A 
HETATM   24  C   UNL     1       8.538  20.068  55.889  1.00  0.00     0.077 C 
HETATM   25  C   UNL     1       7.355  25.877  55.479  1.00  0.00     0.020 A 
ENDBRANCH   2  16
TORSDOF 4
ENDMDL
MODEL 6
REMARK VINA RESULT:      -8.1      2.568      7.979
REMARK  4 active torsions:
REMARK  status: ('A' for Active; 'I' for Inactive)
REMARK    1  A    between atoms: C_2  and  C_3 
REMARK    2  A    between atoms: C_3  and  N_4 
REMARK    3  A    between atoms: C_3  and  C_17 
REMARK       I    between atoms: N_4  and  C_5 
REMARK    4  A    between atoms: C_5  and  C_6 
ROOT
HETATM    1  N   UNL     1       7.239  25.991  55.002  1.00  0.00    -0.345 N 
HETATM    2  C   UNL     1       7.530  27.326  54.781  1.00  0.00     0.252 C 
HETATM    3  O   UNL     1       7.741  27.767  53.656  1.00  0.00    -0.268 OA
HETATM    4  H   UNL     1       6.852  25.761  55.910  1.00  0.00     0.163 HD
ENDROOT
BRANCH   1   5
HETATM    5  C   UNL     1       6.909  25.106  53.882  1.00  0.00     0.152 C 
BRANCH   5   6
HETATM    6  C   UNL     1       5.392  24.931  53.736  1.00  0.00     0.028 C 
HETATM    7  C   UNL     1       4.932  24.902  52.284  1.00  0.00     0.007 C 
ENDBRANCH   5   6
BRANCH   5   8
HETATM    8  C   UNL     1       7.668  23.777  54.000  1.00  0.00     0.104 A 
HETATM    9  N   UNL     1       7.572  22.682  53.225  1.00  0.00    -0.347 N 
HETATM   10  H   UNL     1       6.940  22.595  52.433  1.00  0.00     0.167 HD
HETATM   11  C   UNL     1       8.448  21.684  53.643  1.00  0.00     0.022 A 
HETATM   12  C   UNL     1       8.567  20.380  52.971  1.00  0.00     0.069 C 
HETATM   13  C   UNL     1       9.089  22.206  54.739  1.00  0.00     0.114 A 
HETATM   14  N   UNL     1       8.590  23.466  54.924  1.00  0.00    -0.352 N 
HETATM   15  H   UNL     1       8.809  24.122  55.688  1.00  0.00     0.166 HD
ENDBRANCH   5   8
ENDBRANCH   1   5
BRANCH   2  16
HETATM   16  C   UNL     1       7.527  28.215  55.975  1.00  0.00     0.033 A 
HETATM   17  C   UNL     1       8.766  28.703  56.429  1.00  0.00     0.031 A 
HETATM   18  C   UNL     1       8.782  29.597  57.515  1.00  0.00     0.001 A 
HETATM   19  C   UNL     1       7.575  29.942  58.109  1.00  0.00     0.086 A 
HETATM   20  C   UNL     1       9.780  30.315  58.226  1.00  0.00     0.046 A 
HETATM   21  O   UNL     1       7.781  30.824  59.123  1.00  0.00    -0.315 OA
HETATM   22  C   UNL     1       6.335  29.450  57.710  1.00  0.00     0.039 A 
HETATM   23  C   UNL     1       9.122  31.055  59.188  1.00  0.00     0.050 A 
HETATM   24  C   UNL     1       9.579  32.011  60.217  1.00  0.00     0.077 C 
HETATM   25  C   UNL     1       6.332  28.568  56.622  1.00  0.00     0.020 A 
ENDBRANCH   2  16
TORSDOF 4
ENDMDL
MODEL 7
REMARK VINA RESULT:      -8.0      4.117     10.289
REMARK  4 active torsions:
REMARK  status: ('A' for Active; 'I' for Inactive)
REMARK    1  A    between atoms: C_2  and  C_3 
REMARK    2  A    between atoms: C_3  and  N_4 
REMARK    3  A    between atoms: C_3  and  C_17 
REMARK       I    between atoms: N_4  and  C_5 
REMARK    4  A    between atoms: C_5  and  C_6 
ROOT
HETATM    1  N   UNL     1       7.790  30.676  59.928  1.00  0.00    -0.345 N 
HETATM    2  C   UNL     1       8.370  30.880  61.168  1.00  0.00     0.252 C 
HETATM    3  O   UNL     1       9.329  30.218  61.552  1.00  0.00    -0.268 OA
HETATM    4  H   UNL     1       7.170  31.407  59.598  1.00  0.00     0.163 HD
ENDROOT
BRANCH   1   5
HETATM    5  C   UNL     1       8.459  29.851  58.919  1.00  0.00     0.152 C 
BRANCH   5   6
HETATM    6  C   UNL     1       9.364  30.698  58.015  1.00  0.00     0.028 C 
HETATM    7  C   UNL     1      10.519  29.906  57.418  1.00  0.00     0.007 C 
ENDBRANCH   5   6
BRANCH   5   8
HETATM    8  C   UNL     1       7.437  29.010  58.143  1.00  0.00     0.104 A 
HETATM    9  N   UNL     1       7.568  27.760  57.663  1.00  0.00    -0.347 N 
HETATM   10  H   UNL     1       8.412  27.200  57.749  1.00  0.00     0.167 HD
HETATM   11  C   UNL     1       6.403  27.331  57.034  1.00  0.00     0.022 A 
HETATM   12  C   UNL     1       6.256  25.999  56.426  1.00  0.00     0.069 C 
HETATM   13  C   UNL     1       5.534  28.390  57.130  1.00  0.00     0.114 A 
HETATM   14  N   UNL     1       6.194  29.381  57.801  1.00  0.00    -0.352 N 
HETATM   15  H   UNL     1       5.859  30.335  58.001  1.00  0.00     0.166 HD
ENDBRANCH   5   8
ENDBRANCH   1   5
BRANCH   2  16
HETATM   16  C   UNL     1       7.801  31.977  61.997  1.00  0.00     0.033 A 
HETATM   17  C   UNL     1       6.870  32.840  61.391  1.00  0.00     0.031 A 
HETATM   18  C   UNL     1       6.270  33.843  62.174  1.00  0.00     0.001 A 
HETATM   19  C   UNL     1       6.640  33.954  63.507  1.00  0.00     0.086 A 
HETATM   20  C   UNL     1       5.297  34.855  61.958  1.00  0.00     0.046 A 
HETATM   21  O   UNL     1       5.949  34.959  64.109  1.00  0.00    -0.315 OA
HETATM   22  C   UNL     1       7.584  33.142  64.131  1.00  0.00     0.039 A 
HETATM   23  C   UNL     1       5.127  35.500  63.166  1.00  0.00     0.050 A 
HETATM   24  C   UNL     1       4.256  36.609  63.607  1.00  0.00     0.077 C 
HETATM   25  C   UNL     1       8.166  32.142  63.343  1.00  0.00     0.020 A 
ENDBRANCH   2  16
TORSDOF 4
ENDMDL
MODEL 8
REMARK VINA RESULT:      -7.9      2.567      7.755
REMARK  4 active torsions:
REMARK  status: ('A' for Active; 'I' for Inactive)
REMARK    1  A    between atoms: C_2  and  C_3 
REMARK    2  A    between atoms: C_3  and  N_4 
REMARK    3  A    between atoms: C_3  and  C_17 
REMARK       I    between atoms: N_4  and  C_5 
REMARK    4  A    between atoms: C_5  and  C_6 
ROOT
HETATM    1  N   UNL     1       7.604  26.682  55.658  1.00  0.00    -0.345 N 
HETATM    2  C   UNL     1       8.004  27.910  55.161  1.00  0.00     0.252 C 
HETATM    3  O   UNL     1       7.823  28.226  53.990  1.00  0.00    -0.268 OA
HETATM    4  H   UNL     1       7.575  26.595  56.667  1.00  0.00     0.163 HD
ENDROOT
BRANCH   1   5
HETATM    5  C   UNL     1       6.713  25.818  54.879  1.00  0.00     0.152 C 
BRANCH   5   6
HETATM    6  C   UNL     1       5.286  25.837  55.439  1.00  0.00     0.028 C 
HETATM    7  C   UNL     1       5.233  26.175  56.923  1.00  0.00     0.007 C 
ENDBRANCH   5   6
BRANCH   5   8
HETATM    8  C   UNL     1       7.302  24.406  54.755  1.00  0.00     0.104 A 
HETATM    9  N   UNL     1       7.125  23.347  55.565  1.00  0.00    -0.347 N 
HETATM   10  H   UNL     1       6.561  23.362  56.411  1.00  0.00     0.167 HD
HETATM   11  C   UNL     1       7.813  22.229  55.100  1.00  0.00     0.022 A 
HETATM   12  C   UNL     1       7.789  20.925  55.781  1.00  0.00     0.069 C 
HETATM   13  C   UNL     1       8.447  22.649  53.958  1.00  0.00     0.114 A 
HETATM   14  N   UNL     1       8.119  23.965  53.785  1.00  0.00    -0.352 N 
HETATM   15  H   UNL     1       8.464  24.609  53.058  1.00  0.00     0.166 HD
ENDBRANCH   5   8
ENDBRANCH   1   5
BRANCH   2  16
HETATM   16  C   UNL     1       8.624  28.852  56.133  1.00  0.00     0.033 A 
HETATM   17  C   UNL     1       7.948  29.077  57.348  1.00  0.00     0.031 A 
HETATM   18  C   UNL     1       8.548  29.911  58.308  1.00  0.00     0.001 A 
HETATM   19  C   UNL     1       9.771  30.497  58.008  1.00  0.00     0.086 A 
HETATM   20  C   UNL     1       8.222  30.349  59.619  1.00  0.00     0.046 A 
HETATM   21  O   UNL     1      10.204  31.251  59.054  1.00  0.00    -0.315 OA
HETATM   22  C   UNL     1      10.449  30.327  56.804  1.00  0.00     0.039 A 
HETATM   23  C   UNL     1       9.264  31.153  60.036  1.00  0.00     0.050 A 
HETATM   24  C   UNL     1       9.541  31.883  61.290  1.00  0.00     0.077 C 
HETATM   25  C   UNL     1       9.846  29.486  55.860  1.00  0.00     0.020 A 
ENDBRANCH   2  16
TORSDOF 4
ENDMDL
MODEL 9
REMARK VINA RESULT:      -7.9      8.106     11.261
REMARK  4 active torsions:
REMARK  status: ('A' for Active; 'I' for Inactive)
REMARK    1  A    between atoms: C_2  and  C_3 
REMARK    2  A    between atoms: C_3  and  N_4 
REMARK    3  A    between atoms: C_3  and  C_17 
REMARK       I    between atoms: N_4  and  C_5 
REMARK    4  A    between atoms: C_5  and  C_6 
ROOT
HETATM    1  N   UNL     1       5.783  34.691  65.079  1.00  0.00    -0.345 N 
HETATM    2  C   UNL     1       5.433  33.530  64.414  1.00  0.00     0.252 C 
HETATM    3  O   UNL     1       4.598  32.751  64.863  1.00  0.00    -0.268 OA
HETATM    4  H   UNL     1       6.292  35.381  64.538  1.00  0.00     0.163 HD
ENDROOT
BRANCH   1   5
HETATM    5  C   UNL     1       4.983  35.173  66.208  1.00  0.00     0.152 C 
BRANCH   5   6
HETATM    6  C   UNL     1       4.608  36.650  66.037  1.00  0.00     0.028 C 
HETATM    7  C   UNL     1       4.941  37.193  64.653  1.00  0.00     0.007 C 
ENDBRANCH   5   6
BRANCH   5   8
HETATM    8  C   UNL     1       5.687  34.871  67.538  1.00  0.00     0.104 A 
HETATM    9  N   UNL     1       6.992  34.980  67.841  1.00  0.00    -0.347 N 
HETATM   10  H   UNL     1       7.710  35.277  67.185  1.00  0.00     0.167 HD
HETATM   11  C   UNL     1       7.238  34.633  69.167  1.00  0.00     0.022 A 
HETATM   12  C   UNL     1       8.576  34.671  69.778  1.00  0.00     0.069 C 
HETATM   13  C   UNL     1       6.013  34.283  69.678  1.00  0.00     0.114 A 
HETATM   14  N   UNL     1       5.106  34.436  68.666  1.00  0.00    -0.352 N 
HETATM   15  H   UNL     1       4.100  34.210  68.684  1.00  0.00     0.166 HD
ENDBRANCH   5   8
ENDBRANCH   1   5
BRANCH   2  16
HETATM   16  C   UNL     1       6.087  33.293  63.097  1.00  0.00     0.033 A 
HETATM   17  C   UNL     1       7.417  32.833  63.101  1.00  0.00     0.031 A 
HETATM   18  C   UNL     1       8.033  32.539  61.871  1.00  0.00     0.001 A 
HETATM   19  C   UNL     1       7.309  32.737  60.703  1.00  0.00     0.086 A 
HETATM   20  C   UNL     1       9.298  32.042  61.461  1.00  0.00     0.046 A 
HETATM   21  O   UNL     1       8.052  32.386  59.620  1.00  0.00    -0.315 OA
HETATM   22  C   UNL     1       6.006  33.225  60.659  1.00  0.00     0.039 A 
HETATM   23  C   UNL     1       9.259  31.955  60.084  1.00  0.00     0.050 A 
HETATM   24  C   UNL     1      10.232  31.497  59.071  1.00  0.00     0.077 C 
HETATM   25  C   UNL     1       5.401  33.505  61.891  1.00  0.00     0.020 A 
ENDBRANCH   2  16
TORSDOF 4
ENDMDL
MODEL 10
REMARK VINA RESULT:      -7.7      6.383      9.737
REMARK  4 active torsions:
REMARK  status: ('A' for Active; 'I' for Inactive)
REMARK    1  A    between atoms: C_2  and  C_3 
REMARK    2  A    between atoms: C_3  and  N_4 
REMARK    3  A    between atoms: C_3  and  C_17 
REMARK       I    between atoms: N_4  and  C_5 
REMARK    4  A    between atoms: C_5  and  C_6 
ROOT
HETATM    1  N   UNL     1       6.345  33.976  63.521  1.00  0.00    -0.345 N 
HETATM    2  C   UNL     1       6.076  32.639  63.289  1.00  0.00     0.252 C 
HETATM    3  O   UNL     1       5.098  32.080  63.775  1.00  0.00    -0.268 OA
HETATM    4  H   UNL     1       7.023  34.410  62.905  1.00  0.00     0.163 HD
ENDROOT
BRANCH   1   5
HETATM    5  C   UNL     1       5.334  34.844  64.132  1.00  0.00     0.152 C 
BRANCH   5   6
HETATM    6  C   UNL     1       5.553  36.313  63.750  1.00  0.00     0.028 C 
HETATM    7  C   UNL     1       5.696  36.523  62.248  1.00  0.00     0.007 C 
ENDBRANCH   5   6
BRANCH   5   8
HETATM    8  C   UNL     1       5.265  34.611  65.647  1.00  0.00     0.104 A 
HETATM    9  N   UNL     1       6.165  34.941  66.590  1.00  0.00    -0.347 N 
HETATM   10  H   UNL     1       7.054  35.396  66.399  1.00  0.00     0.167 HD
HETATM   11  C   UNL     1       5.727  34.580  67.862  1.00  0.00     0.022 A 
HETATM   12  C   UNL     1       6.504  34.832  69.086  1.00  0.00     0.069 C 
HETATM   13  C   UNL     1       4.505  33.988  67.664  1.00  0.00     0.114 A 
HETATM   14  N   UNL     1       4.263  34.022  66.318  1.00  0.00    -0.352 N 
HETATM   15  H   UNL     1       3.462  33.615  65.814  1.00  0.00     0.166 HD
ENDBRANCH   5   8
ENDBRANCH   1   5
BRANCH   2  16
HETATM   16  C   UNL     1       7.011  31.920  62.380  1.00  0.00     0.033 A 
HETATM   17  C   UNL     1       6.755  31.981  60.998  1.00  0.00     0.031 A 
HETATM   18  C   UNL     1       7.661  31.365  60.116  1.00  0.00     0.001 A 
HETATM   19  C   UNL     1       8.759  30.702  60.649  1.00  0.00     0.086 A 
HETATM   20  C   UNL     1       7.777  31.232  58.707  1.00  0.00     0.046 A 
HETATM   21  O   UNL     1       9.530  30.186  59.654  1.00  0.00    -0.315 OA
HETATM   22  C   UNL     1       9.023  30.590  62.012  1.00  0.00     0.039 A 
HETATM   23  C   UNL     1       8.935  30.517  58.474  1.00  0.00     0.050 A 
HETATM   24  C   UNL     1       9.619  30.073  57.242  1.00  0.00     0.077 C 
HETATM   25  C   UNL     1       8.119  31.216  62.878  1.00  0.00     0.020 A 
ENDBRANCH   2  16
TORSDOF 4
ENDMDL
