MODEL 1
REMARK VINA RESULT:     -10.6      0.000      0.000
REMARK  8 active torsions:
REMARK  status: ('A' for Active; 'I' for Inactive)
REMARK    1  A    between atoms: N_2  and  C_3 
REMARK    2  A    between atoms: C_4  and  C_5 
REMARK       I    between atoms: C_5  and  N_6 
REMARK    3  A    between atoms: N_6  and  C_7 
REMARK    4  A    between atoms: C_7  and  C_8 
REMARK    5  A    between atoms: N_13  and  C_15 
REMARK    6  A    between atoms: C_15  and  C_16 
REMARK    7  A    between atoms: C_16  and  C_17 
REMARK    8  A    between atoms: C_17  and  C_18 
ROOT
HETATM    1  C   UNL     1       7.332  29.629  57.860  1.00  0.00     0.140 C 
HETATM    2  O   UNL     1       6.871  29.046  56.621  1.00  0.00    -0.373 OA
HETATM    3  C   UNL     1       7.870  28.103  56.174  1.00  0.00     0.064 C 
HETATM    4  C   UNL     1       8.163  28.424  54.704  1.00  0.00     0.066 C 
HETATM    5  C   UNL     1       6.966  28.133  53.805  1.00  0.00     0.237 C 
HETATM    6  N   UNL     1       6.486  26.704  53.982  1.00  0.00    -0.071 N 
HETATM    7  H   UNL     1       5.604  26.656  53.456  1.00  0.00     0.279 HD
HETATM    8  C   UNL     1       6.103  26.467  55.428  1.00  0.00     0.237 C 
HETATM    9  C   UNL     1       7.300  26.690  56.337  1.00  0.00     0.066 C 
HETATM   10  C   UNL     1       9.101  28.311  57.068  1.00  0.00     0.041 C 
HETATM   11  C   UNL     1       8.843  29.650  57.717  1.00  0.00     0.036 C 
ENDROOT
BRANCH   1  12
HETATM   12  C   UNL     1       6.722  31.014  58.085  1.00  0.00     0.155 C 
BRANCH  12  13
HETATM   13  N   UNL     1       6.600  31.348  59.489  1.00  0.00    -0.354 N 
HETATM   14  C   UNL     1       7.514  32.195  60.098  1.00  0.00     0.253 C 
HETATM   15  O   UNL     1       8.489  32.639  59.504  1.00  0.00    -0.268 OA
HETATM   16  H   UNL     1       5.759  31.092  59.990  1.00  0.00     0.162 HD
BRANCH  14  17
HETATM   17  C   UNL     1       7.207  32.524  61.519  1.00  0.00     0.053 A 
HETATM   18  C   UNL     1       5.931  32.986  61.919  1.00  0.00     0.025 A 
HETATM   19  C   UNL     1       5.751  33.271  63.288  1.00  0.00     0.025 A 
HETATM   20  C   UNL     1       6.785  33.115  64.215  1.00  0.00     0.002 A 
HETATM   21  C   UNL     1       8.036  32.674  63.800  1.00  0.00     0.001 A 
HETATM   22  C   UNL     1       8.249  32.381  62.456  1.00  0.00     0.019 A 
BRANCH  18  23
HETATM   23  N   UNL     1       4.868  33.115  61.004  1.00  0.00    -0.291 NA
HETATM   24  C   UNL     1       3.726  32.268  61.339  1.00  0.00     0.116 C 
HETATM   25  C   UNL     1       4.523  34.479  60.601  1.00  0.00     0.116 C 
ENDBRANCH  18  23
ENDBRANCH  14  17
ENDBRANCH  12  13
ENDBRANCH   1  12
BRANCH   6  26
HETATM   26  C   UNL     1       7.419  25.692  53.347  1.00  0.00     0.235 C 
BRANCH  26  27
HETATM   27  C   UNL     1       6.854  24.277  53.281  1.00  0.00     0.032 C 
BRANCH  27  28
HETATM   28  C   UNL     1       7.862  23.218  52.833  1.00  0.00     0.040 C 
BRANCH  28  29
HETATM   29  C   UNL     1       8.127  22.235  53.944  1.00  0.00    -0.058 A 
HETATM   30  C   UNL     1       8.411  20.893  53.653  1.00  0.00     0.007 A 
HETATM   31  C   UNL     1       8.616  19.974  54.684  1.00  0.00     0.001 A 
HETATM   32  C   UNL     1       8.536  20.387  56.013  1.00  0.00     0.000 A 
HETATM   33  C   UNL     1       8.255  21.718  56.313  1.00  0.00     0.001 A 
HETATM   34  C   UNL     1       8.052  22.638  55.284  1.00  0.00     0.007 A 
ENDBRANCH  28  29
ENDBRANCH  27  28
ENDBRANCH  26  27
ENDBRANCH   6  26
TORSDOF 8
ENDMDL
MODEL 2
REMARK VINA RESULT:     -10.2      1.039      2.060
REMARK  8 active torsions:
REMARK  status: ('A' for Active; 'I' for Inactive)
REMARK    1  A    between atoms: N_2  and  C_3 
REMARK    2  A    between atoms: C_4  and  C_5 
REMARK       I    between atoms: C_5  and  N_6 
REMARK    3  A    between atoms: N_6  and  C_7 
REMARK    4  A    between atoms: C_7  and  C_8 
REMARK    5  A    between atoms: N_13  and  C_15 
REMARK    6  A    between atoms: C_15  and  C_16 
REMARK    7  A    between atoms: C_16  and  C_17 
REMARK    8  A    between atoms: C_17  and  C_18 
ROOT
HETATM    1  C   UNL     1       6.935  29.180  57.763  1.00  0.00     0.140 C 
HETATM    2  O   UNL     1       6.563  28.724  56.443  1.00  0.00    -0.373 OA
HETATM    3  C   UNL     1       7.570  27.792  55.993  1.00  0.00     0.064 C 
HETATM    4  C   UNL     1       7.992  28.232  54.587  1.00  0.00     0.066 C 
HETATM    5  C   UNL     1       6.866  28.061  53.572  1.00  0.00     0.237 C 
HETATM    6  N   UNL     1       6.337  26.638  53.580  1.00  0.00    -0.071 N 
HETATM    7  H   UNL     1       5.500  26.666  52.982  1.00  0.00     0.279 HD
HETATM    8  C   UNL     1       5.830  26.288  54.963  1.00  0.00     0.237 C 
HETATM    9  C   UNL     1       6.952  26.389  55.980  1.00  0.00     0.066 C 
HETATM   10  C   UNL     1       8.728  27.879  56.998  1.00  0.00     0.041 C 
HETATM   11  C   UNL     1       8.453  29.163  57.743  1.00  0.00     0.036 C 
ENDROOT
BRANCH   1  12
HETATM   12  C   UNL     1       6.344  30.559  58.063  1.00  0.00     0.155 C 
BRANCH  12  13
HETATM   13  N   UNL     1       6.661  31.023  59.398  1.00  0.00    -0.354 N 
HETATM   14  C   UNL     1       6.428  32.339  59.764  1.00  0.00     0.253 C 
HETATM   15  O   UNL     1       6.013  33.175  58.971  1.00  0.00    -0.268 OA
HETATM   16  H   UNL     1       6.904  30.349  60.113  1.00  0.00     0.162 HD
BRANCH  14  17
HETATM   17  C   UNL     1       6.713  32.646  61.195  1.00  0.00     0.053 A 
HETATM   18  C   UNL     1       7.853  32.132  61.857  1.00  0.00     0.025 A 
HETATM   19  C   UNL     1       8.024  32.482  63.211  1.00  0.00     0.025 A 
HETATM   20  C   UNL     1       7.106  33.296  63.882  1.00  0.00     0.002 A 
HETATM   21  C   UNL     1       5.985  33.780  63.220  1.00  0.00     0.001 A 
HETATM   22  C   UNL     1       5.785  33.455  61.881  1.00  0.00     0.019 A 
BRANCH  18  23
HETATM   23  N   UNL     1       8.806  31.340  61.185  1.00  0.00    -0.291 NA
HETATM   24  C   UNL     1       9.792  32.135  60.459  1.00  0.00     0.116 C 
HETATM   25  C   UNL     1       9.358  30.214  61.940  1.00  0.00     0.116 C 
ENDBRANCH  18  23
ENDBRANCH  14  17
ENDBRANCH  12  13
ENDBRANCH   1  12
BRANCH   6  26
HETATM   26  C   UNL     1       7.293  25.656  52.931  1.00  0.00     0.235 C 
BRANCH  26  27
HETATM   27  C   UNL     1       6.832  24.204  52.992  1.00  0.00     0.032 C 
BRANCH  27  28
HETATM   28  C   UNL     1       7.945  23.182  52.763  1.00  0.00     0.040 C 
BRANCH  28  29
HETATM   29  C   UNL     1       8.122  22.308  53.977  1.00  0.00    -0.058 A 
HETATM   30  C   UNL     1       8.170  20.912  53.849  1.00  0.00     0.007 A 
HETATM   31  C   UNL     1       8.293  20.102  54.979  1.00  0.00     0.001 A 
HETATM   32  C   UNL     1       8.364  20.677  56.246  1.00  0.00     0.000 A 
HETATM   33  C   UNL     1       8.318  22.063  56.385  1.00  0.00     0.001 A 
HETATM   34  C   UNL     1       8.197  22.875  55.256  1.00  0.00     0.007 A 
ENDBRANCH  28  29
ENDBRANCH  27  28
ENDBRANCH  26  27
ENDBRANCH   6  26
TORSDOF 8
ENDMDL
MODEL 3
REMARK VINA RESULT:      -9.6      1.671      3.333
REMARK  8 active torsions:
REMARK  status: ('A' for Active; 'I' for Inactive)
REMARK    1  A    between atoms: N_2  and  C_3 
REMARK    2  A    between atoms: C_4  and  C_5 
REMARK       I    between atoms: C_5  and  N_6 
REMARK    3  A    between atoms: N_6  and  C_7 
REMARK    4  A    between atoms: C_7  and  C_8 
REMARK    5  A    between atoms: N_13  and  C_15 
REMARK    6  A    between atoms: C_15  and  C_16 
REMARK    7  A    between atoms: C_16  and  C_17 
REMARK    8  A    between atoms: C_17  and  C_18 
ROOT
HETATM    1  C   UNL     1       4.999  30.374  55.906  1.00  0.00     0.140 C 
HETATM    2  O   UNL     1       5.561  29.046  55.809  1.00  0.00    -0.373 OA
HETATM    3  C   UNL     1       5.416  28.600  54.443  1.00  0.00     0.064 C 
HETATM    4  C   UNL     1       4.788  27.202  54.492  1.00  0.00     0.066 C 
HETATM    5  C   UNL     1       5.730  26.173  55.108  1.00  0.00     0.237 C 
HETATM    6  N   UNL     1       7.069  26.163  54.392  1.00  0.00    -0.071 N 
HETATM    7  H   UNL     1       7.669  25.556  54.966  1.00  0.00     0.279 HD
HETATM    8  C   UNL     1       7.701  27.536  54.466  1.00  0.00     0.237 C 
HETATM    9  C   UNL     1       6.807  28.568  53.801  1.00  0.00     0.066 C 
HETATM   10  C   UNL     1       4.505  29.619  53.744  1.00  0.00     0.041 C 
HETATM   11  C   UNL     1       3.872  30.372  54.889  1.00  0.00     0.036 C 
ENDROOT
BRANCH   1  12
HETATM   12  C   UNL     1       4.535  30.680  57.331  1.00  0.00     0.155 C 
BRANCH  12  13
HETATM   13  N   UNL     1       5.616  30.628  58.293  1.00  0.00    -0.354 N 
HETATM   14  C   UNL     1       6.286  31.782  58.670  1.00  0.00     0.253 C 
HETATM   15  O   UNL     1       6.044  32.871  58.166  1.00  0.00    -0.268 OA
HETATM   16  H   UNL     1       5.780  29.774  58.812  1.00  0.00     0.162 HD
BRANCH  14  17
HETATM   17  C   UNL     1       7.308  31.588  59.738  1.00  0.00     0.053 A 
HETATM   18  C   UNL     1       8.557  30.976  59.474  1.00  0.00     0.025 A 
HETATM   19  C   UNL     1       9.448  30.840  60.557  1.00  0.00     0.025 A 
HETATM   20  C   UNL     1       9.117  31.279  61.842  1.00  0.00     0.002 A 
HETATM   21  C   UNL     1       7.880  31.864  62.085  1.00  0.00     0.001 A 
HETATM   22  C   UNL     1       6.975  32.016  61.038  1.00  0.00     0.019 A 
BRANCH  18  23
HETATM   23  N   UNL     1       8.920  30.562  58.178  1.00  0.00    -0.291 NA
HETATM   24  C   UNL     1      10.237  31.048  57.775  1.00  0.00     0.116 C 
HETATM   25  C   UNL     1       8.657  29.160  57.850  1.00  0.00     0.116 C 
ENDBRANCH  18  23
ENDBRANCH  14  17
ENDBRANCH  12  13
ENDBRANCH   1  12
BRANCH   6  26
HETATM   26  C   UNL     1       6.993  25.517  53.022  1.00  0.00     0.235 C 
BRANCH  26  27
HETATM   27  C   UNL     1       6.735  24.015  53.054  1.00  0.00     0.032 C 
BRANCH  27  28
HETATM   28  C   UNL     1       7.989  23.158  52.877  1.00  0.00     0.040 C 
BRANCH  28  29
HETATM   29  C   UNL     1       8.190  22.257  54.068  1.00  0.00    -0.058 A 
HETATM   30  C   UNL     1       8.257  20.866  53.904  1.00  0.00     0.007 A 
HETATM   31  C   UNL     1       8.402  20.030  55.012  1.00  0.00     0.001 A 
HETATM   32  C   UNL     1       8.477  20.575  56.293  1.00  0.00     0.000 A 
HETATM   33  C   UNL     1       8.413  21.956  56.467  1.00  0.00     0.001 A 
HETATM   34  C   UNL     1       8.270  22.794  55.359  1.00  0.00     0.007 A 
ENDBRANCH  28  29
ENDBRANCH  27  28
ENDBRANCH  26  27
ENDBRANCH   6  26
TORSDOF 8
ENDMDL
MODEL 4
REMARK VINA RESULT:      -9.5      2.548     10.098
REMARK  8 active torsions:
REMARK  status: ('A' for Active; 'I' for Inactive)
REMARK    1  A    between atoms: N_2  and  C_3 
REMARK    2  A    between atoms: C_4  and  C_5 
REMARK       I    between atoms: C_5  and  N_6 
REMARK    3  A    between atoms: N_6  and  C_7 
REMARK    4  A    between atoms: C_7  and  C_8 
REMARK    5  A    between atoms: N_13  and  C_15 
REMARK    6  A    between atoms: C_15  and  C_16 
REMARK    7  A    between atoms: C_16  and  C_17 
REMARK    8  A    between atoms: C_17  and  C_18 
ROOT
HETATM    1  C   UNL     1       5.017  26.544  53.737  1.00  0.00     0.140 C 
HETATM    2  O   UNL     1       6.076  26.867  54.666  1.00  0.00    -0.373 OA
HETATM    3  C   UNL     1       5.751  28.127  55.291  1.00  0.00     0.064 C 
HETATM    4  C   UNL     1       6.994  29.018  55.178  1.00  0.00     0.066 C 
HETATM    5  C   UNL     1       8.154  28.489  56.016  1.00  0.00     0.237 C 
HETATM    6  N   UNL     1       7.736  28.290  57.462  1.00  0.00    -0.071 N 
HETATM    7  H   UNL     1       8.528  27.801  57.899  1.00  0.00     0.279 HD
HETATM    8  C   UNL     1       6.577  27.318  57.531  1.00  0.00     0.237 C 
HETATM    9  C   UNL     1       5.387  27.855  56.755  1.00  0.00     0.066 C 
HETATM   10  C   UNL     1       4.555  28.704  54.520  1.00  0.00     0.041 C 
HETATM   11  C   UNL     1       4.535  27.896  53.245  1.00  0.00     0.036 C 
ENDROOT
BRANCH   1  12
HETATM   12  C   UNL     1       5.518  25.630  52.618  1.00  0.00     0.155 C 
BRANCH  12  13
HETATM   13  N   UNL     1       6.050  24.378  53.116  1.00  0.00    -0.354 N 
HETATM   14  C   UNL     1       7.395  24.074  52.976  1.00  0.00     0.253 C 
HETATM   15  O   UNL     1       8.171  24.806  52.375  1.00  0.00    -0.268 OA
HETATM   16  H   UNL     1       5.473  23.793  53.708  1.00  0.00     0.162 HD
BRANCH  14  17
HETATM   17  C   UNL     1       7.815  22.797  53.622  1.00  0.00     0.053 A 
HETATM   18  C   UNL     1       8.112  22.722  55.003  1.00  0.00     0.025 A 
HETATM   19  C   UNL     1       8.503  21.466  55.509  1.00  0.00     0.025 A 
HETATM   20  C   UNL     1       8.605  20.340  54.686  1.00  0.00     0.002 A 
HETATM   21  C   UNL     1       8.323  20.437  53.329  1.00  0.00     0.001 A 
HETATM   22  C   UNL     1       7.932  21.662  52.795  1.00  0.00     0.019 A 
BRANCH  18  23
HETATM   23  N   UNL     1       7.980  23.837  55.852  1.00  0.00    -0.291 NA
HETATM   24  C   UNL     1       6.666  23.917  56.484  1.00  0.00     0.116 C 
HETATM   25  C   UNL     1       9.108  24.108  56.745  1.00  0.00     0.116 C 
ENDBRANCH  18  23
ENDBRANCH  14  17
ENDBRANCH  12  13
ENDBRANCH   1  12
BRANCH   6  26
HETATM   26  C   UNL     1       7.577  29.600  58.209  1.00  0.00     0.235 C 
BRANCH  26  27
HETATM   27  C   UNL     1       8.682  30.613  57.935  1.00  0.00     0.032 C 
BRANCH  27  28
HETATM   28  C   UNL     1       9.726  30.720  59.046  1.00  0.00     0.040 C 
BRANCH  28  29
HETATM   29  C   UNL     1       9.097  31.226  60.319  1.00  0.00    -0.058 A 
HETATM   30  C   UNL     1       9.189  30.481  61.503  1.00  0.00     0.007 A 
HETATM   31  C   UNL     1       8.571  30.931  62.671  1.00  0.00     0.001 A 
HETATM   32  C   UNL     1       7.853  32.125  62.666  1.00  0.00     0.000 A 
HETATM   33  C   UNL     1       7.756  32.874  61.495  1.00  0.00     0.001 A 
HETATM   34  C   UNL     1       8.375  32.427  60.326  1.00  0.00     0.007 A 
ENDBRANCH  28  29
ENDBRANCH  27  28
ENDBRANCH  26  27
ENDBRANCH   6  26
TORSDOF 8
ENDMDL
MODEL 5
REMARK VINA RESULT:      -9.5      1.375      2.341
REMARK  8 active torsions:
REMARK  status: ('A' for Active; 'I' for Inactive)
REMARK    1  A    between atoms: N_2  and  C_3 
REMARK    2  A    between atoms: C_4  and  C_5 
REMARK       I    between atoms: C_5  and  N_6 
REMARK    3  A    between atoms: N_6  and  C_7 
REMARK    4  A    between atoms: C_7  and  C_8 
REMARK    5  A    between atoms: N_13  and  C_15 
REMARK    6  A    between atoms: C_15  and  C_16 
REMARK    7  A    between atoms: C_16  and  C_17 
REMARK    8  A    between atoms: C_17  and  C_18 
ROOT
HETATM    1  C   UNL     1       8.065  31.211  58.530  1.00  0.00     0.140 C 
HETATM    2  O   UNL     1       8.121  29.843  58.067  1.00  0.00    -0.373 OA
HETATM    3  C   UNL     1       6.970  29.610  57.225  1.00  0.00     0.064 C 
HETATM    4  C   UNL     1       6.307  28.319  57.719  1.00  0.00     0.066 C 
HETATM    5  C   UNL     1       7.185  27.096  57.475  1.00  0.00     0.237 C 
HETATM    6  N   UNL     1       7.587  26.997  56.015  1.00  0.00    -0.071 N 
HETATM    7  H   UNL     1       8.283  26.240  55.985  1.00  0.00     0.279 HD
HETATM    8  C   UNL     1       8.336  28.246  55.603  1.00  0.00     0.237 C 
HETATM    9  C   UNL     1       7.457  29.472  55.778  1.00  0.00     0.066 C 
HETATM   10  C   UNL     1       6.053  30.831  57.389  1.00  0.00     0.041 C 
HETATM   11  C   UNL     1       6.579  31.502  58.635  1.00  0.00     0.036 C 
ENDROOT
BRANCH   1  12
HETATM   12  C   UNL     1       8.815  31.382  59.852  1.00  0.00     0.155 C 
BRANCH  12  13
HETATM   13  N   UNL     1       8.080  32.182  60.810  1.00  0.00    -0.354 N 
HETATM   14  C   UNL     1       7.820  31.702  62.084  1.00  0.00     0.253 C 
HETATM   15  O   UNL     1       8.134  30.570  62.432  1.00  0.00    -0.268 OA
HETATM   16  H   UNL     1       7.894  33.156  60.605  1.00  0.00     0.162 HD
BRANCH  14  17
HETATM   17  C   UNL     1       7.140  32.673  62.989  1.00  0.00     0.053 A 
HETATM   18  C   UNL     1       5.873  33.221  62.679  1.00  0.00     0.025 A 
HETATM   19  C   UNL     1       5.324  34.133  63.603  1.00  0.00     0.025 A 
HETATM   20  C   UNL     1       5.999  34.492  64.773  1.00  0.00     0.002 A 
HETATM   21  C   UNL     1       7.249  33.954  65.053  1.00  0.00     0.001 A 
HETATM   22  C   UNL     1       7.822  33.048  64.163  1.00  0.00     0.019 A 
BRANCH  18  23
HETATM   23  N   UNL     1       5.164  32.842  61.523  1.00  0.00    -0.291 NA
HETATM   24  C   UNL     1       4.081  31.904  61.804  1.00  0.00     0.116 C 
HETATM   25  C   UNL     1       4.818  33.920  60.595  1.00  0.00     0.116 C 
ENDBRANCH  18  23
ENDBRANCH  14  17
ENDBRANCH  12  13
ENDBRANCH   1  12
BRANCH   6  26
HETATM   26  C   UNL     1       6.442  26.559  55.122  1.00  0.00     0.235 C 
BRANCH  26  27
HETATM   27  C   UNL     1       6.553  25.121  54.626  1.00  0.00     0.032 C 
BRANCH  27  28
HETATM   28  C   UNL     1       7.496  24.243  55.448  1.00  0.00     0.040 C 
BRANCH  28  29
HETATM   29  C   UNL     1       7.671  22.896  54.796  1.00  0.00    -0.058 A 
HETATM   30  C   UNL     1       7.754  21.734  55.576  1.00  0.00     0.007 A 
HETATM   31  C   UNL     1       7.958  20.491  54.973  1.00  0.00     0.001 A 
HETATM   32  C   UNL     1       8.084  20.399  53.588  1.00  0.00     0.000 A 
HETATM   33  C   UNL     1       8.003  21.548  52.804  1.00  0.00     0.001 A 
HETATM   34  C   UNL     1       7.798  22.791  53.405  1.00  0.00     0.007 A 
ENDBRANCH  28  29
ENDBRANCH  27  28
ENDBRANCH  26  27
ENDBRANCH   6  26
TORSDOF 8
ENDMDL
MODEL 6
REMARK VINA RESULT:      -9.4      1.565      2.679
REMARK  8 active torsions:
REMARK  status: ('A' for Active; 'I' for Inactive)
REMARK    1  A    between atoms: N_2  and  C_3 
REMARK    2  A    between atoms: C_4  and  C_5 
REMARK       I    between atoms: C_5  and  N_6 
REMARK    3  A    between atoms: N_6  and  C_7 
REMARK    4  A    between atoms: C_7  and  C_8 
REMARK    5  A    between atoms: N_13  and  C_15 
REMARK    6  A    between atoms: C_15  and  C_16 
REMARK    7  A    between atoms: C_16  and  C_17 
REMARK    8  A    between atoms: C_17  and  C_18 
ROOT
HETATM    1  C   UNL     1       5.000  30.303  56.136  1.00  0.00     0.140 C 
HETATM    2  O   UNL     1       5.554  28.982  55.942  1.00  0.00    -0.373 OA
HETATM    3  C   UNL     1       5.382  28.627  54.553  1.00  0.00     0.064 C 
HETATM    4  C   UNL     1       4.749  27.231  54.522  1.00  0.00     0.066 C 
HETATM    5  C   UNL     1       5.698  26.161  55.053  1.00  0.00     0.237 C 
HETATM    6  N   UNL     1       7.023  26.193  54.312  1.00  0.00    -0.071 N 
HETATM    7  H   UNL     1       7.631  25.548  54.834  1.00  0.00     0.279 HD
HETATM    8  C   UNL     1       7.663  27.557  54.464  1.00  0.00     0.237 C 
HETATM    9  C   UNL     1       6.761  28.633  53.884  1.00  0.00     0.066 C 
HETATM   10  C   UNL     1       4.462  29.692  53.938  1.00  0.00     0.041 C 
HETATM   11  C   UNL     1       3.854  30.371  55.142  1.00  0.00     0.036 C 
ENDROOT
BRANCH   1  12
HETATM   12  C   UNL     1       4.563  30.516  57.586  1.00  0.00     0.155 C 
BRANCH  12  13
HETATM   13  N   UNL     1       5.684  30.685  58.487  1.00  0.00    -0.354 N 
HETATM   14  C   UNL     1       6.189  31.946  58.762  1.00  0.00     0.253 C 
HETATM   15  O   UNL     1       5.762  32.955  58.214  1.00  0.00    -0.268 OA
HETATM   16  H   UNL     1       5.999  29.898  59.042  1.00  0.00     0.162 HD
BRANCH  14  17
HETATM   17  C   UNL     1       7.278  31.973  59.780  1.00  0.00     0.053 A 
HETATM   18  C   UNL     1       7.027  32.293  61.135  1.00  0.00     0.025 A 
HETATM   19  C   UNL     1       8.130  32.292  62.012  1.00  0.00     0.025 A 
HETATM   20  C   UNL     1       9.423  31.997  61.568  1.00  0.00     0.002 A 
HETATM   21  C   UNL     1       9.652  31.699  60.230  1.00  0.00     0.001 A 
HETATM   22  C   UNL     1       8.585  31.689  59.336  1.00  0.00     0.019 A 
BRANCH  18  23
HETATM   23  N   UNL     1       5.725  32.557  61.606  1.00  0.00    -0.291 NA
HETATM   24  C   UNL     1       5.387  31.787  62.800  1.00  0.00     0.116 C 
HETATM   25  C   UNL     1       5.327  33.964  61.649  1.00  0.00     0.116 C 
ENDBRANCH  18  23
ENDBRANCH  14  17
ENDBRANCH  12  13
ENDBRANCH   1  12
BRANCH   6  26
HETATM   26  C   UNL     1       6.919  25.638  52.905  1.00  0.00     0.235 C 
BRANCH  26  27
HETATM   27  C   UNL     1       6.707  24.130  52.843  1.00  0.00     0.032 C 
BRANCH  27  28
HETATM   28  C   UNL     1       7.995  23.320  52.691  1.00  0.00     0.040 C 
BRANCH  28  29
HETATM   29  C   UNL     1       8.080  22.253  53.752  1.00  0.00    -0.058 A 
HETATM   30  C   UNL     1       7.758  22.548  55.084  1.00  0.00     0.007 A 
HETATM   31  C   UNL     1       7.876  21.570  56.073  1.00  0.00     0.001 A 
HETATM   32  C   UNL     1       8.321  20.292  55.742  1.00  0.00     0.000 A 
HETATM   33  C   UNL     1       8.643  19.988  54.421  1.00  0.00     0.001 A 
HETATM   34  C   UNL     1       8.523  20.964  53.430  1.00  0.00     0.007 A 
ENDBRANCH  28  29
ENDBRANCH  27  28
ENDBRANCH  26  27
ENDBRANCH   6  26
TORSDOF 8
ENDMDL
MODEL 7
REMARK VINA RESULT:      -9.3      1.927      3.266
REMARK  8 active torsions:
REMARK  status: ('A' for Active; 'I' for Inactive)
REMARK    1  A    between atoms: N_2  and  C_3 
REMARK    2  A    between atoms: C_4  and  C_5 
REMARK       I    between atoms: C_5  and  N_6 
REMARK    3  A    between atoms: N_6  and  C_7 
REMARK    4  A    between atoms: C_7  and  C_8 
REMARK    5  A    between atoms: N_13  and  C_15 
REMARK    6  A    between atoms: C_15  and  C_16 
REMARK    7  A    between atoms: C_16  and  C_17 
REMARK    8  A    between atoms: C_17  and  C_18 
ROOT
HETATM    1  C   UNL     1       4.984  31.731  58.385  1.00  0.00     0.140 C 
HETATM    2  O   UNL     1       5.179  30.315  58.175  1.00  0.00    -0.373 OA
HETATM    3  C   UNL     1       5.418  30.103  56.766  1.00  0.00     0.064 C 
HETATM    4  C   UNL     1       4.475  28.981  56.315  1.00  0.00     0.066 C 
HETATM    5  C   UNL     1       4.837  27.641  56.948  1.00  0.00     0.237 C 
HETATM    6  N   UNL     1       6.291  27.291  56.686  1.00  0.00    -0.071 N 
HETATM    7  H   UNL     1       6.469  26.461  57.268  1.00  0.00     0.279 HD
HETATM    8  C   UNL     1       7.188  28.373  57.248  1.00  0.00     0.237 C 
HETATM    9  C   UNL     1       6.888  29.707  56.585  1.00  0.00     0.066 C 
HETATM   10  C   UNL     1       5.112  31.433  56.064  1.00  0.00     0.041 C 
HETATM   11  C   UNL     1       4.332  32.208  57.100  1.00  0.00     0.036 C 
ENDROOT
BRANCH   1  12
HETATM   12  C   UNL     1       4.139  31.998  59.633  1.00  0.00     0.155 C 
BRANCH  12  13
HETATM   13  N   UNL     1       4.920  32.527  60.732  1.00  0.00    -0.354 N 
HETATM   14  C   UNL     1       4.716  32.078  62.028  1.00  0.00     0.253 C 
HETATM   15  O   UNL     1       3.834  31.277  62.310  1.00  0.00    -0.268 OA
HETATM   16  H   UNL     1       5.726  33.108  60.535  1.00  0.00     0.162 HD
BRANCH  14  17
HETATM   17  C   UNL     1       5.657  32.641  63.037  1.00  0.00     0.053 A 
HETATM   18  C   UNL     1       7.052  32.414  62.967  1.00  0.00     0.025 A 
HETATM   19  C   UNL     1       7.850  32.990  63.976  1.00  0.00     0.025 A 
HETATM   20  C   UNL     1       7.294  33.748  65.010  1.00  0.00     0.002 A 
HETATM   21  C   UNL     1       5.920  33.949  65.071  1.00  0.00     0.001 A 
HETATM   22  C   UNL     1       5.102  33.395  64.090  1.00  0.00     0.019 A 
BRANCH  18  23
HETATM   23  N   UNL     1       7.631  31.682  61.911  1.00  0.00    -0.291 NA
HETATM   24  C   UNL     1       8.211  32.539  60.880  1.00  0.00     0.116 C 
HETATM   25  C   UNL     1       8.458  30.538  62.295  1.00  0.00     0.116 C 
ENDBRANCH  18  23
ENDBRANCH  14  17
ENDBRANCH  12  13
ENDBRANCH   1  12
BRANCH   6  26
HETATM   26  C   UNL     1       6.541  26.869  55.252  1.00  0.00     0.235 C 
BRANCH  26  27
HETATM   27  C   UNL     1       6.499  25.361  55.028  1.00  0.00     0.032 C 
BRANCH  27  28
HETATM   28  C   UNL     1       7.563  24.840  54.062  1.00  0.00     0.040 C 
BRANCH  28  29
HETATM   29  C   UNL     1       7.671  23.339  54.151  1.00  0.00    -0.058 A 
HETATM   30  C   UNL     1       7.627  22.696  55.396  1.00  0.00     0.007 A 
HETATM   31  C   UNL     1       7.768  21.310  55.481  1.00  0.00     0.001 A 
HETATM   32  C   UNL     1       7.959  20.555  54.325  1.00  0.00     0.000 A 
HETATM   33  C   UNL     1       8.003  21.184  53.083  1.00  0.00     0.001 A 
HETATM   34  C   UNL     1       7.860  22.570  52.996  1.00  0.00     0.007 A 
ENDBRANCH  28  29
ENDBRANCH  27  28
ENDBRANCH  26  27
ENDBRANCH   6  26
TORSDOF 8
ENDMDL
MODEL 8
REMARK VINA RESULT:      -9.0      1.305      1.754
REMARK  8 active torsions:
REMARK  status: ('A' for Active; 'I' for Inactive)
REMARK    1  A    between atoms: N_2  and  C_3 
REMARK    2  A    between atoms: C_4  and  C_5 
REMARK       I    between atoms: C_5  and  N_6 
REMARK    3  A    between atoms: N_6  and  C_7 
REMARK    4  A    between atoms: C_7  and  C_8 
REMARK    5  A    between atoms: N_13  and  C_15 
REMARK    6  A    between atoms: C_15  and  C_16 
REMARK    7  A    between atoms: C_16  and  C_17 
REMARK    8  A    between atoms: C_17  and  C_18 
ROOT
HETATM    1  C   UNL     1       5.755  28.933  57.502  1.00  0.00     0.140 C 
HETATM    2  O   UNL     1       5.861  28.485  56.131  1.00  0.00    -0.373 OA
HETATM    3  C   UNL     1       7.082  27.725  56.004  1.00  0.00     0.064 C 
HETATM    4  C   UNL     1       7.831  28.279  54.787  1.00  0.00     0.066 C 
HETATM    5  C   UNL     1       7.092  27.995  53.482  1.00  0.00     0.237 C 
HETATM    6  N   UNL     1       6.800  26.513  53.334  1.00  0.00    -0.071 N 
HETATM    7  H   UNL     1       6.182  26.448  52.514  1.00  0.00     0.279 HD
HETATM    8  C   UNL     1       5.965  26.035  54.503  1.00  0.00     0.237 C 
HETATM    9  C   UNL     1       6.709  26.251  55.810  1.00  0.00     0.066 C 
HETATM   10  C   UNL     1       7.866  27.932  57.308  1.00  0.00     0.041 C 
HETATM   11  C   UNL     1       7.196  29.131  57.936  1.00  0.00     0.036 C 
ENDROOT
BRANCH   1  12
HETATM   12  C   UNL     1       4.905  30.200  57.610  1.00  0.00     0.155 C 
BRANCH  12  13
HETATM   13  N   UNL     1       5.147  30.930  58.837  1.00  0.00    -0.354 N 
HETATM   14  C   UNL     1       5.703  32.200  58.809  1.00  0.00     0.253 C 
HETATM   15  O   UNL     1       6.072  32.728  57.768  1.00  0.00    -0.268 OA
HETATM   16  H   UNL     1       4.764  30.581  59.707  1.00  0.00     0.162 HD
BRANCH  14  17
HETATM   17  C   UNL     1       5.803  32.865  60.139  1.00  0.00     0.053 A 
HETATM   18  C   UNL     1       4.792  33.732  60.619  1.00  0.00     0.025 A 
HETATM   19  C   UNL     1       4.990  34.310  61.888  1.00  0.00     0.025 A 
HETATM   20  C   UNL     1       6.138  34.051  62.645  1.00  0.00     0.002 A 
HETATM   21  C   UNL     1       7.126  33.209  62.151  1.00  0.00     0.001 A 
HETATM   22  C   UNL     1       6.963  32.618  60.900  1.00  0.00     0.019 A 
BRANCH  18  23
HETATM   23  N   UNL     1       3.614  33.975  59.885  1.00  0.00    -0.291 NA
HETATM   24  C   UNL     1       2.410  33.911  60.709  1.00  0.00     0.116 C 
HETATM   25  C   UNL     1       3.657  35.096  58.946  1.00  0.00     0.116 C 
ENDBRANCH  18  23
ENDBRANCH  14  17
ENDBRANCH  12  13
ENDBRANCH   1  12
BRANCH   6  26
HETATM   26  C   UNL     1       8.039  25.704  53.002  1.00  0.00     0.235 C 
BRANCH  26  27
HETATM   27  C   UNL     1       7.758  24.425  52.222  1.00  0.00     0.032 C 
BRANCH  27  28
HETATM   28  C   UNL     1       6.762  23.482  52.899  1.00  0.00     0.040 C 
BRANCH  28  29
HETATM   29  C   UNL     1       7.487  22.439  53.711  1.00  0.00    -0.058 A 
HETATM   30  C   UNL     1       7.699  22.627  55.084  1.00  0.00     0.007 A 
HETATM   31  C   UNL     1       8.405  21.680  55.827  1.00  0.00     0.001 A 
HETATM   32  C   UNL     1       8.910  20.540  55.205  1.00  0.00     0.000 A 
HETATM   33  C   UNL     1       8.705  20.343  53.841  1.00  0.00     0.001 A 
HETATM   34  C   UNL     1       7.996  21.288  53.097  1.00  0.00     0.007 A 
ENDBRANCH  28  29
ENDBRANCH  27  28
ENDBRANCH  26  27
ENDBRANCH   6  26
TORSDOF 8
ENDMDL
MODEL 9
REMARK VINA RESULT:      -8.8      1.942      2.976
REMARK  8 active torsions:
REMARK  status: ('A' for Active; 'I' for Inactive)
REMARK    1  A    between atoms: N_2  and  C_3 
REMARK    2  A    between atoms: C_4  and  C_5 
REMARK       I    between atoms: C_5  and  N_6 
REMARK    3  A    between atoms: N_6  and  C_7 
REMARK    4  A    between atoms: C_7  and  C_8 
REMARK    5  A    between atoms: N_13  and  C_15 
REMARK    6  A    between atoms: C_15  and  C_16 
REMARK    7  A    between atoms: C_16  and  C_17 
REMARK    8  A    between atoms: C_17  and  C_18 
ROOT
HETATM    1  C   UNL     1       5.125  30.543  58.352  1.00  0.00     0.140 C 
HETATM    2  O   UNL     1       4.702  29.587  57.354  1.00  0.00    -0.373 OA
HETATM    3  C   UNL     1       5.876  29.138  56.642  1.00  0.00     0.064 C 
HETATM    4  C   UNL     1       5.569  29.268  55.146  1.00  0.00     0.066 C 
HETATM    5  C   UNL     1       4.482  28.295  54.698  1.00  0.00     0.237 C 
HETATM    6  N   UNL     1       4.839  26.869  55.077  1.00  0.00    -0.071 N 
HETATM    7  H   UNL     1       3.993  26.323  54.869  1.00  0.00     0.279 HD
HETATM    8  C   UNL     1       5.024  26.767  56.576  1.00  0.00     0.237 C 
HETATM    9  C   UNL     1       6.146  27.682  57.035  1.00  0.00     0.066 C 
HETATM   10  C   UNL     1       7.030  30.053  57.077  1.00  0.00     0.041 C 
HETATM   11  C   UNL     1       6.328  31.224  57.723  1.00  0.00     0.036 C 
ENDROOT
BRANCH   1  12
HETATM   12  C   UNL     1       3.996  31.510  58.711  1.00  0.00     0.155 C 
BRANCH  12  13
HETATM   13  N   UNL     1       4.470  32.687  59.410  1.00  0.00    -0.354 N 
HETATM   14  C   UNL     1       3.590  33.497  60.111  1.00  0.00     0.253 C 
HETATM   15  O   UNL     1       2.382  33.299  60.116  1.00  0.00    -0.268 OA
HETATM   16  H   UNL     1       5.466  32.831  59.522  1.00  0.00     0.162 HD
BRANCH  14  17
HETATM   17  C   UNL     1       4.235  34.615  60.859  1.00  0.00     0.053 A 
HETATM   18  C   UNL     1       5.262  34.385  61.805  1.00  0.00     0.025 A 
HETATM   19  C   UNL     1       5.799  35.513  62.458  1.00  0.00     0.025 A 
HETATM   20  C   UNL     1       5.336  36.806  62.194  1.00  0.00     0.002 A 
HETATM   21  C   UNL     1       4.317  37.010  61.272  1.00  0.00     0.001 A 
HETATM   22  C   UNL     1       3.764  35.918  60.607  1.00  0.00     0.019 A 
BRANCH  18  23
HETATM   23  N   UNL     1       5.764  33.093  62.056  1.00  0.00    -0.291 NA
HETATM   24  C   UNL     1       7.178  32.959  61.719  1.00  0.00     0.116 C 
HETATM   25  C   UNL     1       5.376  32.485  63.329  1.00  0.00     0.116 C 
ENDBRANCH  18  23
ENDBRANCH  14  17
ENDBRANCH  12  13
ENDBRANCH   1  12
BRANCH   6  26
HETATM   26  C   UNL     1       5.942  26.293  54.210  1.00  0.00     0.235 C 
BRANCH  26  27
HETATM   27  C   UNL     1       6.053  24.774  54.268  1.00  0.00     0.032 C 
BRANCH  27  28
HETATM   28  C   UNL     1       7.166  24.191  53.397  1.00  0.00     0.040 C 
BRANCH  28  29
HETATM   29  C   UNL     1       7.564  22.823  53.888  1.00  0.00    -0.058 A 
HETATM   30  C   UNL     1       7.903  21.812  52.978  1.00  0.00     0.007 A 
HETATM   31  C   UNL     1       8.232  20.533  53.433  1.00  0.00     0.001 A 
HETATM   32  C   UNL     1       8.220  20.253  54.798  1.00  0.00     0.000 A 
HETATM   33  C   UNL     1       7.885  21.251  55.710  1.00  0.00     0.001 A 
HETATM   34  C   UNL     1       7.558  22.531  55.258  1.00  0.00     0.007 A 
ENDBRANCH  28  29
ENDBRANCH  27  28
ENDBRANCH  26  27
ENDBRANCH   6  26
TORSDOF 8
ENDMDL
MODEL 10
REMARK VINA RESULT:      -8.6      5.857     10.362
REMARK  8 active torsions:
REMARK  status: ('A' for Active; 'I' for Inactive)
REMARK    1  A    between atoms: N_2  and  C_3 
REMARK    2  A    between atoms: C_4  and  C_5 
REMARK       I    between atoms: C_5  and  N_6 
REMARK    3  A    between atoms: N_6  and  C_7 
REMARK    4  A    between atoms: C_7  and  C_8 
REMARK    5  A    between atoms: N_13  and  C_15 
REMARK    6  A    between atoms: C_15  and  C_16 
REMARK    7  A    between atoms: C_16  and  C_17 
REMARK    8  A    between atoms: C_17  and  C_18 
ROOT
HETATM    1  C   UNL     1       5.579  28.246  50.441  1.00  0.00     0.140 C 
HETATM    2  O   UNL     1       5.679  28.287  51.882  1.00  0.00    -0.373 OA
HETATM    3  C   UNL     1       5.662  26.927  52.368  1.00  0.00     0.064 C 
HETATM    4  C   UNL     1       4.612  26.863  53.484  1.00  0.00     0.066 C 
HETATM    5  C   UNL     1       5.025  27.676  54.706  1.00  0.00     0.237 C 
HETATM    6  N   UNL     1       6.397  27.255  55.202  1.00  0.00    -0.071 N 
HETATM    7  H   UNL     1       6.641  27.951  55.920  1.00  0.00     0.279 HD
HETATM    8  C   UNL     1       7.419  27.442  54.101  1.00  0.00     0.237 C 
HETATM    9  C   UNL     1       7.061  26.590  52.895  1.00  0.00     0.066 C 
HETATM   10  C   UNL     1       5.290  26.038  51.173  1.00  0.00     0.041 C 
HETATM   11  C   UNL     1       4.733  27.016  50.166  1.00  0.00     0.036 C 
ENDROOT
BRANCH   1  12
HETATM   12  C   UNL     1       4.974  29.539  49.889  1.00  0.00     0.155 C 
BRANCH  12  13
HETATM   13  N   UNL     1       3.734  29.313  49.175  1.00  0.00    -0.354 N 
HETATM   14  C   UNL     1       3.735  29.080  47.809  1.00  0.00     0.253 C 
HETATM   15  O   UNL     1       4.760  29.120  47.140  1.00  0.00    -0.268 OA
HETATM   16  H   UNL     1       2.879  29.167  49.698  1.00  0.00     0.162 HD
BRANCH  14  17
HETATM   17  C   UNL     1       2.397  28.770  47.229  1.00  0.00     0.053 A 
HETATM   18  C   UNL     1       1.490  29.791  46.858  1.00  0.00     0.025 A 
HETATM   19  C   UNL     1       0.250  29.386  46.323  1.00  0.00     0.025 A 
HETATM   20  C   UNL     1      -0.080  28.036  46.171  1.00  0.00     0.002 A 
HETATM   21  C   UNL     1       0.818  27.048  46.555  1.00  0.00     0.001 A 
HETATM   22  C   UNL     1       2.053  27.412  47.086  1.00  0.00     0.019 A 
BRANCH  18  23
HETATM   23  N   UNL     1       1.821  31.155  46.971  1.00  0.00    -0.291 NA
HETATM   24  C   UNL     1       2.056  31.790  45.677  1.00  0.00     0.116 C 
HETATM   25  C   UNL     1       1.013  31.942  47.903  1.00  0.00     0.116 C 
ENDBRANCH  18  23
ENDBRANCH  14  17
ENDBRANCH  12  13
ENDBRANCH   1  12
BRANCH   6  26
HETATM   26  C   UNL     1       6.378  25.909  55.899  1.00  0.00     0.235 C 
BRANCH  26  27
HETATM   27  C   UNL     1       7.728  25.202  55.926  1.00  0.00     0.032 C 
BRANCH  27  28
HETATM   28  C   UNL     1       7.677  23.769  56.457  1.00  0.00     0.040 C 
BRANCH  28  29
HETATM   29  C   UNL     1       7.806  22.779  55.328  1.00  0.00    -0.058 A 
HETATM   30  C   UNL     1       7.869  23.221  53.999  1.00  0.00     0.007 A 
HETATM   31  C   UNL     1       7.948  22.302  52.951  1.00  0.00     0.001 A 
HETATM   32  C   UNL     1       7.960  20.935  53.221  1.00  0.00     0.000 A 
HETATM   33  C   UNL     1       7.898  20.485  54.538  1.00  0.00     0.001 A 
HETATM   34  C   UNL     1       7.821  21.403  55.587  1.00  0.00     0.007 A 
ENDBRANCH  28  29
ENDBRANCH  27  28
ENDBRANCH  26  27
ENDBRANCH   6  26
TORSDOF 8
ENDMDL
