MODEL 1
REMARK VINA RESULT:      -8.4      0.000      0.000
REMARK  6 active torsions:
REMARK  status: ('A' for Active; 'I' for Inactive)
REMARK    1  A    between atoms: C_9  and  C_10 
REMARK    2  A    between atoms: C_12  and  O_13 
REMARK    3  A    between atoms: C_15  and  O_16 
REMARK    4  A    between atoms: O_16  and  C_17 
REMARK    5  A    between atoms: C_17  and  C_18 
REMARK    6  A    between atoms: C_18  and  N_19 
ROOT
HETATM    1  H   UNL     1       3.072  32.515  60.126  1.00  0.00     0.186 HD
HETATM    2  N   UNL     1       3.128  31.901  59.299  1.00  0.00    -0.304 NA
HETATM    3  C   UNL     1       4.203  31.999  58.581  1.00  0.00     0.062 C 
HETATM    4  C   UNL     1       4.373  31.102  57.341  1.00  0.00     0.186 C 
HETATM    5  C   UNL     1       3.147  30.338  57.040  1.00  0.00     0.091 C 
HETATM    6  N   UNL     1       2.247  29.665  56.746  1.00  0.00    -0.195 NA
HETATM    7  C   UNL     1       4.731  31.961  56.203  1.00  0.00     0.091 C 
HETATM    8  N   UNL     1       5.142  32.641  55.356  1.00  0.00    -0.195 NA
HETATM    9  C   UNL     1       5.535  30.106  57.712  1.00  0.00     0.071 C 
HETATM   10  C   UNL     1       6.860  30.847  58.116  1.00  0.00     0.053 C 
HETATM   11  C   UNL     1       6.580  31.899  59.207  1.00  0.00    -0.053 C 
HETATM   12  C   UNL     1       7.349  31.933  60.321  1.00  0.00     0.005 C 
HETATM   13  C   UNL     1       5.409  32.875  58.943  1.00  0.00     0.157 C 
HETATM   14  C   UNL     1       5.123  33.753  60.150  1.00  0.00    -0.005 C 
HETATM   15  N   UNL     1       4.886  34.481  61.153  1.00  0.00    -0.101 N 
HETATM   16  C   UNL     1       7.936  29.802  58.546  1.00  0.00     0.244 C 
HETATM   17  N   UNL     1       9.056  30.415  59.343  1.00  0.00    -0.071 N 
HETATM   18  H   UNL     1       9.651  29.640  59.667  1.00  0.00     0.279 HD
HETATM   19  C   UNL     1       9.975  31.302  58.549  1.00  0.00     0.270 C 
HETATM   20  C   UNL     1       8.536  31.064  60.591  1.00  0.00     0.262 C 
ENDROOT
BRANCH   9  21
HETATM   21  C   UNL     1       5.765  28.968  56.705  1.00  0.00    -0.047 A 
HETATM   22  C   UNL     1       6.283  29.166  55.418  1.00  0.00     0.047 A 
HETATM   23  C   UNL     1       6.343  28.101  54.501  1.00  0.00     0.102 A 
HETATM   24  C   UNL     1       5.981  26.799  54.874  1.00  0.00     0.102 A 
HETATM   25  C   UNL     1       5.538  26.583  56.176  1.00  0.00     0.040 A 
HETATM   26  C   UNL     1       5.408  27.657  57.070  1.00  0.00     0.010 A 
BRANCH  23  27
HETATM   27  O   UNL     1       6.799  28.297  53.218  1.00  0.00    -0.353 OA
HETATM   28  C   UNL     1       5.751  28.691  52.325  1.00  0.00     0.210 C 
ENDBRANCH  23  27
BRANCH  24  29
HETATM   29  O   UNL     1       6.074  25.839  53.897  1.00  0.00    -0.347 OA
BRANCH  29  30
HETATM   30  C   UNL     1       6.442  24.516  54.294  1.00  0.00     0.203 C 
BRANCH  30  31
HETATM   31  C   UNL     1       7.973  24.446  54.378  1.00  0.00     0.261 C 
BRANCH  31  32
HETATM   32  N   UNL     1       8.488  23.022  54.268  1.00  0.00    -0.065 N 
HETATM   33  H   UNL     1       9.475  23.100  53.970  1.00  0.00     0.280 HD
HETATM   34  C   UNL     1       8.462  22.253  55.583  1.00  0.00     0.261 C 
HETATM   35  C   UNL     1       8.963  20.820  55.359  1.00  0.00     0.195 C 
HETATM   36  O   UNL     1       8.177  20.155  54.367  1.00  0.00    -0.388 OA
HETATM   37  C   UNL     1       8.261  20.814  53.099  1.00  0.00     0.195 C 
HETATM   38  C   UNL     1       7.728  22.246  53.192  1.00  0.00     0.261 C 
ENDBRANCH  31  32
ENDBRANCH  30  31
ENDBRANCH  29  30
ENDBRANCH  24  29
ENDBRANCH   9  21
TORSDOF 6
ENDMDL
MODEL 2
REMARK VINA RESULT:      -8.0      2.368      4.616
REMARK  6 active torsions:
REMARK  status: ('A' for Active; 'I' for Inactive)
REMARK    1  A    between atoms: C_9  and  C_10 
REMARK    2  A    between atoms: C_12  and  O_13 
REMARK    3  A    between atoms: C_15  and  O_16 
REMARK    4  A    between atoms: O_16  and  C_17 
REMARK    5  A    between atoms: C_17  and  C_18 
REMARK    6  A    between atoms: C_18  and  N_19 
ROOT
HETATM    1  H   UNL     1       4.545  34.956  56.355  1.00  0.00     0.186 HD
HETATM    2  N   UNL     1       4.978  34.161  56.850  1.00  0.00    -0.304 NA
HETATM    3  C   UNL     1       4.415  33.006  56.686  1.00  0.00     0.062 C 
HETATM    4  C   UNL     1       5.012  31.765  57.374  1.00  0.00     0.186 C 
HETATM    5  C   UNL     1       6.100  32.120  58.306  1.00  0.00     0.091 C 
HETATM    6  N   UNL     1       6.992  32.294  59.028  1.00  0.00    -0.195 NA
HETATM    7  C   UNL     1       3.929  31.077  58.093  1.00  0.00     0.091 C 
HETATM    8  N   UNL     1       3.036  30.483  58.537  1.00  0.00    -0.195 NA
HETATM    9  C   UNL     1       5.590  30.884  56.203  1.00  0.00     0.071 C 
HETATM   10  C   UNL     1       4.504  30.522  55.127  1.00  0.00     0.053 C 
HETATM   11  C   UNL     1       3.779  31.794  54.641  1.00  0.00    -0.053 C 
HETATM   12  C   UNL     1       3.641  32.023  53.315  1.00  0.00     0.005 C 
HETATM   13  C   UNL     1       3.238  32.743  55.737  1.00  0.00     0.157 C 
HETATM   14  C   UNL     1       2.694  34.033  55.146  1.00  0.00    -0.005 C 
HETATM   15  N   UNL     1       2.243  35.105  54.655  1.00  0.00    -0.101 N 
HETATM   16  C   UNL     1       5.164  29.721  53.962  1.00  0.00     0.244 C 
HETATM   17  N   UNL     1       4.324  29.710  52.714  1.00  0.00    -0.071 N 
HETATM   18  H   UNL     1       4.885  29.255  51.980  1.00  0.00     0.279 HD
HETATM   19  C   UNL     1       3.071  28.883  52.812  1.00  0.00     0.270 C 
HETATM   20  C   UNL     1       4.078  31.104  52.218  1.00  0.00     0.262 C 
ENDROOT
BRANCH   9  21
HETATM   21  C   UNL     1       6.423  29.672  56.648  1.00  0.00    -0.047 A 
HETATM   22  C   UNL     1       7.823  29.668  56.690  1.00  0.00     0.047 A 
HETATM   23  C   UNL     1       8.525  28.483  56.977  1.00  0.00     0.102 A 
HETATM   24  C   UNL     1       7.852  27.303  57.323  1.00  0.00     0.102 A 
HETATM   25  C   UNL     1       6.459  27.324  57.357  1.00  0.00     0.040 A 
HETATM   26  C   UNL     1       5.756  28.484  57.001  1.00  0.00     0.010 A 
BRANCH  23  27
HETATM   27  O   UNL     1       9.901  28.456  56.967  1.00  0.00    -0.353 OA
HETATM   28  C   UNL     1      10.468  29.768  56.881  1.00  0.00     0.210 C 
ENDBRANCH  23  27
BRANCH  24  29
HETATM   29  O   UNL     1       8.637  26.208  57.578  1.00  0.00    -0.347 OA
BRANCH  29  30
HETATM   30  C   UNL     1       8.032  24.916  57.484  1.00  0.00     0.203 C 
BRANCH  30  31
HETATM   31  C   UNL     1       8.928  24.024  56.613  1.00  0.00     0.261 C 
BRANCH  31  32
HETATM   32  N   UNL     1       8.175  23.430  55.437  1.00  0.00    -0.065 N 
HETATM   33  H   UNL     1       7.311  23.022  55.831  1.00  0.00     0.280 HD
HETATM   34  C   UNL     1       7.765  24.453  54.385  1.00  0.00     0.261 C 
HETATM   35  C   UNL     1       7.049  23.749  53.226  1.00  0.00     0.195 C 
HETATM   36  O   UNL     1       7.879  22.737  52.652  1.00  0.00    -0.388 OA
HETATM   37  C   UNL     1       8.201  21.718  53.603  1.00  0.00     0.195 C 
HETATM   38  C   UNL     1       8.978  22.302  54.787  1.00  0.00     0.261 C 
ENDBRANCH  31  32
ENDBRANCH  30  31
ENDBRANCH  29  30
ENDBRANCH  24  29
ENDBRANCH   9  21
TORSDOF 6
ENDMDL
MODEL 3
REMARK VINA RESULT:      -8.0      3.947      9.551
REMARK  6 active torsions:
REMARK  status: ('A' for Active; 'I' for Inactive)
REMARK    1  A    between atoms: C_9  and  C_10 
REMARK    2  A    between atoms: C_12  and  O_13 
REMARK    3  A    between atoms: C_15  and  O_16 
REMARK    4  A    between atoms: O_16  and  C_17 
REMARK    5  A    between atoms: C_17  and  C_18 
REMARK    6  A    between atoms: C_18  and  N_19 
ROOT
HETATM    1  H   UNL     1       4.080  25.229  52.402  1.00  0.00     0.186 HD
HETATM    2  N   UNL     1       4.370  25.688  53.280  1.00  0.00    -0.304 NA
HETATM    3  C   UNL     1       5.011  26.807  53.160  1.00  0.00     0.062 C 
HETATM    4  C   UNL     1       5.460  27.565  54.422  1.00  0.00     0.186 C 
HETATM    5  C   UNL     1       5.229  26.779  55.650  1.00  0.00     0.091 C 
HETATM    6  N   UNL     1       5.049  26.258  56.671  1.00  0.00    -0.195 NA
HETATM    7  C   UNL     1       6.889  27.880  54.280  1.00  0.00     0.091 C 
HETATM    8  N   UNL     1       7.978  28.232  54.085  1.00  0.00    -0.195 NA
HETATM    9  C   UNL     1       4.574  28.866  54.457  1.00  0.00     0.071 C 
HETATM   10  C   UNL     1       4.710  29.725  53.149  1.00  0.00     0.053 C 
HETATM   11  C   UNL     1       4.471  28.851  51.901  1.00  0.00    -0.053 C 
HETATM   12  C   UNL     1       3.611  29.268  50.943  1.00  0.00     0.005 C 
HETATM   13  C   UNL     1       5.261  27.523  51.826  1.00  0.00     0.157 C 
HETATM   14  C   UNL     1       4.825  26.674  50.643  1.00  0.00    -0.005 C 
HETATM   15  N   UNL     1       4.461  25.969  49.661  1.00  0.00    -0.101 N 
HETATM   16  C   UNL     1       3.746  30.951  53.222  1.00  0.00     0.244 C 
HETATM   17  N   UNL     1       3.490  31.569  51.874  1.00  0.00    -0.071 N 
HETATM   18  H   UNL     1       2.769  32.292  52.010  1.00  0.00     0.279 HD
HETATM   19  C   UNL     1       4.667  32.301  51.289  1.00  0.00     0.270 C 
HETATM   20  C   UNL     1       2.881  30.574  50.931  1.00  0.00     0.262 C 
ENDROOT
BRANCH   9  21
HETATM   21  C   UNL     1       4.693  29.703  55.740  1.00  0.00    -0.047 A 
HETATM   22  C   UNL     1       5.911  30.174  56.248  1.00  0.00     0.047 A 
HETATM   23  C   UNL     1       5.963  30.819  57.497  1.00  0.00     0.102 A 
HETATM   24  C   UNL     1       4.795  31.095  58.222  1.00  0.00     0.102 A 
HETATM   25  C   UNL     1       3.574  30.696  57.685  1.00  0.00     0.040 A 
HETATM   26  C   UNL     1       3.526  29.989  56.474  1.00  0.00     0.010 A 
BRANCH  23  27
HETATM   27  O   UNL     1       7.161  31.237  58.028  1.00  0.00    -0.353 OA
HETATM   28  C   UNL     1       7.984  30.139  58.438  1.00  0.00     0.210 C 
ENDBRANCH  23  27
BRANCH  24  29
HETATM   29  O   UNL     1       4.965  31.723  59.430  1.00  0.00    -0.347 OA
BRANCH  29  30
HETATM   30  C   UNL     1       4.409  33.031  59.586  1.00  0.00     0.203 C 
BRANCH  30  31
HETATM   31  C   UNL     1       3.332  32.971  60.679  1.00  0.00     0.261 C 
BRANCH  31  32
HETATM   32  N   UNL     1       3.838  33.493  62.011  1.00  0.00    -0.065 N 
HETATM   33  H   UNL     1       4.393  34.337  61.792  1.00  0.00     0.280 HD
HETATM   34  C   UNL     1       2.731  33.905  62.973  1.00  0.00     0.261 C 
HETATM   35  C   UNL     1       3.342  34.380  64.298  1.00  0.00     0.195 C 
HETATM   36  O   UNL     1       4.163  33.361  64.875  1.00  0.00    -0.388 OA
HETATM   37  C   UNL     1       5.261  33.024  64.023  1.00  0.00     0.195 C 
HETATM   38  C   UNL     1       4.765  32.478  62.682  1.00  0.00     0.261 C 
ENDBRANCH  31  32
ENDBRANCH  30  31
ENDBRANCH  29  30
ENDBRANCH  24  29
ENDBRANCH   9  21
TORSDOF 6
ENDMDL
MODEL 4
REMARK VINA RESULT:      -7.8      3.912      6.275
REMARK  6 active torsions:
REMARK  status: ('A' for Active; 'I' for Inactive)
REMARK    1  A    between atoms: C_9  and  C_10 
REMARK    2  A    between atoms: C_12  and  O_13 
REMARK    3  A    between atoms: C_15  and  O_16 
REMARK    4  A    between atoms: O_16  and  C_17 
REMARK    5  A    between atoms: C_17  and  C_18 
REMARK    6  A    between atoms: C_18  and  N_19 
ROOT
HETATM    1  H   UNL     1       4.267  33.631  65.388  1.00  0.00     0.186 HD
HETATM    2  N   UNL     1       3.915  33.763  64.428  1.00  0.00    -0.304 NA
HETATM    3  C   UNL     1       4.794  34.081  63.531  1.00  0.00     0.062 C 
HETATM    4  C   UNL     1       4.352  34.276  62.069  1.00  0.00     0.186 C 
HETATM    5  C   UNL     1       2.884  34.232  61.925  1.00  0.00     0.091 C 
HETATM    6  N   UNL     1       1.746  34.172  61.705  1.00  0.00    -0.195 NA
HETATM    7  C   UNL     1       4.871  35.570  61.604  1.00  0.00     0.091 C 
HETATM    8  N   UNL     1       5.403  36.528  61.222  1.00  0.00    -0.195 NA
HETATM    9  C   UNL     1       4.992  33.071  61.283  1.00  0.00     0.071 C 
HETATM   10  C   UNL     1       6.554  33.006  61.445  1.00  0.00     0.053 C 
HETATM   11  C   UNL     1       6.944  33.045  62.936  1.00  0.00    -0.053 C 
HETATM   12  C   UNL     1       7.812  32.131  63.428  1.00  0.00     0.005 C 
HETATM   13  C   UNL     1       6.304  34.166  63.789  1.00  0.00     0.157 C 
HETATM   14  C   UNL     1       6.630  34.006  65.266  1.00  0.00    -0.005 C 
HETATM   15  N   UNL     1       6.901  33.873  66.491  1.00  0.00    -0.101 N 
HETATM   16  C   UNL     1       7.107  31.746  60.709  1.00  0.00     0.244 C 
HETATM   17  N   UNL     1       8.491  31.368  61.162  1.00  0.00    -0.071 N 
HETATM   18  H   UNL     1       8.723  30.476  60.704  1.00  0.00     0.279 HD
HETATM   19  C   UNL     1       9.572  32.320  60.725  1.00  0.00     0.270 C 
HETATM   20  C   UNL     1       8.516  31.076  62.633  1.00  0.00     0.262 C 
ENDROOT
BRANCH   9  21
HETATM   21  C   UNL     1       4.533  32.925  59.824  1.00  0.00    -0.047 A 
HETATM   22  C   UNL     1       4.829  33.858  58.821  1.00  0.00     0.047 A 
HETATM   23  C   UNL     1       4.266  33.732  57.539  1.00  0.00     0.102 A 
HETATM   24  C   UNL     1       3.475  32.626  57.198  1.00  0.00     0.102 A 
HETATM   25  C   UNL     1       3.241  31.656  58.169  1.00  0.00     0.040 A 
HETATM   26  C   UNL     1       3.742  31.816  59.469  1.00  0.00     0.010 A 
BRANCH  23  27
HETATM   27  O   UNL     1       4.507  34.673  56.565  1.00  0.00    -0.353 OA
HETATM   28  C   UNL     1       3.929  35.943  56.884  1.00  0.00     0.210 C 
ENDBRANCH  23  27
BRANCH  24  29
HETATM   29  O   UNL     1       2.973  32.609  55.921  1.00  0.00    -0.347 OA
BRANCH  29  30
HETATM   30  C   UNL     1       3.138  31.413  55.154  1.00  0.00     0.203 C 
BRANCH  30  31
HETATM   31  C   UNL     1       4.616  31.294  54.757  1.00  0.00     0.261 C 
BRANCH  31  32
HETATM   32  N   UNL     1       5.247  30.016  55.278  1.00  0.00    -0.065 N 
HETATM   33  H   UNL     1       5.811  29.640  54.498  1.00  0.00     0.280 HD
HETATM   34  C   UNL     1       6.180  30.226  56.464  1.00  0.00     0.261 C 
HETATM   35  C   UNL     1       6.733  28.877  56.938  1.00  0.00     0.195 C 
HETATM   36  O   UNL     1       5.672  27.982  57.281  1.00  0.00    -0.388 OA
HETATM   37  C   UNL     1       4.835  27.701  56.156  1.00  0.00     0.195 C 
HETATM   38  C   UNL     1       4.178  28.980  55.631  1.00  0.00     0.261 C 
ENDBRANCH  31  32
ENDBRANCH  30  31
ENDBRANCH  29  30
ENDBRANCH  24  29
ENDBRANCH   9  21
TORSDOF 6
ENDMDL
MODEL 5
REMARK VINA RESULT:      -7.7      3.024      6.064
REMARK  6 active torsions:
REMARK  status: ('A' for Active; 'I' for Inactive)
REMARK    1  A    between atoms: C_9  and  C_10 
REMARK    2  A    between atoms: C_12  and  O_13 
REMARK    3  A    between atoms: C_15  and  O_16 
REMARK    4  A    between atoms: O_16  and  C_17 
REMARK    5  A    between atoms: C_17  and  C_18 
REMARK    6  A    between atoms: C_18  and  N_19 
ROOT
HETATM    1  H   UNL     1       6.948  34.932  65.354  1.00  0.00     0.186 HD
HETATM    2  N   UNL     1       7.145  34.196  64.658  1.00  0.00    -0.304 NA
HETATM    3  C   UNL     1       6.130  33.756  63.983  1.00  0.00     0.062 C 
HETATM    4  C   UNL     1       6.343  32.672  62.911  1.00  0.00     0.186 C 
HETATM    5  C   UNL     1       7.721  32.143  62.925  1.00  0.00     0.091 C 
HETATM    6  N   UNL     1       8.788  31.695  62.832  1.00  0.00    -0.195 NA
HETATM    7  C   UNL     1       5.380  31.589  63.159  1.00  0.00     0.091 C 
HETATM    8  N   UNL     1       4.525  30.817  63.296  1.00  0.00    -0.195 NA
HETATM    9  C   UNL     1       6.073  33.394  61.538  1.00  0.00     0.071 C 
HETATM   10  C   UNL     1       4.646  34.047  61.470  1.00  0.00     0.053 C 
HETATM   11  C   UNL     1       4.405  34.949  62.697  1.00  0.00    -0.053 C 
HETATM   12  C   UNL     1       3.943  36.209  62.525  1.00  0.00     0.005 C 
HETATM   13  C   UNL     1       4.710  34.329  64.081  1.00  0.00     0.157 C 
HETATM   14  C   UNL     1       4.595  35.356  65.197  1.00  0.00    -0.005 C 
HETATM   15  N   UNL     1       4.500  36.208  66.122  1.00  0.00    -0.101 N 
HETATM   16  C   UNL     1       4.480  34.809  60.118  1.00  0.00     0.244 C 
HETATM   17  N   UNL     1       3.350  35.803  60.145  1.00  0.00    -0.071 N 
HETATM   18  H   UNL     1       3.389  36.324  59.258  1.00  0.00     0.279 HD
HETATM   19  C   UNL     1       1.978  35.188  60.173  1.00  0.00     0.270 C 
HETATM   20  C   UNL     1       3.562  36.830  61.218  1.00  0.00     0.262 C 
ENDROOT
BRANCH   9  21
HETATM   21  C   UNL     1       6.416  32.569  60.288  1.00  0.00    -0.047 A 
HETATM   22  C   UNL     1       5.451  31.968  59.467  1.00  0.00     0.047 A 
HETATM   23  C   UNL     1       5.838  31.116  58.417  1.00  0.00     0.102 A 
HETATM   24  C   UNL     1       7.190  30.920  58.099  1.00  0.00     0.102 A 
HETATM   25  C   UNL     1       8.150  31.577  58.864  1.00  0.00     0.040 A 
HETATM   26  C   UNL     1       7.769  32.369  59.957  1.00  0.00     0.010 A 
BRANCH  23  27
HETATM   27  O   UNL     1       4.898  30.478  57.641  1.00  0.00    -0.353 OA
HETATM   28  C   UNL     1       3.560  30.796  58.039  1.00  0.00     0.210 C 
ENDBRANCH  23  27
BRANCH  24  29
HETATM   29  O   UNL     1       7.451  30.064  57.059  1.00  0.00    -0.347 OA
BRANCH  29  30
HETATM   30  C   UNL     1       8.403  29.020  57.276  1.00  0.00     0.203 C 
BRANCH  30  31
HETATM   31  C   UNL     1       7.645  27.758  57.710  1.00  0.00     0.261 C 
BRANCH  31  32
HETATM   32  N   UNL     1       7.522  26.748  56.584  1.00  0.00    -0.065 N 
HETATM   33  H   UNL     1       8.124  27.100  55.821  1.00  0.00     0.280 HD
HETATM   34  C   UNL     1       8.009  25.352  56.950  1.00  0.00     0.261 C 
HETATM   35  C   UNL     1       7.807  24.401  55.764  1.00  0.00     0.195 C 
HETATM   36  O   UNL     1       6.435  24.370  55.363  1.00  0.00    -0.388 OA
HETATM   37  C   UNL     1       5.983  25.657  54.929  1.00  0.00     0.195 C 
HETATM   38  C   UNL     1       6.086  26.681  56.062  1.00  0.00     0.261 C 
ENDBRANCH  31  32
ENDBRANCH  30  31
ENDBRANCH  29  30
ENDBRANCH  24  29
ENDBRANCH   9  21
TORSDOF 6
ENDMDL
MODEL 6
REMARK VINA RESULT:      -7.6      3.320      5.888
REMARK  6 active torsions:
REMARK  status: ('A' for Active; 'I' for Inactive)
REMARK    1  A    between atoms: C_9  and  C_10 
REMARK    2  A    between atoms: C_12  and  O_13 
REMARK    3  A    between atoms: C_15  and  O_16 
REMARK    4  A    between atoms: O_16  and  C_17 
REMARK    5  A    between atoms: C_17  and  C_18 
REMARK    6  A    between atoms: C_18  and  N_19 
ROOT
HETATM    1  H   UNL     1      10.437  31.389  58.255  1.00  0.00     0.186 HD
HETATM    2  N   UNL     1       9.977  30.792  57.551  1.00  0.00    -0.304 NA
HETATM    3  C   UNL     1       8.900  30.181  57.931  1.00  0.00     0.062 C 
HETATM    4  C   UNL     1       8.141  29.286  56.934  1.00  0.00     0.186 C 
HETATM    5  C   UNL     1       8.885  29.112  55.671  1.00  0.00     0.091 C 
HETATM    6  N   UNL     1       9.373  28.950  54.631  1.00  0.00    -0.195 NA
HETATM    7  C   UNL     1       7.912  27.982  57.574  1.00  0.00     0.091 C 
HETATM    8  N   UNL     1       7.628  27.014  58.148  1.00  0.00    -0.195 NA
HETATM    9  C   UNL     1       6.791  30.043  56.647  1.00  0.00     0.071 C 
HETATM   10  C   UNL     1       5.970  30.331  57.956  1.00  0.00     0.053 C 
HETATM   11  C   UNL     1       6.856  31.029  59.007  1.00  0.00    -0.053 C 
HETATM   12  C   UNL     1       6.411  32.148  59.625  1.00  0.00     0.005 C 
HETATM   13  C   UNL     1       8.229  30.377  59.297  1.00  0.00     0.157 C 
HETATM   14  C   UNL     1       9.077  31.236  60.221  1.00  0.00    -0.005 C 
HETATM   15  N   UNL     1       9.781  31.950  60.987  1.00  0.00    -0.101 N 
HETATM   16  C   UNL     1       4.690  31.151  57.604  1.00  0.00     0.244 C 
HETATM   17  N   UNL     1       4.087  31.831  58.804  1.00  0.00    -0.071 N 
HETATM   18  H   UNL     1       3.321  32.425  58.457  1.00  0.00     0.279 HD
HETATM   19  C   UNL     1       3.437  30.898  59.789  1.00  0.00     0.270 C 
HETATM   20  C   UNL     1       5.066  32.775  59.437  1.00  0.00     0.262 C 
ENDROOT
BRANCH   9  21
HETATM   21  C   UNL     1       5.934  29.447  55.520  1.00  0.00    -0.047 A 
HETATM   22  C   UNL     1       5.780  28.070  55.309  1.00  0.00     0.047 A 
HETATM   23  C   UNL     1       5.092  27.594  54.179  1.00  0.00     0.102 A 
HETATM   24  C   UNL     1       4.460  28.472  53.288  1.00  0.00     0.102 A 
HETATM   25  C   UNL     1       4.545  29.840  53.536  1.00  0.00     0.040 A 
HETATM   26  C   UNL     1       5.292  30.320  54.622  1.00  0.00     0.010 A 
BRANCH  23  27
HETATM   27  O   UNL     1       4.983  26.244  53.935  1.00  0.00    -0.353 OA
HETATM   28  C   UNL     1       6.198  25.686  53.424  1.00  0.00     0.210 C 
ENDBRANCH  23  27
BRANCH  24  29
HETATM   29  O   UNL     1       3.822  27.897  52.217  1.00  0.00    -0.347 OA
BRANCH  29  30
HETATM   30  C   UNL     1       4.355  28.140  50.913  1.00  0.00     0.203 C 
BRANCH  30  31
HETATM   31  C   UNL     1       3.205  28.577  49.995  1.00  0.00     0.261 C 
BRANCH  31  32
HETATM   32  N   UNL     1       2.719  27.445  49.108  1.00  0.00    -0.065 N 
HETATM   33  H   UNL     1       2.014  26.932  49.664  1.00  0.00     0.280 HD
HETATM   34  C   UNL     1       2.044  27.913  47.825  1.00  0.00     0.261 C 
HETATM   35  C   UNL     1       1.626  26.700  46.984  1.00  0.00     0.195 C 
HETATM   36  O   UNL     1       2.752  25.870  46.690  1.00  0.00    -0.388 OA
HETATM   37  C   UNL     1       3.346  25.348  47.882  1.00  0.00     0.195 C 
HETATM   38  C   UNL     1       3.858  26.479  48.779  1.00  0.00     0.261 C 
ENDBRANCH  31  32
ENDBRANCH  30  31
ENDBRANCH  29  30
ENDBRANCH  24  29
ENDBRANCH   9  21
TORSDOF 6
ENDMDL
MODEL 7
REMARK VINA RESULT:      -7.4      3.983      9.592
REMARK  6 active torsions:
REMARK  status: ('A' for Active; 'I' for Inactive)
REMARK    1  A    between atoms: C_9  and  C_10 
REMARK    2  A    between atoms: C_12  and  O_13 
REMARK    3  A    between atoms: C_15  and  O_16 
REMARK    4  A    between atoms: O_16  and  C_17 
REMARK    5  A    between atoms: C_17  and  C_18 
REMARK    6  A    between atoms: C_18  and  N_19 
ROOT
HETATM    1  H   UNL     1       4.087  25.223  52.419  1.00  0.00     0.186 HD
HETATM    2  N   UNL     1       4.364  25.687  53.298  1.00  0.00    -0.304 NA
HETATM    3  C   UNL     1       4.999  26.810  53.178  1.00  0.00     0.062 C 
HETATM    4  C   UNL     1       5.430  27.578  54.442  1.00  0.00     0.186 C 
HETATM    5  C   UNL     1       5.190  26.796  55.671  1.00  0.00     0.091 C 
HETATM    6  N   UNL     1       5.003  26.279  56.693  1.00  0.00    -0.195 NA
HETATM    7  C   UNL     1       6.858  27.901  54.314  1.00  0.00     0.091 C 
HETATM    8  N   UNL     1       7.947  28.259  54.129  1.00  0.00    -0.195 NA
HETATM    9  C   UNL     1       4.535  28.873  54.461  1.00  0.00     0.071 C 
HETATM   10  C   UNL     1       4.680  29.726  53.150  1.00  0.00     0.053 C 
HETATM   11  C   UNL     1       4.460  28.845  51.904  1.00  0.00    -0.053 C 
HETATM   12  C   UNL     1       3.608  29.251  50.935  1.00  0.00     0.005 C 
HETATM   13  C   UNL     1       5.260  27.521  51.844  1.00  0.00     0.157 C 
HETATM   14  C   UNL     1       4.842  26.664  50.660  1.00  0.00    -0.005 C 
HETATM   15  N   UNL     1       4.494  25.952  49.678  1.00  0.00    -0.101 N 
HETATM   16  C   UNL     1       3.707  30.946  53.206  1.00  0.00     0.244 C 
HETATM   17  N   UNL     1       3.461  31.556  51.853  1.00  0.00    -0.071 N 
HETATM   18  H   UNL     1       2.735  32.275  51.977  1.00  0.00     0.279 HD
HETATM   19  C   UNL     1       4.640  32.293  51.277  1.00  0.00     0.270 C 
HETATM   20  C   UNL     1       2.870  30.552  50.908  1.00  0.00     0.262 C 
ENDROOT
BRANCH   9  21
HETATM   21  C   UNL     1       4.634  29.717  55.741  1.00  0.00    -0.047 A 
HETATM   22  C   UNL     1       5.844  30.196  56.262  1.00  0.00     0.047 A 
HETATM   23  C   UNL     1       5.877  30.847  57.508  1.00  0.00     0.102 A 
HETATM   24  C   UNL     1       4.699  31.122  58.217  1.00  0.00     0.102 A 
HETATM   25  C   UNL     1       3.486  30.716  57.666  1.00  0.00     0.040 A 
HETATM   26  C   UNL     1       3.457  30.002  56.459  1.00  0.00     0.010 A 
BRANCH  23  27
HETATM   27  O   UNL     1       7.067  31.272  58.052  1.00  0.00    -0.353 OA
HETATM   28  C   UNL     1       8.103  30.293  57.921  1.00  0.00     0.210 C 
ENDBRANCH  23  27
BRANCH  24  29
HETATM   29  O   UNL     1       4.851  31.757  59.423  1.00  0.00    -0.347 OA
BRANCH  29  30
HETATM   30  C   UNL     1       3.681  32.290  60.050  1.00  0.00     0.203 C 
BRANCH  30  31
HETATM   31  C   UNL     1       3.953  33.755  60.415  1.00  0.00     0.261 C 
BRANCH  31  32
HETATM   32  N   UNL     1       2.984  34.704  59.735  1.00  0.00    -0.065 N 
HETATM   33  H   UNL     1       3.353  35.655  59.902  1.00  0.00     0.280 HD
HETATM   34  C   UNL     1       2.882  34.507  58.227  1.00  0.00     0.261 C 
HETATM   35  C   UNL     1       1.853  35.483  57.643  1.00  0.00     0.195 C 
HETATM   36  O   UNL     1       0.576  35.312  58.263  1.00  0.00    -0.388 OA
HETATM   37  C   UNL     1       0.633  35.580  59.667  1.00  0.00     0.195 C 
HETATM   38  C   UNL     1       1.595  34.617  60.369  1.00  0.00     0.261 C 
ENDBRANCH  31  32
ENDBRANCH  30  31
ENDBRANCH  29  30
ENDBRANCH  24  29
ENDBRANCH   9  21
TORSDOF 6
ENDMDL
MODEL 8
REMARK VINA RESULT:      -7.4      2.473      5.255
REMARK  6 active torsions:
REMARK  status: ('A' for Active; 'I' for Inactive)
REMARK    1  A    between atoms: C_9  and  C_10 
REMARK    2  A    between atoms: C_12  and  O_13 
REMARK    3  A    between atoms: C_15  and  O_16 
REMARK    4  A    between atoms: O_16  and  C_17 
REMARK    5  A    between atoms: C_17  and  C_18 
REMARK    6  A    between atoms: C_18  and  N_19 
ROOT
HETATM    1  H   UNL     1       6.961  35.043  63.715  1.00  0.00     0.186 HD
HETATM    2  N   UNL     1       6.917  34.161  63.181  1.00  0.00    -0.304 NA
HETATM    3  C   UNL     1       5.797  33.908  62.580  1.00  0.00     0.062 C 
HETATM    4  C   UNL     1       5.657  32.621  61.745  1.00  0.00     0.186 C 
HETATM    5  C   UNL     1       6.827  31.735  61.896  1.00  0.00     0.091 C 
HETATM    6  N   UNL     1       7.718  30.991  61.918  1.00  0.00    -0.195 NA
HETATM    7  C   UNL     1       4.434  31.929  62.177  1.00  0.00     0.091 C 
HETATM    8  N   UNL     1       3.399  31.474  62.440  1.00  0.00    -0.195 NA
HETATM    9  C   UNL     1       5.558  33.110  60.252  1.00  0.00     0.071 C 
HETATM   10  C   UNL     1       4.375  34.118  60.024  1.00  0.00     0.053 C 
HETATM   11  C   UNL     1       4.442  35.271  61.045  1.00  0.00    -0.053 C 
HETATM   12  C   UNL     1       4.353  36.552  60.619  1.00  0.00     0.005 C 
HETATM   13  C   UNL     1       4.603  34.870  62.531  1.00  0.00     0.157 C 
HETATM   14  C   UNL     1       4.822  36.082  63.421  1.00  0.00    -0.005 C 
HETATM   15  N   UNL     1       5.005  37.089  64.160  1.00  0.00    -0.101 N 
HETATM   16  C   UNL     1       4.389  34.619  58.545  1.00  0.00     0.244 C 
HETATM   17  N   UNL     1       3.591  35.880  58.351  1.00  0.00    -0.071 N 
HETATM   18  H   UNL     1       3.746  36.186  57.381  1.00  0.00     0.279 HD
HETATM   19  C   UNL     1       2.102  35.700  58.465  1.00  0.00     0.270 C 
HETATM   20  C   UNL     1       4.121  36.991  59.208  1.00  0.00     0.262 C 
ENDROOT
BRANCH   9  21
HETATM   21  C   UNL     1       5.611  31.996  59.195  1.00  0.00    -0.047 A 
HETATM   22  C   UNL     1       6.803  31.497  58.653  1.00  0.00     0.047 A 
HETATM   23  C   UNL     1       6.775  30.573  57.594  1.00  0.00     0.102 A 
HETATM   24  C   UNL     1       5.564  30.052  57.115  1.00  0.00     0.102 A 
HETATM   25  C   UNL     1       4.379  30.487  57.703  1.00  0.00     0.040 A 
HETATM   26  C   UNL     1       4.402  31.463  58.711  1.00  0.00     0.010 A 
BRANCH  23  27
HETATM   27  O   UNL     1       7.940  30.119  57.019  1.00  0.00    -0.353 OA
HETATM   28  C   UNL     1       8.729  29.347  57.930  1.00  0.00     0.210 C 
ENDBRANCH  23  27
BRANCH  24  29
HETATM   29  O   UNL     1       5.655  29.161  56.076  1.00  0.00    -0.347 OA
BRANCH  29  30
HETATM   30  C   UNL     1       4.875  27.965  56.151  1.00  0.00     0.203 C 
BRANCH  30  31
HETATM   31  C   UNL     1       5.801  26.810  56.559  1.00  0.00     0.261 C 
BRANCH  31  32
HETATM   32  N   UNL     1       5.746  25.657  55.574  1.00  0.00    -0.065 N 
HETATM   33  H   UNL     1       4.979  25.045  55.897  1.00  0.00     0.280 HD
HETATM   34  C   UNL     1       5.429  26.080  54.145  1.00  0.00     0.261 C 
HETATM   35  C   UNL     1       5.435  24.853  53.224  1.00  0.00     0.195 C 
HETATM   36  O   UNL     1       6.693  24.176  53.285  1.00  0.00    -0.388 OA
HETATM   37  C   UNL     1       6.967  23.692  54.603  1.00  0.00     0.195 C 
HETATM   38  C   UNL     1       7.043  24.847  55.604  1.00  0.00     0.261 C 
ENDBRANCH  31  32
ENDBRANCH  30  31
ENDBRANCH  29  30
ENDBRANCH  24  29
ENDBRANCH   9  21
TORSDOF 6
ENDMDL
MODEL 9
REMARK VINA RESULT:      -7.4      3.965      6.251
REMARK  6 active torsions:
REMARK  status: ('A' for Active; 'I' for Inactive)
REMARK    1  A    between atoms: C_9  and  C_10 
REMARK    2  A    between atoms: C_12  and  O_13 
REMARK    3  A    between atoms: C_15  and  O_16 
REMARK    4  A    between atoms: O_16  and  C_17 
REMARK    5  A    between atoms: C_17  and  C_18 
REMARK    6  A    between atoms: C_18  and  N_19 
ROOT
HETATM    1  H   UNL     1       4.218  33.587  65.297  1.00  0.00     0.186 HD
HETATM    2  N   UNL     1       3.887  33.711  64.328  1.00  0.00    -0.304 NA
HETATM    3  C   UNL     1       4.786  34.025  63.449  1.00  0.00     0.062 C 
HETATM    4  C   UNL     1       4.376  34.208  61.976  1.00  0.00     0.186 C 
HETATM    5  C   UNL     1       2.911  34.159  61.799  1.00  0.00     0.091 C 
HETATM    6  N   UNL     1       1.779  34.094  61.554  1.00  0.00    -0.195 NA
HETATM    7  C   UNL     1       4.903  35.500  61.513  1.00  0.00     0.091 C 
HETATM    8  N   UNL     1       5.441  36.457  61.136  1.00  0.00    -0.195 NA
HETATM    9  C   UNL     1       5.037  32.998  61.213  1.00  0.00     0.071 C 
HETATM   10  C   UNL     1       6.594  32.938  61.411  1.00  0.00     0.053 C 
HETATM   11  C   UNL     1       6.951  32.990  62.910  1.00  0.00    -0.053 C 
HETATM   12  C   UNL     1       7.810  32.081  63.428  1.00  0.00     0.005 C 
HETATM   13  C   UNL     1       6.289  34.115  63.741  1.00  0.00     0.157 C 
HETATM   14  C   UNL     1       6.583  33.967  65.225  1.00  0.00    -0.005 C 
HETATM   15  N   UNL     1       6.826  33.843  66.457  1.00  0.00    -0.101 N 
HETATM   16  C   UNL     1       7.167  31.674  60.696  1.00  0.00     0.244 C 
HETATM   17  N   UNL     1       8.542  31.304  61.183  1.00  0.00    -0.071 N 
HETATM   18  H   UNL     1       8.786  30.409  60.737  1.00  0.00     0.279 HD
HETATM   19  C   UNL     1       9.629  32.255  60.764  1.00  0.00     0.270 C 
HETATM   20  C   UNL     1       8.534  31.023  62.657  1.00  0.00     0.262 C 
ENDROOT
BRANCH   9  21
HETATM   21  C   UNL     1       4.611  32.841  59.745  1.00  0.00    -0.047 A 
HETATM   22  C   UNL     1       4.978  33.736  58.732  1.00  0.00     0.047 A 
HETATM   23  C   UNL     1       4.444  33.607  57.437  1.00  0.00     0.102 A 
HETATM   24  C   UNL     1       3.612  32.532  57.097  1.00  0.00     0.102 A 
HETATM   25  C   UNL     1       3.306  31.596  58.082  1.00  0.00     0.040 A 
HETATM   26  C   UNL     1       3.778  31.763  59.392  1.00  0.00     0.010 A 
BRANCH  23  27
HETATM   27  O   UNL     1       4.756  34.514  56.450  1.00  0.00    -0.353 OA
HETATM   28  C   UNL     1       4.527  35.865  56.863  1.00  0.00     0.210 C 
ENDBRANCH  23  27
BRANCH  24  29
HETATM   29  O   UNL     1       3.144  32.509  55.807  1.00  0.00    -0.347 OA
BRANCH  29  30
HETATM   30  C   UNL     1       3.132  31.254  55.123  1.00  0.00     0.203 C 
BRANCH  30  31
HETATM   31  C   UNL     1       3.768  31.451  53.740  1.00  0.00     0.261 C 
BRANCH  31  32
HETATM   32  N   UNL     1       4.552  30.232  53.291  1.00  0.00    -0.065 N 
HETATM   33  H   UNL     1       5.523  30.385  53.611  1.00  0.00     0.280 HD
HETATM   34  C   UNL     1       4.065  28.925  53.904  1.00  0.00     0.261 C 
HETATM   35  C   UNL     1       4.893  27.754  53.360  1.00  0.00     0.195 C 
HETATM   36  O   UNL     1       4.825  27.700  51.933  1.00  0.00    -0.388 OA
HETATM   37  C   UNL     1       5.362  28.884  51.335  1.00  0.00     0.195 C 
HETATM   38  C   UNL     1       4.568  30.121  51.766  1.00  0.00     0.261 C 
ENDBRANCH  31  32
ENDBRANCH  30  31
ENDBRANCH  29  30
ENDBRANCH  24  29
ENDBRANCH   9  21
TORSDOF 6
ENDMDL
MODEL 10
REMARK VINA RESULT:      -7.2      3.941      7.512
REMARK  6 active torsions:
REMARK  status: ('A' for Active; 'I' for Inactive)
REMARK    1  A    between atoms: C_9  and  C_10 
REMARK    2  A    between atoms: C_12  and  O_13 
REMARK    3  A    between atoms: C_15  and  O_16 
REMARK    4  A    between atoms: O_16  and  C_17 
REMARK    5  A    between atoms: C_17  and  C_18 
REMARK    6  A    between atoms: C_18  and  N_19 
ROOT
HETATM    1  H   UNL     1       4.929  33.744  65.889  1.00  0.00     0.186 HD
HETATM    2  N   UNL     1       4.620  33.407  64.964  1.00  0.00    -0.304 NA
HETATM    3  C   UNL     1       3.978  34.259  64.227  1.00  0.00     0.062 C 
HETATM    4  C   UNL     1       3.500  33.841  62.824  1.00  0.00     0.186 C 
HETATM    5  C   UNL     1       3.708  32.401  62.576  1.00  0.00     0.091 C 
HETATM    6  N   UNL     1       3.868  31.292  62.272  1.00  0.00    -0.195 NA
HETATM    7  C   UNL     1       2.074  34.177  62.709  1.00  0.00     0.091 C 
HETATM    8  N   UNL     1       0.989  34.573  62.598  1.00  0.00    -0.195 NA
HETATM    9  C   UNL     1       4.383  34.678  61.824  1.00  0.00     0.071 C 
HETATM   10  C   UNL     1       4.271  36.226  62.071  1.00  0.00     0.053 C 
HETATM   11  C   UNL     1       4.538  36.557  63.553  1.00  0.00    -0.053 C 
HETATM   12  C   UNL     1       5.417  37.535  63.875  1.00  0.00     0.005 C 
HETATM   13  C   UNL     1       3.754  35.730  64.599  1.00  0.00     0.157 C 
HETATM   14  C   UNL     1       4.217  36.028  66.016  1.00  0.00    -0.005 C 
HETATM   15  N   UNL     1       4.602  36.275  67.191  1.00  0.00    -0.101 N 
HETATM   16  C   UNL     1       5.230  36.984  61.100  1.00  0.00     0.244 C 
HETATM   17  N   UNL     1       5.513  38.393  61.544  1.00  0.00    -0.071 N 
HETATM   18  H   UNL     1       6.228  38.769  60.907  1.00  0.00     0.279 HD
HETATM   19  C   UNL     1       4.347  39.334  61.415  1.00  0.00     0.270 C 
HETATM   20  C   UNL     1       6.144  38.413  62.905  1.00  0.00     0.262 C 
ENDROOT
BRANCH   9  21
HETATM   21  C   UNL     1       4.235  34.294  60.344  1.00  0.00    -0.047 A 
HETATM   22  C   UNL     1       3.187  34.741  59.528  1.00  0.00     0.047 A 
HETATM   23  C   UNL     1       3.037  34.245  58.221  1.00  0.00     0.102 A 
HETATM   24  C   UNL     1       3.979  33.368  57.663  1.00  0.00     0.102 A 
HETATM   25  C   UNL     1       5.065  32.981  58.445  1.00  0.00     0.040 A 
HETATM   26  C   UNL     1       5.177  33.418  59.773  1.00  0.00     0.010 A 
BRANCH  23  27
HETATM   27  O   UNL     1       1.980  34.636  57.431  1.00  0.00    -0.353 OA
HETATM   28  C   UNL     1       1.229  35.703  58.022  1.00  0.00     0.210 C 
ENDBRANCH  23  27
BRANCH  24  29
HETATM   29  O   UNL     1       3.730  32.943  56.382  1.00  0.00    -0.347 OA
BRANCH  29  30
HETATM   30  C   UNL     1       4.818  32.390  55.639  1.00  0.00     0.203 C 
BRANCH  30  31
HETATM   31  C   UNL     1       4.319  31.131  54.916  1.00  0.00     0.261 C 
BRANCH  31  32
HETATM   32  N   UNL     1       5.293  29.974  55.044  1.00  0.00    -0.065 N 
HETATM   33  H   UNL     1       5.916  30.036  54.222  1.00  0.00     0.280 HD
HETATM   34  C   UNL     1       6.165  30.035  56.291  1.00  0.00     0.261 C 
HETATM   35  C   UNL     1       7.082  28.807  56.347  1.00  0.00     0.195 C 
HETATM   36  O   UNL     1       6.319  27.598  56.321  1.00  0.00    -0.388 OA
HETATM   37  C   UNL     1       5.560  27.480  55.114  1.00  0.00     0.195 C 
HETATM   38  C   UNL     1       4.561  28.632  54.982  1.00  0.00     0.261 C 
ENDBRANCH  31  32
ENDBRANCH  30  31
ENDBRANCH  29  30
ENDBRANCH  24  29
ENDBRANCH   9  21
TORSDOF 6
ENDMDL
