MODEL 1
REMARK VINA RESULT:      -9.3      0.000      0.000
REMARK  4 active torsions:
REMARK  status: ('A' for Active; 'I' for Inactive)
REMARK    1  A    between atoms: C_2  and  N_3 
REMARK    2  A    between atoms: N_7  and  C_8 
REMARK    3  A    between atoms: C_11  and  N_12 
REMARK    4  A    between atoms: C_13  and  C_14 
ROOT
HETATM    1  C   UNL     1       8.116  30.405  58.283  1.00  0.00     0.030 A 
HETATM    2  C   UNL     1       9.227  29.693  57.813  1.00  0.00     0.031 A 
HETATM    3  C   UNL     1       9.079  28.536  57.033  1.00  0.00     0.034 A 
HETATM    4  C   UNL     1       7.818  28.057  56.686  1.00  0.00     0.056 A 
HETATM    5  C   UNL     1       6.702  28.764  57.130  1.00  0.00     0.034 A 
HETATM    6  C   UNL     1       6.851  29.910  57.924  1.00  0.00     0.031 A 
ENDROOT
BRANCH   4   7
HETATM    7  N   UNL     1       7.744  26.957  55.824  1.00  0.00    -0.260 NA
HETATM    8  C   UNL     1       7.668  25.767  56.323  1.00  0.00     0.131 C 
BRANCH   8   9
HETATM    9  C   UNL     1       7.551  24.630  55.432  1.00  0.00     0.009 A 
HETATM   10  C   UNL     1       7.850  23.260  55.724  1.00  0.00     0.004 A 
HETATM   11  C   UNL     1       7.571  22.518  54.574  1.00  0.00     0.043 A 
HETATM   12  C   UNL     1       8.320  22.572  56.864  1.00  0.00     0.014 A 
HETATM   13  C   UNL     1       7.739  21.130  54.505  1.00  0.00     0.030 A 
HETATM   14  N   UNL     1       7.127  23.401  53.619  1.00  0.00    -0.364 N 
HETATM   15  C   UNL     1       8.203  20.475  55.649  1.00  0.00     0.002 A 
HETATM   16  C   UNL     1       8.490  21.184  56.813  1.00  0.00     0.001 A 
HETATM   17  H   UNL     1       6.848  23.141  52.682  1.00  0.00     0.165 HD
HETATM   18  C   UNL     1       7.108  24.672  54.123  1.00  0.00     0.102 A 
ENDBRANCH   8   9
ENDBRANCH   4   7
BRANCH   1  19
HETATM   19  N   UNL     1       8.218  31.581  59.019  1.00  0.00    -0.378 N 
HETATM   20  C   UNL     1       9.464  31.932  59.715  1.00  0.00     0.150 C 
HETATM   21  C   UNL     1       9.384  31.600  61.219  1.00  0.00     0.254 C 
HETATM   22  N   UNL     1       8.145  32.250  61.846  1.00  0.00    -0.068 N 
HETATM   23  H   UNL     1       8.223  33.264  61.694  1.00  0.00     0.280 HD
HETATM   24  C   UNL     1       6.881  31.795  61.098  1.00  0.00     0.254 C 
HETATM   25  C   UNL     1       6.984  32.142  59.597  1.00  0.00     0.150 C 
BRANCH  22  26
HETATM   26  C   UNL     1       8.023  32.006  63.331  1.00  0.00     0.230 C 
HETATM   27  C   UNL     1       7.653  33.284  64.058  1.00  0.00     0.034 C 
ENDBRANCH  22  26
ENDBRANCH   1  19
TORSDOF 4
ENDMDL
MODEL 2
REMARK VINA RESULT:      -9.2      1.259      2.110
REMARK  4 active torsions:
REMARK  status: ('A' for Active; 'I' for Inactive)
REMARK    1  A    between atoms: C_2  and  N_3 
REMARK    2  A    between atoms: N_7  and  C_8 
REMARK    3  A    between atoms: C_11  and  N_12 
REMARK    4  A    between atoms: C_13  and  C_14 
ROOT
HETATM    1  C   UNL     1       7.455  30.261  58.096  1.00  0.00     0.030 A 
HETATM    2  C   UNL     1       6.264  29.603  57.765  1.00  0.00     0.031 A 
HETATM    3  C   UNL     1       6.265  28.291  57.270  1.00  0.00     0.034 A 
HETATM    4  C   UNL     1       7.454  27.586  57.097  1.00  0.00     0.056 A 
HETATM    5  C   UNL     1       8.648  28.219  57.439  1.00  0.00     0.034 A 
HETATM    6  C   UNL     1       8.646  29.537  57.918  1.00  0.00     0.031 A 
ENDROOT
BRANCH   4   7
HETATM    7  N   UNL     1       7.376  26.248  56.694  1.00  0.00    -0.260 NA
HETATM    8  C   UNL     1       8.401  25.478  56.859  1.00  0.00     0.131 C 
BRANCH   8   9
HETATM    9  C   UNL     1       8.308  24.083  56.479  1.00  0.00     0.009 A 
HETATM   10  C   UNL     1       8.123  23.548  55.163  1.00  0.00     0.004 A 
HETATM   11  C   UNL     1       8.112  22.156  55.276  1.00  0.00     0.043 A 
HETATM   12  C   UNL     1       7.974  24.115  53.878  1.00  0.00     0.014 A 
HETATM   13  C   UNL     1       7.961  21.305  54.174  1.00  0.00     0.030 A 
HETATM   14  N   UNL     1       8.278  21.855  56.607  1.00  0.00    -0.364 N 
HETATM   15  C   UNL     1       7.819  21.893  52.916  1.00  0.00     0.002 A 
HETATM   16  C   UNL     1       7.825  23.277  52.767  1.00  0.00     0.001 A 
HETATM   17  H   UNL     1       8.313  20.917  56.983  1.00  0.00     0.165 HD
HETATM   18  C   UNL     1       8.401  23.004  57.339  1.00  0.00     0.102 A 
ENDBRANCH   8   9
ENDBRANCH   4   7
BRANCH   1  19
HETATM   19  N   UNL     1       7.496  31.543  58.633  1.00  0.00    -0.378 N 
HETATM   20  C   UNL     1       8.639  31.988  59.445  1.00  0.00     0.150 C 
HETATM   21  C   UNL     1       8.323  31.918  60.952  1.00  0.00     0.254 C 
HETATM   22  N   UNL     1       7.033  32.685  61.265  1.00  0.00    -0.068 N 
HETATM   23  H   UNL     1       7.175  33.657  60.961  1.00  0.00     0.280 HD
HETATM   24  C   UNL     1       5.876  32.130  60.419  1.00  0.00     0.254 C 
HETATM   25  C   UNL     1       6.214  32.214  58.914  1.00  0.00     0.150 C 
BRANCH  22  26
HETATM   26  C   UNL     1       6.682  32.700  62.733  1.00  0.00     0.230 C 
HETATM   27  C   UNL     1       7.936  32.694  63.587  1.00  0.00     0.034 C 
ENDBRANCH  22  26
ENDBRANCH   1  19
TORSDOF 4
ENDMDL
MODEL 3
REMARK VINA RESULT:      -9.1      5.885      9.587
REMARK  4 active torsions:
REMARK  status: ('A' for Active; 'I' for Inactive)
REMARK    1  A    between atoms: C_2  and  N_3 
REMARK    2  A    between atoms: N_7  and  C_8 
REMARK    3  A    between atoms: C_11  and  N_12 
REMARK    4  A    between atoms: C_13  and  C_14 
ROOT
HETATM    1  C   UNL     1       4.486  27.636  50.487  1.00  0.00     0.030 A 
HETATM    2  C   UNL     1       5.045  26.357  50.377  1.00  0.00     0.031 A 
HETATM    3  C   UNL     1       5.509  25.661  51.504  1.00  0.00     0.034 A 
HETATM    4  C   UNL     1       5.420  26.213  52.780  1.00  0.00     0.056 A 
HETATM    5  C   UNL     1       4.849  27.478  52.909  1.00  0.00     0.034 A 
HETATM    6  C   UNL     1       4.402  28.179  51.780  1.00  0.00     0.031 A 
ENDROOT
BRANCH   4   7
HETATM    7  N   UNL     1       5.809  25.425  53.869  1.00  0.00    -0.260 NA
HETATM    8  C   UNL     1       6.988  24.895  53.876  1.00  0.00     0.131 C 
BRANCH   8   9
HETATM    9  C   UNL     1       7.407  24.111  55.021  1.00  0.00     0.009 A 
HETATM   10  C   UNL     1       7.738  22.718  55.049  1.00  0.00     0.004 A 
HETATM   11  C   UNL     1       8.101  22.402  56.360  1.00  0.00     0.043 A 
HETATM   12  C   UNL     1       7.777  21.691  54.080  1.00  0.00     0.014 A 
HETATM   13  C   UNL     1       8.498  21.117  56.751  1.00  0.00     0.030 A 
HETATM   14  N   UNL     1       7.990  23.554  57.101  1.00  0.00    -0.364 N 
HETATM   15  C   UNL     1       8.530  20.123  55.771  1.00  0.00     0.002 A 
HETATM   16  C   UNL     1       8.175  20.403  54.454  1.00  0.00     0.001 A 
HETATM   17  H   UNL     1       8.194  23.623  58.090  1.00  0.00     0.165 HD
HETATM   18  C   UNL     1       7.577  24.588  56.307  1.00  0.00     0.102 A 
ENDBRANCH   8   9
ENDBRANCH   4   7
BRANCH   1  19
HETATM   19  N   UNL     1       3.972  28.341  49.403  1.00  0.00    -0.378 N 
HETATM   20  C   UNL     1       2.655  28.990  49.478  1.00  0.00     0.150 C 
HETATM   21  C   UNL     1       1.567  28.142  48.789  1.00  0.00     0.254 C 
HETATM   22  N   UNL     1       1.984  27.799  47.354  1.00  0.00    -0.068 N 
HETATM   23  H   UNL     1       2.131  28.688  46.859  1.00  0.00     0.280 HD
HETATM   24  C   UNL     1       3.342  27.078  47.362  1.00  0.00     0.254 C 
HETATM   25  C   UNL     1       4.415  27.948  48.054  1.00  0.00     0.150 C 
BRANCH  22  26
HETATM   26  C   UNL     1       0.946  27.006  46.598  1.00  0.00     0.230 C 
HETATM   27  C   UNL     1      -0.137  27.918  46.053  1.00  0.00     0.034 C 
ENDBRANCH  22  26
ENDBRANCH   1  19
TORSDOF 4
ENDMDL
MODEL 4
REMARK VINA RESULT:      -8.4      6.249      8.426
REMARK  4 active torsions:
REMARK  status: ('A' for Active; 'I' for Inactive)
REMARK    1  A    between atoms: C_2  and  N_3 
REMARK    2  A    between atoms: N_7  and  C_8 
REMARK    3  A    between atoms: C_11  and  N_12 
REMARK    4  A    between atoms: C_13  and  C_14 
ROOT
HETATM    1  C   UNL     1       4.205  27.828  50.711  1.00  0.00     0.030 A 
HETATM    2  C   UNL     1       4.926  26.707  50.279  1.00  0.00     0.031 A 
HETATM    3  C   UNL     1       5.526  25.826  51.192  1.00  0.00     0.034 A 
HETATM    4  C   UNL     1       5.420  26.029  52.566  1.00  0.00     0.056 A 
HETATM    5  C   UNL     1       4.690  27.130  53.013  1.00  0.00     0.034 A 
HETATM    6  C   UNL     1       4.106  28.018  52.099  1.00  0.00     0.031 A 
ENDROOT
BRANCH   4   7
HETATM    7  N   UNL     1       5.957  25.058  53.420  1.00  0.00    -0.260 NA
HETATM    8  C   UNL     1       7.233  25.032  53.622  1.00  0.00     0.131 C 
BRANCH   8   9
HETATM    9  C   UNL     1       7.786  24.053  54.536  1.00  0.00     0.009 A 
HETATM   10  C   UNL     1       8.044  22.668  54.278  1.00  0.00     0.004 A 
HETATM   11  C   UNL     1       8.594  22.123  55.441  1.00  0.00     0.043 A 
HETATM   12  C   UNL     1       7.876  21.822  53.160  1.00  0.00     0.014 A 
HETATM   13  C   UNL     1       8.981  20.781  55.542  1.00  0.00     0.030 A 
HETATM   14  N   UNL     1       8.662  23.133  56.370  1.00  0.00    -0.364 N 
HETATM   15  C   UNL     1       8.805  19.969  54.420  1.00  0.00     0.002 A 
HETATM   16  C   UNL     1       8.260  20.479  53.245  1.00  0.00     0.001 A 
HETATM   17  H   UNL     1       9.023  23.026  57.309  1.00  0.00     0.165 HD
HETATM   18  C   UNL     1       8.183  24.298  55.837  1.00  0.00     0.102 A 
ENDBRANCH   8   9
ENDBRANCH   4   7
BRANCH   1  19
HETATM   19  N   UNL     1       3.556  28.699  49.842  1.00  0.00    -0.378 N 
HETATM   20  C   UNL     1       3.816  28.659  48.396  1.00  0.00     0.150 C 
HETATM   21  C   UNL     1       4.794  29.771  47.966  1.00  0.00     0.254 C 
HETATM   22  N   UNL     1       4.294  31.139  48.446  1.00  0.00    -0.068 N 
HETATM   23  H   UNL     1       3.362  31.285  48.035  1.00  0.00     0.280 HD
HETATM   24  C   UNL     1       4.096  31.118  49.970  1.00  0.00     0.254 C 
HETATM   25  C   UNL     1       3.111  29.999  50.375  1.00  0.00     0.150 C 
BRANCH  22  26
HETATM   26  C   UNL     1       5.178  32.286  48.022  1.00  0.00     0.230 C 
HETATM   27  C   UNL     1       6.305  32.494  49.016  1.00  0.00     0.034 C 
ENDBRANCH  22  26
ENDBRANCH   1  19
TORSDOF 4
ENDMDL
MODEL 5
REMARK VINA RESULT:      -8.4      1.421      1.763
REMARK  4 active torsions:
REMARK  status: ('A' for Active; 'I' for Inactive)
REMARK    1  A    between atoms: C_2  and  N_3 
REMARK    2  A    between atoms: N_7  and  C_8 
REMARK    3  A    between atoms: C_11  and  N_12 
REMARK    4  A    between atoms: C_13  and  C_14 
ROOT
HETATM    1  C   UNL     1       7.255  30.330  57.957  1.00  0.00     0.030 A 
HETATM    2  C   UNL     1       8.451  29.603  58.017  1.00  0.00     0.031 A 
HETATM    3  C   UNL     1       8.621  28.412  57.293  1.00  0.00     0.034 A 
HETATM    4  C   UNL     1       7.607  27.913  56.478  1.00  0.00     0.056 A 
HETATM    5  C   UNL     1       6.417  28.634  56.394  1.00  0.00     0.034 A 
HETATM    6  C   UNL     1       6.243  29.814  57.131  1.00  0.00     0.031 A 
ENDROOT
BRANCH   4   7
HETATM    7  N   UNL     1       7.880  26.776  55.708  1.00  0.00    -0.260 NA
HETATM    8  C   UNL     1       7.134  26.513  54.686  1.00  0.00     0.131 C 
BRANCH   8   9
HETATM    9  C   UNL     1       7.439  25.359  53.864  1.00  0.00     0.009 A 
HETATM   10  C   UNL     1       7.558  23.995  54.287  1.00  0.00     0.004 A 
HETATM   11  C   UNL     1       7.842  23.230  53.153  1.00  0.00     0.043 A 
HETATM   12  C   UNL     1       7.438  23.331  55.527  1.00  0.00     0.014 A 
HETATM   13  C   UNL     1       8.014  21.841  53.196  1.00  0.00     0.030 A 
HETATM   14  N   UNL     1       7.900  24.094  52.085  1.00  0.00    -0.364 N 
HETATM   15  C   UNL     1       7.887  21.211  54.435  1.00  0.00     0.002 A 
HETATM   16  C   UNL     1       7.604  21.942  55.586  1.00  0.00     0.001 A 
HETATM   17  H   UNL     1       8.088  23.815  51.131  1.00  0.00     0.165 HD
HETATM   18  C   UNL     1       7.656  25.374  52.499  1.00  0.00     0.102 A 
ENDBRANCH   8   9
ENDBRANCH   4   7
BRANCH   1  19
HETATM   19  N   UNL     1       7.062  31.537  58.621  1.00  0.00    -0.378 N 
HETATM   20  C   UNL     1       7.789  31.843  59.861  1.00  0.00     0.150 C 
HETATM   21  C   UNL     1       6.909  31.605  61.105  1.00  0.00     0.254 C 
HETATM   22  N   UNL     1       5.587  32.372  60.982  1.00  0.00    -0.068 N 
HETATM   23  H   UNL     1       5.822  33.368  60.878  1.00  0.00     0.280 HD
HETATM   24  C   UNL     1       4.863  31.961  59.690  1.00  0.00     0.254 C 
HETATM   25  C   UNL     1       5.762  32.212  58.459  1.00  0.00     0.150 C 
BRANCH  22  26
HETATM   26  C   UNL     1       4.690  32.223  62.187  1.00  0.00     0.230 C 
HETATM   27  C   UNL     1       5.473  32.429  63.470  1.00  0.00     0.034 C 
ENDBRANCH  22  26
ENDBRANCH   1  19
TORSDOF 4
ENDMDL
MODEL 6
REMARK VINA RESULT:      -8.1      6.410      7.846
REMARK  4 active torsions:
REMARK  status: ('A' for Active; 'I' for Inactive)
REMARK    1  A    between atoms: C_2  and  N_3 
REMARK    2  A    between atoms: N_7  and  C_8 
REMARK    3  A    between atoms: C_11  and  N_12 
REMARK    4  A    between atoms: C_13  and  C_14 
ROOT
HETATM    1  C   UNL     1       4.341  28.094  50.885  1.00  0.00     0.030 A 
HETATM    2  C   UNL     1       4.283  28.083  52.285  1.00  0.00     0.031 A 
HETATM    3  C   UNL     1       4.693  26.964  53.025  1.00  0.00     0.034 A 
HETATM    4  C   UNL     1       5.184  25.822  52.396  1.00  0.00     0.056 A 
HETATM    5  C   UNL     1       5.265  25.824  51.004  1.00  0.00     0.034 A 
HETATM    6  C   UNL     1       4.839  26.936  50.265  1.00  0.00     0.031 A 
ENDROOT
BRANCH   4   7
HETATM    7  N   UNL     1       5.668  24.782  53.198  1.00  0.00    -0.260 NA
HETATM    8  C   UNL     1       6.787  24.938  53.825  1.00  0.00     0.131 C 
BRANCH   8   9
HETATM    9  C   UNL     1       7.270  23.878  54.687  1.00  0.00     0.009 A 
HETATM   10  C   UNL     1       7.718  22.574  54.298  1.00  0.00     0.004 A 
HETATM   11  C   UNL     1       8.106  21.902  55.460  1.00  0.00     0.043 A 
HETATM   12  C   UNL     1       7.844  21.899  53.064  1.00  0.00     0.014 A 
HETATM   13  C   UNL     1       8.611  20.596  55.450  1.00  0.00     0.030 A 
HETATM   14  N   UNL     1       7.898  22.760  56.513  1.00  0.00    -0.364 N 
HETATM   15  C   UNL     1       8.727  19.955  54.215  1.00  0.00     0.002 A 
HETATM   16  C   UNL     1       8.350  20.595  53.037  1.00  0.00     0.001 A 
HETATM   17  H   UNL     1       8.095  22.539  57.481  1.00  0.00     0.165 HD
HETATM   18  C   UNL     1       7.399  23.950  56.062  1.00  0.00     0.102 A 
ENDBRANCH   8   9
ENDBRANCH   4   7
BRANCH   1  19
HETATM   19  N   UNL     1       3.989  29.198  50.115  1.00  0.00    -0.378 N 
HETATM   20  C   UNL     1       4.610  30.510  50.345  1.00  0.00     0.150 C 
HETATM   21  C   UNL     1       3.691  31.434  51.170  1.00  0.00     0.254 C 
HETATM   22  N   UNL     1       2.307  31.533  50.518  1.00  0.00    -0.068 N 
HETATM   23  H   UNL     1       2.444  31.900  49.567  1.00  0.00     0.280 HD
HETATM   24  C   UNL     1       1.702  30.129  50.359  1.00  0.00     0.254 C 
HETATM   25  C   UNL     1       2.637  29.225  49.527  1.00  0.00     0.150 C 
BRANCH  22  26
HETATM   26  C   UNL     1       1.364  32.460  51.247  1.00  0.00     0.230 C 
HETATM   27  C   UNL     1       2.014  33.015  52.499  1.00  0.00     0.034 C 
ENDBRANCH  22  26
ENDBRANCH   1  19
TORSDOF 4
ENDMDL
MODEL 7
REMARK VINA RESULT:      -7.8      2.412     10.730
REMARK  4 active torsions:
REMARK  status: ('A' for Active; 'I' for Inactive)
REMARK    1  A    between atoms: C_2  and  N_3 
REMARK    2  A    between atoms: N_7  and  C_8 
REMARK    3  A    between atoms: C_11  and  N_12 
REMARK    4  A    between atoms: C_13  and  C_14 
ROOT
HETATM    1  C   UNL     1       7.528  30.318  58.097  1.00  0.00     0.030 A 
HETATM    2  C   UNL     1       6.471  31.235  58.167  1.00  0.00     0.031 A 
HETATM    3  C   UNL     1       6.214  31.968  59.336  1.00  0.00     0.034 A 
HETATM    4  C   UNL     1       7.006  31.817  60.471  1.00  0.00     0.056 A 
HETATM    5  C   UNL     1       8.073  30.922  60.413  1.00  0.00     0.034 A 
HETATM    6  C   UNL     1       8.319  30.178  59.250  1.00  0.00     0.031 A 
ENDROOT
BRANCH   4   7
HETATM    7  N   UNL     1       6.755  32.651  61.567  1.00  0.00    -0.260 NA
HETATM    8  C   UNL     1       6.896  32.181  62.763  1.00  0.00     0.131 C 
BRANCH   8   9
HETATM    9  C   UNL     1       6.675  33.053  63.898  1.00  0.00     0.009 A 
HETATM   10  C   UNL     1       5.466  33.737  64.250  1.00  0.00     0.004 A 
HETATM   11  C   UNL     1       5.714  34.445  65.428  1.00  0.00     0.043 A 
HETATM   12  C   UNL     1       4.173  33.812  63.686  1.00  0.00     0.014 A 
HETATM   13  C   UNL     1       4.741  35.223  66.068  1.00  0.00     0.030 A 
HETATM   14  N   UNL     1       7.023  34.208  65.776  1.00  0.00    -0.364 N 
HETATM   15  C   UNL     1       3.471  35.277  65.489  1.00  0.00     0.002 A 
HETATM   16  C   UNL     1       3.189  34.583  64.315  1.00  0.00     0.001 A 
HETATM   17  H   UNL     1       7.478  34.593  66.593  1.00  0.00     0.165 HD
HETATM   18  C   UNL     1       7.609  33.371  64.867  1.00  0.00     0.102 A 
ENDBRANCH   8   9
ENDBRANCH   4   7
BRANCH   1  19
HETATM   19  N   UNL     1       7.846  29.606  56.946  1.00  0.00    -0.378 N 
HETATM   20  C   UNL     1       6.834  29.347  55.912  1.00  0.00     0.150 C 
HETATM   21  C   UNL     1       6.266  27.918  56.023  1.00  0.00     0.254 C 
HETATM   22  N   UNL     1       7.402  26.888  56.019  1.00  0.00    -0.068 N 
HETATM   23  H   UNL     1       7.923  27.013  55.141  1.00  0.00     0.280 HD
HETATM   24  C   UNL     1       8.389  27.194  57.157  1.00  0.00     0.254 C 
HETATM   25  C   UNL     1       8.946  28.628  57.022  1.00  0.00     0.150 C 
BRANCH  22  26
HETATM   26  C   UNL     1       6.919  25.459  56.079  1.00  0.00     0.230 C 
HETATM   27  C   UNL     1       5.822  25.218  55.060  1.00  0.00     0.034 C 
ENDBRANCH  22  26
ENDBRANCH   1  19
TORSDOF 4
ENDMDL
MODEL 8
REMARK VINA RESULT:      -7.6      6.350      9.608
REMARK  4 active torsions:
REMARK  status: ('A' for Active; 'I' for Inactive)
REMARK    1  A    between atoms: C_2  and  N_3 
REMARK    2  A    between atoms: N_7  and  C_8 
REMARK    3  A    between atoms: C_11  and  N_12 
REMARK    4  A    between atoms: C_13  and  C_14 
ROOT
HETATM    1  C   UNL     1       4.081  29.210  50.136  1.00  0.00     0.030 A 
HETATM    2  C   UNL     1       3.554  29.257  51.433  1.00  0.00     0.031 A 
HETATM    3  C   UNL     1       3.921  28.316  52.407  1.00  0.00     0.034 A 
HETATM    4  C   UNL     1       4.834  27.303  52.124  1.00  0.00     0.056 A 
HETATM    5  C   UNL     1       5.383  27.253  50.844  1.00  0.00     0.034 A 
HETATM    6  C   UNL     1       5.002  28.184  49.866  1.00  0.00     0.031 A 
ENDROOT
BRANCH   4   7
HETATM    7  N   UNL     1       5.231  26.461  53.170  1.00  0.00    -0.260 NA
HETATM    8  C   UNL     1       6.124  25.554  52.945  1.00  0.00     0.131 C 
BRANCH   8   9
HETATM    9  C   UNL     1       6.565  24.708  54.035  1.00  0.00     0.009 A 
HETATM   10  C   UNL     1       7.174  23.414  53.943  1.00  0.00     0.004 A 
HETATM   11  C   UNL     1       7.445  22.987  55.245  1.00  0.00     0.043 A 
HETATM   12  C   UNL     1       7.534  22.566  52.874  1.00  0.00     0.014 A 
HETATM   13  C   UNL     1       8.054  21.759  55.531  1.00  0.00     0.030 A 
HETATM   14  N   UNL     1       7.013  23.977  56.096  1.00  0.00    -0.364 N 
HETATM   15  C   UNL     1       8.402  20.942  54.454  1.00  0.00     0.002 A 
HETATM   16  C   UNL     1       8.147  21.337  53.143  1.00  0.00     0.001 A 
HETATM   17  H   UNL     1       7.085  23.940  57.104  1.00  0.00     0.165 HD
HETATM   18  C   UNL     1       6.486  25.017  55.381  1.00  0.00     0.102 A 
ENDBRANCH   8   9
ENDBRANCH   4   7
BRANCH   1  19
HETATM   19  N   UNL     1       3.780  30.148  49.155  1.00  0.00    -0.378 N 
HETATM   20  C   UNL     1       2.610  31.029  49.283  1.00  0.00     0.150 C 
HETATM   21  C   UNL     1       1.424  30.520  48.440  1.00  0.00     0.254 C 
HETATM   22  N   UNL     1       1.855  30.308  46.983  1.00  0.00    -0.068 N 
HETATM   23  H   UNL     1       2.200  31.211  46.633  1.00  0.00     0.280 HD
HETATM   24  C   UNL     1       3.047  29.338  46.927  1.00  0.00     0.254 C 
HETATM   25  C   UNL     1       4.221  29.870  47.776  1.00  0.00     0.150 C 
BRANCH  22  26
HETATM   26  C   UNL     1       0.732  29.852  46.084  1.00  0.00     0.230 C 
HETATM   27  C   UNL     1       0.106  28.574  46.608  1.00  0.00     0.034 C 
ENDBRANCH  22  26
ENDBRANCH   1  19
TORSDOF 4
ENDMDL
MODEL 9
REMARK VINA RESULT:      -7.6      2.266      9.991
REMARK  4 active torsions:
REMARK  status: ('A' for Active; 'I' for Inactive)
REMARK    1  A    between atoms: C_2  and  N_3 
REMARK    2  A    between atoms: N_7  and  C_8 
REMARK    3  A    between atoms: C_11  and  N_12 
REMARK    4  A    between atoms: C_13  and  C_14 
ROOT
HETATM    1  C   UNL     1       5.927  29.350  55.555  1.00  0.00     0.030 A 
HETATM    2  C   UNL     1       6.906  29.241  56.551  1.00  0.00     0.031 A 
HETATM    3  C   UNL     1       7.024  30.197  57.571  1.00  0.00     0.034 A 
HETATM    4  C   UNL     1       6.162  31.290  57.638  1.00  0.00     0.056 A 
HETATM    5  C   UNL     1       5.170  31.404  56.665  1.00  0.00     0.034 A 
HETATM    6  C   UNL     1       5.065  30.456  55.637  1.00  0.00     0.031 A 
ENDROOT
BRANCH   4   7
HETATM    7  N   UNL     1       6.271  32.150  58.736  1.00  0.00    -0.260 NA
HETATM    8  C   UNL     1       5.259  32.297  59.526  1.00  0.00     0.131 C 
BRANCH   8   9
HETATM    9  C   UNL     1       5.383  33.156  60.686  1.00  0.00     0.009 A 
HETATM   10  C   UNL     1       6.263  32.989  61.805  1.00  0.00     0.004 A 
HETATM   11  C   UNL     1       6.048  34.066  62.668  1.00  0.00     0.043 A 
HETATM   12  C   UNL     1       7.235  32.030  62.163  1.00  0.00     0.014 A 
HETATM   13  C   UNL     1       6.752  34.231  63.867  1.00  0.00     0.030 A 
HETATM   14  N   UNL     1       5.073  34.853  62.102  1.00  0.00    -0.364 N 
HETATM   15  C   UNL     1       7.710  33.269  64.195  1.00  0.00     0.002 A 
HETATM   16  C   UNL     1       7.950  32.183  63.356  1.00  0.00     0.001 A 
HETATM   17  H   UNL     1       4.716  35.707  62.510  1.00  0.00     0.165 HD
HETATM   18  C   UNL     1       4.668  34.318  60.911  1.00  0.00     0.102 A 
ENDBRANCH   8   9
ENDBRANCH   4   7
BRANCH   1  19
HETATM   19  N   UNL     1       5.746  28.401  54.555  1.00  0.00    -0.378 N 
HETATM   20  C   UNL     1       4.990  27.167  54.810  1.00  0.00     0.150 C 
HETATM   21  C   UNL     1       5.928  25.971  55.067  1.00  0.00     0.254 C 
HETATM   22  N   UNL     1       6.939  25.827  53.922  1.00  0.00    -0.068 N 
HETATM   23  H   UNL     1       6.400  25.697  53.055  1.00  0.00     0.280 HD
HETATM   24  C   UNL     1       7.725  27.137  53.751  1.00  0.00     0.254 C 
HETATM   25  C   UNL     1       6.764  28.318  53.492  1.00  0.00     0.150 C 
BRANCH  22  26
HETATM   26  C   UNL     1       7.865  24.647  54.081  1.00  0.00     0.230 C 
HETATM   27  C   UNL     1       7.216  23.378  53.562  1.00  0.00     0.034 C 
ENDBRANCH  22  26
ENDBRANCH   1  19
TORSDOF 4
ENDMDL
MODEL 10
REMARK VINA RESULT:      -7.5      4.104      4.981
REMARK  4 active torsions:
REMARK  status: ('A' for Active; 'I' for Inactive)
REMARK    1  A    between atoms: C_2  and  N_3 
REMARK    2  A    between atoms: N_7  and  C_8 
REMARK    3  A    between atoms: C_11  and  N_12 
REMARK    4  A    between atoms: C_13  and  C_14 
ROOT
HETATM    1  C   UNL     1       4.142  30.071  55.778  1.00  0.00     0.030 A 
HETATM    2  C   UNL     1       4.183  29.167  54.710  1.00  0.00     0.031 A 
HETATM    3  C   UNL     1       4.783  27.905  54.842  1.00  0.00     0.034 A 
HETATM    4  C   UNL     1       5.353  27.499  56.046  1.00  0.00     0.056 A 
HETATM    5  C   UNL     1       5.304  28.381  57.125  1.00  0.00     0.034 A 
HETATM    6  C   UNL     1       4.720  29.648  56.987  1.00  0.00     0.031 A 
ENDROOT
BRANCH   4   7
HETATM    7  N   UNL     1       5.844  26.191  56.137  1.00  0.00    -0.260 NA
HETATM    8  C   UNL     1       7.078  25.958  55.832  1.00  0.00     0.131 C 
BRANCH   8   9
HETATM    9  C   UNL     1       7.598  24.612  55.963  1.00  0.00     0.009 A 
HETATM   10  C   UNL     1       7.740  23.628  54.932  1.00  0.00     0.004 A 
HETATM   11  C   UNL     1       8.301  22.490  55.516  1.00  0.00     0.043 A 
HETATM   12  C   UNL     1       7.457  23.597  53.549  1.00  0.00     0.014 A 
HETATM   13  C   UNL     1       8.591  21.327  54.791  1.00  0.00     0.030 A 
HETATM   14  N   UNL     1       8.487  22.767  56.850  1.00  0.00    -0.364 N 
HETATM   15  C   UNL     1       8.303  21.327  53.425  1.00  0.00     0.002 A 
HETATM   16  C   UNL     1       7.743  22.444  52.810  1.00  0.00     0.001 A 
HETATM   17  H   UNL     1       8.883  22.122  57.520  1.00  0.00     0.165 HD
HETATM   18  C   UNL     1       8.073  24.040  57.129  1.00  0.00     0.102 A 
ENDBRANCH   8   9
ENDBRANCH   4   7
BRANCH   1  19
HETATM   19  N   UNL     1       3.518  31.312  55.705  1.00  0.00    -0.378 N 
HETATM   20  C   UNL     1       3.223  31.934  54.406  1.00  0.00     0.150 C 
HETATM   21  C   UNL     1       4.267  33.009  54.044  1.00  0.00     0.254 C 
HETATM   22  N   UNL     1       4.401  34.031  55.180  1.00  0.00    -0.068 N 
HETATM   23  H   UNL     1       3.473  34.449  55.324  1.00  0.00     0.280 HD
HETATM   24  C   UNL     1       4.761  33.311  56.490  1.00  0.00     0.254 C 
HETATM   25  C   UNL     1       3.699  32.243  56.832  1.00  0.00     0.150 C 
BRANCH  22  26
HETATM   26  C   UNL     1       5.376  35.143  54.877  1.00  0.00     0.230 C 
HETATM   27  C   UNL     1       5.290  36.234  55.927  1.00  0.00     0.034 C 
ENDBRANCH  22  26
ENDBRANCH   1  19
TORSDOF 4
ENDMDL
