MODEL 1
REMARK VINA RESULT:      -9.2      0.000      0.000
REMARK  14 active torsions:
REMARK  status: ('A' for Active; 'I' for Inactive)
REMARK    1  A    between atoms: C_2  and  O_3 
REMARK    2  A    between atoms: O_3  and  C_4 
REMARK    3  A    between atoms: C_5  and  O_6 
REMARK    4  A    between atoms: C_9  and  C_10 
REMARK    5  A    between atoms: N_11  and  C_12 
REMARK    6  A    between atoms: C_12  and  C_13 
REMARK    7  A    between atoms: C_13  and  C_14 
REMARK    8  A    between atoms: C_14  and  N_15 
REMARK    9  A    between atoms: C_24  and  O_25 
REMARK   10  A    between atoms: C_26  and  C_27 
REMARK   11  A    between atoms: C_27  and  C_28 
REMARK   12  A    between atoms: C_32  and  O_33 
REMARK   13  A    between atoms: O_33  and  C_34 
REMARK   14  A    between atoms: C_34  and  C_35 
ROOT
HETATM    1  C   UNL     1       6.480  26.333  53.662  1.00  0.00     0.161 C 
HETATM    2  N   UNL     1       5.029  26.302  53.481  1.00  0.00    -0.333 N 
HETATM    3  C   UNL     1       4.520  27.587  53.415  1.00  0.00     0.278 C 
HETATM    4  O   UNL     1       3.376  27.926  53.166  1.00  0.00    -0.265 OA
HETATM    5  C   UNL     1       5.604  28.520  53.764  1.00  0.00     0.146 C 
HETATM    6  C   UNL     1       6.710  27.787  53.938  1.00  0.00     0.059 C 
ENDROOT
BRANCH   6   7
HETATM    7  C   UNL     1       7.935  28.354  54.528  1.00  0.00     0.193 C 
HETATM    8  O   UNL     1       8.941  28.505  53.841  1.00  0.00    -0.287 OA
BRANCH   7   9
HETATM    9  C   UNL     1       7.918  28.867  55.920  1.00  0.00     0.015 A 
HETATM   10  C   UNL     1       9.076  29.496  56.393  1.00  0.00     0.025 A 
HETATM   11  C   UNL     1       9.137  29.997  57.700  1.00  0.00    -0.028 A 
HETATM   12  C   UNL     1      10.399  30.659  58.185  1.00  0.00     0.051 C 
HETATM   13  C   UNL     1       8.018  29.875  58.542  1.00  0.00     0.074 A 
HETATM   14  C   UNL     1       6.868  29.232  58.074  1.00  0.00     0.038 A 
HETATM   15  C   UNL     1       6.819  28.718  56.771  1.00  0.00     0.018 A 
BRANCH  13  16
HETATM   16  O   UNL     1       8.171  30.413  59.789  1.00  0.00    -0.350 OA
BRANCH  16  17
HETATM   17  C   UNL     1       7.449  31.597  60.120  1.00  0.00     0.179 C 
BRANCH  17  18
HETATM   18  C   UNL     1       8.276  32.436  61.108  1.00  0.00     0.002 C 
HETATM   19  C   UNL     1       7.442  32.830  62.329  1.00  0.00     0.011 C 
HETATM   20  C   UNL     1       9.536  31.694  61.558  1.00  0.00     0.011 C 
ENDBRANCH  17  18
ENDBRANCH  16  17
ENDBRANCH  13  16
ENDBRANCH   7   9
ENDBRANCH   6   7
BRANCH   1  21
HETATM   21  C   UNL     1       6.988  25.388  54.726  1.00  0.00    -0.028 A 
HETATM   22  C   UNL     1       6.627  25.526  56.078  1.00  0.00     0.012 A 
HETATM   23  C   UNL     1       7.148  24.661  57.039  1.00  0.00     0.040 A 
HETATM   24  C   UNL     1       8.058  23.683  56.659  1.00  0.00     0.099 A 
HETATM   25  C   UNL     1       8.472  23.549  55.334  1.00  0.00     0.102 A 
HETATM   26  C   UNL     1       7.910  24.382  54.366  1.00  0.00     0.049 A 
BRANCH  24  27
HETATM   27  O   UNL     1       8.564  22.863  57.628  1.00  0.00    -0.358 OA
HETATM   28  H   UNL     1       8.347  21.954  57.343  1.00  0.00     0.218 HD
ENDBRANCH  24  27
BRANCH  25  29
HETATM   29  O   UNL     1       9.415  22.582  55.101  1.00  0.00    -0.349 OA
BRANCH  29  30
HETATM   30  C   UNL     1       9.095  21.623  54.088  1.00  0.00     0.171 C 
HETATM   31  C   UNL     1       8.038  20.682  54.634  1.00  0.00     0.034 C 
ENDBRANCH  29  30
ENDBRANCH  25  29
ENDBRANCH   1  21
BRANCH   5  32
HETATM   32  O   UNL     1       5.425  29.860  53.911  1.00  0.00    -0.355 OA
HETATM   33  H   UNL     1       4.788  30.146  53.228  1.00  0.00     0.218 HD
ENDBRANCH   5  32
BRANCH   2  34
HETATM   34  C   UNL     1       4.300  25.146  52.980  1.00  0.00     0.129 C 
BRANCH  34  35
HETATM   35  C   UNL     1       4.656  24.739  51.549  1.00  0.00     0.048 C 
BRANCH  35  36
HETATM   36  C   UNL     1       5.053  25.854  50.577  1.00  0.00     0.236 C 
BRANCH  36  37
HETATM   37  N   UNL     1       3.942  26.491  49.773  1.00  0.00    -0.067 N 
HETATM   38  H   UNL     1       3.116  26.399  50.381  1.00  0.00     0.280 HD
HETATM   39  C   UNL     1       4.073  27.994  49.554  1.00  0.00     0.261 C 
HETATM   40  C   UNL     1       2.784  28.531  48.914  1.00  0.00     0.195 C 
HETATM   41  O   UNL     1       2.483  27.843  47.695  1.00  0.00    -0.388 OA
HETATM   42  C   UNL     1       2.294  26.439  47.906  1.00  0.00     0.195 C 
HETATM   43  C   UNL     1       3.565  25.795  48.474  1.00  0.00     0.261 C 
ENDBRANCH  36  37
ENDBRANCH  35  36
ENDBRANCH  34  35
ENDBRANCH   2  34
TORSDOF 14
ENDMDL
MODEL 2
REMARK VINA RESULT:      -8.6      2.801      7.047
REMARK  14 active torsions:
REMARK  status: ('A' for Active; 'I' for Inactive)
REMARK    1  A    between atoms: C_2  and  O_3 
REMARK    2  A    between atoms: O_3  and  C_4 
REMARK    3  A    between atoms: C_5  and  O_6 
REMARK    4  A    between atoms: C_9  and  C_10 
REMARK    5  A    between atoms: N_11  and  C_12 
REMARK    6  A    between atoms: C_12  and  C_13 
REMARK    7  A    between atoms: C_13  and  C_14 
REMARK    8  A    between atoms: C_14  and  N_15 
REMARK    9  A    between atoms: C_24  and  O_25 
REMARK   10  A    between atoms: C_26  and  C_27 
REMARK   11  A    between atoms: C_27  and  C_28 
REMARK   12  A    between atoms: C_32  and  O_33 
REMARK   13  A    between atoms: O_33  and  C_34 
REMARK   14  A    between atoms: C_34  and  C_35 
ROOT
HETATM    1  C   UNL     1       7.118  29.718  58.087  1.00  0.00     0.161 C 
HETATM    2  N   UNL     1       8.380  29.216  57.545  1.00  0.00    -0.333 N 
HETATM    3  C   UNL     1       9.433  30.025  57.935  1.00  0.00     0.278 C 
HETATM    4  O   UNL     1      10.623  29.842  57.752  1.00  0.00    -0.265 OA
HETATM    5  C   UNL     1       8.867  31.221  58.582  1.00  0.00     0.146 C 
HETATM    6  C   UNL     1       7.541  31.049  58.630  1.00  0.00     0.059 C 
ENDROOT
BRANCH   6   7
HETATM    7  C   UNL     1       6.625  32.145  58.992  1.00  0.00     0.193 C 
HETATM    8  O   UNL     1       6.175  32.888  58.125  1.00  0.00    -0.287 OA
BRANCH   7   9
HETATM    9  C   UNL     1       6.139  32.273  60.387  1.00  0.00     0.015 A 
HETATM   10  C   UNL     1       7.098  32.417  61.397  1.00  0.00     0.025 A 
HETATM   11  C   UNL     1       6.714  32.534  62.740  1.00  0.00    -0.028 A 
HETATM   12  C   UNL     1       7.768  32.677  63.805  1.00  0.00     0.051 C 
HETATM   13  C   UNL     1       5.349  32.516  63.074  1.00  0.00     0.074 A 
HETATM   14  C   UNL     1       4.393  32.356  62.066  1.00  0.00     0.038 A 
HETATM   15  C   UNL     1       4.784  32.223  60.727  1.00  0.00     0.018 A 
BRANCH  13  16
HETATM   16  O   UNL     1       5.077  32.657  64.406  1.00  0.00    -0.350 OA
BRANCH  16  17
HETATM   17  C   UNL     1       4.298  33.771  64.835  1.00  0.00     0.179 C 
BRANCH  17  18
HETATM   18  C   UNL     1       5.221  34.820  65.476  1.00  0.00     0.002 C 
HETATM   19  C   UNL     1       4.476  36.134  65.720  1.00  0.00     0.011 C 
HETATM   20  C   UNL     1       5.822  34.312  66.788  1.00  0.00     0.011 C 
ENDBRANCH  17  18
ENDBRANCH  16  17
ENDBRANCH  13  16
ENDBRANCH   7   9
ENDBRANCH   6   7
BRANCH   1  21
HETATM   21  C   UNL     1       5.990  29.762  57.082  1.00  0.00    -0.028 A 
HETATM   22  C   UNL     1       4.652  29.946  57.472  1.00  0.00     0.012 A 
HETATM   23  C   UNL     1       3.632  29.940  56.521  1.00  0.00     0.040 A 
HETATM   24  C   UNL     1       3.943  29.713  55.186  1.00  0.00     0.099 A 
HETATM   25  C   UNL     1       5.255  29.481  54.773  1.00  0.00     0.102 A 
HETATM   26  C   UNL     1       6.278  29.539  55.719  1.00  0.00     0.049 A 
BRANCH  24  27
HETATM   27  O   UNL     1       2.919  29.694  54.282  1.00  0.00    -0.358 OA
HETATM   28  H   UNL     1       2.964  28.817  53.853  1.00  0.00     0.218 HD
ENDBRANCH  24  27
BRANCH  25  29
HETATM   29  O   UNL     1       5.418  29.214  53.438  1.00  0.00    -0.349 OA
BRANCH  29  30
HETATM   30  C   UNL     1       5.992  27.943  53.118  1.00  0.00     0.171 C 
HETATM   31  C   UNL     1       4.879  26.914  53.056  1.00  0.00     0.034 C 
ENDBRANCH  29  30
ENDBRANCH  25  29
ENDBRANCH   1  21
BRANCH   5  32
HETATM   32  O   UNL     1       9.615  32.283  58.984  1.00  0.00    -0.355 OA
HETATM   33  H   UNL     1      10.401  32.323  58.406  1.00  0.00     0.218 HD
ENDBRANCH   5  32
BRANCH   2  34
HETATM   34  C   UNL     1       8.575  27.850  57.079  1.00  0.00     0.129 C 
BRANCH  34  35
HETATM   35  C   UNL     1       7.762  26.797  57.835  1.00  0.00     0.048 C 
BRANCH  35  36
HETATM   36  C   UNL     1       6.702  26.024  57.045  1.00  0.00     0.236 C 
BRANCH  36  37
HETATM   37  N   UNL     1       7.132  24.717  56.418  1.00  0.00    -0.067 N 
HETATM   38  H   UNL     1       6.326  24.094  56.571  1.00  0.00     0.280 HD
HETATM   39  C   UNL     1       7.297  24.741  54.903  1.00  0.00     0.261 C 
HETATM   40  C   UNL     1       7.526  23.312  54.390  1.00  0.00     0.195 C 
HETATM   41  O   UNL     1       8.651  22.703  55.035  1.00  0.00    -0.388 OA
HETATM   42  C   UNL     1       8.473  22.617  56.453  1.00  0.00     0.195 C 
HETATM   43  C   UNL     1       8.313  24.013  57.070  1.00  0.00     0.261 C 
ENDBRANCH  36  37
ENDBRANCH  35  36
ENDBRANCH  34  35
ENDBRANCH   2  34
TORSDOF 14
ENDMDL
MODEL 3
REMARK VINA RESULT:      -8.6      2.862      8.230
REMARK  14 active torsions:
REMARK  status: ('A' for Active; 'I' for Inactive)
REMARK    1  A    between atoms: C_2  and  O_3 
REMARK    2  A    between atoms: O_3  and  C_4 
REMARK    3  A    between atoms: C_5  and  O_6 
REMARK    4  A    between atoms: C_9  and  C_10 
REMARK    5  A    between atoms: N_11  and  C_12 
REMARK    6  A    between atoms: C_12  and  C_13 
REMARK    7  A    between atoms: C_13  and  C_14 
REMARK    8  A    between atoms: C_14  and  N_15 
REMARK    9  A    between atoms: C_24  and  O_25 
REMARK   10  A    between atoms: C_26  and  C_27 
REMARK   11  A    between atoms: C_27  and  C_28 
REMARK   12  A    between atoms: C_32  and  O_33 
REMARK   13  A    between atoms: O_33  and  C_34 
REMARK   14  A    between atoms: C_34  and  C_35 
ROOT
HETATM    1  C   UNL     1       4.311  29.017  55.555  1.00  0.00     0.161 C 
HETATM    2  N   UNL     1       3.641  30.182  56.132  1.00  0.00    -0.333 N 
HETATM    3  C   UNL     1       2.968  30.890  55.153  1.00  0.00     0.278 C 
HETATM    4  O   UNL     1       2.225  31.845  55.299  1.00  0.00    -0.265 OA
HETATM    5  C   UNL     1       3.350  30.328  53.847  1.00  0.00     0.146 C 
HETATM    6  C   UNL     1       4.146  29.280  54.090  1.00  0.00     0.059 C 
ENDROOT
BRANCH   6   7
HETATM    7  C   UNL     1       4.911  28.618  53.018  1.00  0.00     0.193 C 
HETATM    8  O   UNL     1       5.313  29.264  52.055  1.00  0.00    -0.287 OA
BRANCH   7   9
HETATM    9  C   UNL     1       5.314  27.198  53.165  1.00  0.00     0.015 A 
HETATM   10  C   UNL     1       6.574  26.829  52.680  1.00  0.00     0.025 A 
HETATM   11  C   UNL     1       7.020  25.504  52.775  1.00  0.00    -0.028 A 
HETATM   12  C   UNL     1       8.375  25.134  52.234  1.00  0.00     0.051 C 
HETATM   13  C   UNL     1       6.194  24.537  53.373  1.00  0.00     0.074 A 
HETATM   14  C   UNL     1       4.929  24.903  53.843  1.00  0.00     0.038 A 
HETATM   15  C   UNL     1       4.483  26.228  53.730  1.00  0.00     0.018 A 
BRANCH  13  16
HETATM   16  O   UNL     1       6.726  23.280  53.436  1.00  0.00    -0.350 OA
BRANCH  16  17
HETATM   17  C   UNL     1       7.250  22.816  54.678  1.00  0.00     0.179 C 
BRANCH  17  18
HETATM   18  C   UNL     1       8.178  21.617  54.422  1.00  0.00     0.002 C 
HETATM   19  C   UNL     1       8.001  20.543  55.497  1.00  0.00     0.011 C 
HETATM   20  C   UNL     1       7.943  21.010  53.037  1.00  0.00     0.011 C 
ENDBRANCH  17  18
ENDBRANCH  16  17
ENDBRANCH  13  16
ENDBRANCH   7   9
ENDBRANCH   6   7
BRANCH   1  21
HETATM   21  C   UNL     1       5.739  28.835  56.019  1.00  0.00    -0.028 A 
HETATM   22  C   UNL     1       6.784  29.645  55.543  1.00  0.00     0.012 A 
HETATM   23  C   UNL     1       8.096  29.422  55.961  1.00  0.00     0.040 A 
HETATM   24  C   UNL     1       8.370  28.368  56.823  1.00  0.00     0.099 A 
HETATM   25  C   UNL     1       7.362  27.517  57.276  1.00  0.00     0.102 A 
HETATM   26  C   UNL     1       6.043  27.774  56.898  1.00  0.00     0.049 A 
BRANCH  24  27
HETATM   27  O   UNL     1       9.668  28.164  57.198  1.00  0.00    -0.358 OA
HETATM   28  H   UNL     1      10.052  27.585  56.511  1.00  0.00     0.218 HD
ENDBRANCH  24  27
BRANCH  25  29
HETATM   29  O   UNL     1       7.772  26.483  58.076  1.00  0.00    -0.349 OA
BRANCH  29  30
HETATM   30  C   UNL     1       7.600  25.167  57.540  1.00  0.00     0.171 C 
HETATM   31  C   UNL     1       8.970  24.557  57.312  1.00  0.00     0.034 C 
ENDBRANCH  29  30
ENDBRANCH  25  29
ENDBRANCH   1  21
BRANCH   5  32
HETATM   32  O   UNL     1       2.962  30.860  52.657  1.00  0.00    -0.355 OA
HETATM   33  H   UNL     1       2.524  31.712  52.847  1.00  0.00     0.218 HD
ENDBRANCH   5  32
BRANCH   2  34
HETATM   34  C   UNL     1       3.331  30.317  57.549  1.00  0.00     0.129 C 
BRANCH  34  35
HETATM   35  C   UNL     1       3.948  31.545  58.222  1.00  0.00     0.048 C 
BRANCH  35  36
HETATM   36  C   UNL     1       5.466  31.718  58.119  1.00  0.00     0.236 C 
BRANCH  36  37
HETATM   37  N   UNL     1       6.270  31.477  59.377  1.00  0.00    -0.067 N 
HETATM   38  H   UNL     1       5.924  30.569  59.719  1.00  0.00     0.280 HD
HETATM   39  C   UNL     1       7.762  31.247  59.165  1.00  0.00     0.261 C 
HETATM   40  C   UNL     1       8.406  30.811  60.489  1.00  0.00     0.195 C 
HETATM   41  O   UNL     1       8.160  31.768  61.526  1.00  0.00    -0.388 OA
HETATM   42  C   UNL     1       6.760  31.940  61.776  1.00  0.00     0.195 C 
HETATM   43  C   UNL     1       6.040  32.452  60.522  1.00  0.00     0.261 C 
ENDBRANCH  36  37
ENDBRANCH  35  36
ENDBRANCH  34  35
ENDBRANCH   2  34
TORSDOF 14
ENDMDL
MODEL 4
REMARK VINA RESULT:      -8.6      2.291      8.467
REMARK  14 active torsions:
REMARK  status: ('A' for Active; 'I' for Inactive)
REMARK    1  A    between atoms: C_2  and  O_3 
REMARK    2  A    between atoms: O_3  and  C_4 
REMARK    3  A    between atoms: C_5  and  O_6 
REMARK    4  A    between atoms: C_9  and  C_10 
REMARK    5  A    between atoms: N_11  and  C_12 
REMARK    6  A    between atoms: C_12  and  C_13 
REMARK    7  A    between atoms: C_13  and  C_14 
REMARK    8  A    between atoms: C_14  and  N_15 
REMARK    9  A    between atoms: C_24  and  O_25 
REMARK   10  A    between atoms: C_26  and  C_27 
REMARK   11  A    between atoms: C_27  and  C_28 
REMARK   12  A    between atoms: C_32  and  O_33 
REMARK   13  A    between atoms: O_33  and  C_34 
REMARK   14  A    between atoms: C_34  and  C_35 
ROOT
HETATM    1  C   UNL     1       7.353  27.464  56.047  1.00  0.00     0.161 C 
HETATM    2  N   UNL     1       7.153  26.393  57.023  1.00  0.00    -0.333 N 
HETATM    3  C   UNL     1       5.806  26.109  57.163  1.00  0.00     0.278 C 
HETATM    4  O   UNL     1       5.295  25.209  57.806  1.00  0.00    -0.265 OA
HETATM    5  C   UNL     1       5.049  27.140  56.432  1.00  0.00     0.146 C 
HETATM    6  C   UNL     1       5.946  27.928  55.829  1.00  0.00     0.059 C 
ENDROOT
BRANCH   6   7
HETATM    7  C   UNL     1       5.563  29.207  55.205  1.00  0.00     0.193 C 
HETATM    8  O   UNL     1       5.786  30.268  55.780  1.00  0.00    -0.287 OA
BRANCH   7   9
HETATM    9  C   UNL     1       5.029  29.225  53.821  1.00  0.00     0.015 A 
HETATM   10  C   UNL     1       5.456  28.217  52.948  1.00  0.00     0.025 A 
HETATM   11  C   UNL     1       5.001  28.174  51.624  1.00  0.00    -0.028 A 
HETATM   12  C   UNL     1       5.487  27.085  50.705  1.00  0.00     0.051 C 
HETATM   13  C   UNL     1       4.098  29.150  51.169  1.00  0.00     0.074 A 
HETATM   14  C   UNL     1       3.685  30.167  52.037  1.00  0.00     0.038 A 
HETATM   15  C   UNL     1       4.157  30.213  53.356  1.00  0.00     0.018 A 
BRANCH  13  16
HETATM   16  O   UNL     1       3.700  29.011  49.870  1.00  0.00    -0.350 OA
BRANCH  16  17
HETATM   17  C   UNL     1       2.378  28.548  49.602  1.00  0.00     0.179 C 
BRANCH  17  18
HETATM   18  C   UNL     1       2.348  27.866  48.224  1.00  0.00     0.002 C 
HETATM   19  C   UNL     1       2.938  26.456  48.293  1.00  0.00     0.011 C 
HETATM   20  C   UNL     1       0.928  27.808  47.658  1.00  0.00     0.011 C 
ENDBRANCH  17  18
ENDBRANCH  16  17
ENDBRANCH  13  16
ENDBRANCH   7   9
ENDBRANCH   6   7
BRANCH   1  21
HETATM   21  C   UNL     1       8.321  28.534  56.498  1.00  0.00    -0.028 A 
HETATM   22  C   UNL     1       9.350  29.005  55.665  1.00  0.00     0.012 A 
HETATM   23  C   UNL     1      10.251  29.964  56.128  1.00  0.00     0.040 A 
HETATM   24  C   UNL     1      10.148  30.424  57.435  1.00  0.00     0.099 A 
HETATM   25  C   UNL     1       9.167  29.943  58.302  1.00  0.00     0.102 A 
HETATM   26  C   UNL     1       8.236  29.022  57.819  1.00  0.00     0.049 A 
BRANCH  24  27
HETATM   27  O   UNL     1      11.057  31.349  57.865  1.00  0.00    -0.358 OA
HETATM   28  H   UNL     1      10.638  31.795  58.627  1.00  0.00     0.218 HD
ENDBRANCH  24  27
BRANCH  25  29
HETATM   29  O   UNL     1       9.210  30.436  59.580  1.00  0.00    -0.349 OA
BRANCH  29  30
HETATM   30  C   UNL     1       8.088  31.226  59.985  1.00  0.00     0.171 C 
HETATM   31  C   UNL     1       8.603  32.520  60.587  1.00  0.00     0.034 C 
ENDBRANCH  29  30
ENDBRANCH  25  29
ENDBRANCH   1  21
BRANCH   5  32
HETATM   32  O   UNL     1       3.693  27.234  56.455  1.00  0.00    -0.355 OA
HETATM   33  H   UNL     1       3.425  27.771  55.685  1.00  0.00     0.218 HD
ENDBRANCH   5  32
BRANCH   2  34
HETATM   34  C   UNL     1       8.195  25.458  57.423  1.00  0.00     0.129 C 
BRANCH  34  35
HETATM   35  C   UNL     1       8.023  24.039  56.878  1.00  0.00     0.048 C 
BRANCH  35  36
HETATM   36  C   UNL     1       8.214  23.834  55.373  1.00  0.00     0.236 C 
BRANCH  36  37
HETATM   37  N   UNL     1       8.150  22.412  54.861  1.00  0.00    -0.067 N 
HETATM   38  H   UNL     1       7.201  22.103  55.117  1.00  0.00     0.280 HD
HETATM   39  C   UNL     1       8.191  22.261  53.345  1.00  0.00     0.261 C 
HETATM   40  C   UNL     1       7.906  20.801  52.968  1.00  0.00     0.195 C 
HETATM   41  O   UNL     1       8.824  19.910  53.613  1.00  0.00    -0.388 OA
HETATM   42  C   UNL     1       8.743  19.999  55.040  1.00  0.00     0.195 C 
HETATM   43  C   UNL     1       9.090  21.415  55.520  1.00  0.00     0.261 C 
ENDBRANCH  36  37
ENDBRANCH  35  36
ENDBRANCH  34  35
ENDBRANCH   2  34
TORSDOF 14
ENDMDL
MODEL 5
REMARK VINA RESULT:      -8.4      2.480      6.769
REMARK  14 active torsions:
REMARK  status: ('A' for Active; 'I' for Inactive)
REMARK    1  A    between atoms: C_2  and  O_3 
REMARK    2  A    between atoms: O_3  and  C_4 
REMARK    3  A    between atoms: C_5  and  O_6 
REMARK    4  A    between atoms: C_9  and  C_10 
REMARK    5  A    between atoms: N_11  and  C_12 
REMARK    6  A    between atoms: C_12  and  C_13 
REMARK    7  A    between atoms: C_13  and  C_14 
REMARK    8  A    between atoms: C_14  and  N_15 
REMARK    9  A    between atoms: C_24  and  O_25 
REMARK   10  A    between atoms: C_26  and  C_27 
REMARK   11  A    between atoms: C_27  and  C_28 
REMARK   12  A    between atoms: C_32  and  O_33 
REMARK   13  A    between atoms: O_33  and  C_34 
REMARK   14  A    between atoms: C_34  and  C_35 
ROOT
HETATM    1  C   UNL     1       4.924  28.158  52.566  1.00  0.00     0.161 C 
HETATM    2  N   UNL     1       5.359  28.843  51.349  1.00  0.00    -0.333 N 
HETATM    3  C   UNL     1       5.265  27.999  50.257  1.00  0.00     0.278 C 
HETATM    4  O   UNL     1       5.444  28.274  49.083  1.00  0.00    -0.265 OA
HETATM    5  C   UNL     1       4.961  26.647  50.755  1.00  0.00     0.146 C 
HETATM    6  C   UNL     1       4.804  26.746  52.080  1.00  0.00     0.059 C 
ENDROOT
BRANCH   6   7
HETATM    7  C   UNL     1       4.727  25.556  52.946  1.00  0.00     0.193 C 
HETATM    8  O   UNL     1       3.649  25.003  53.145  1.00  0.00    -0.287 OA
BRANCH   7   9
HETATM    9  C   UNL     1       5.970  24.942  53.473  1.00  0.00     0.015 A 
HETATM   10  C   UNL     1       6.152  24.937  54.861  1.00  0.00     0.025 A 
HETATM   11  C   UNL     1       7.306  24.382  55.431  1.00  0.00    -0.028 A 
HETATM   12  C   UNL     1       7.480  24.401  56.927  1.00  0.00     0.051 C 
HETATM   13  C   UNL     1       8.287  23.817  54.599  1.00  0.00     0.074 A 
HETATM   14  C   UNL     1       8.112  23.837  53.212  1.00  0.00     0.038 A 
HETATM   15  C   UNL     1       6.962  24.408  52.647  1.00  0.00     0.018 A 
BRANCH  13  16
HETATM   16  O   UNL     1       9.364  23.285  55.251  1.00  0.00    -0.350 OA
BRANCH  16  17
HETATM   17  C   UNL     1       9.682  21.911  55.047  1.00  0.00     0.179 C 
BRANCH  17  18
HETATM   18  C   UNL     1       8.381  21.101  54.923  1.00  0.00     0.002 C 
HETATM   19  C   UNL     1       8.428  20.161  53.716  1.00  0.00     0.011 C 
HETATM   20  C   UNL     1       8.095  20.300  56.194  1.00  0.00     0.011 C 
ENDBRANCH  17  18
ENDBRANCH  16  17
ENDBRANCH  13  16
ENDBRANCH   7   9
ENDBRANCH   6   7
BRANCH   1  21
HETATM   21  C   UNL     1       5.846  28.355  53.747  1.00  0.00    -0.028 A 
HETATM   22  C   UNL     1       7.236  28.170  53.645  1.00  0.00     0.012 A 
HETATM   23  C   UNL     1       8.052  28.321  54.766  1.00  0.00     0.040 A 
HETATM   24  C   UNL     1       7.478  28.619  55.995  1.00  0.00     0.099 A 
HETATM   25  C   UNL     1       6.098  28.764  56.139  1.00  0.00     0.102 A 
HETATM   26  C   UNL     1       5.290  28.664  55.007  1.00  0.00     0.049 A 
BRANCH  24  27
HETATM   27  O   UNL     1       8.303  28.741  57.077  1.00  0.00    -0.358 OA
HETATM   28  H   UNL     1       8.427  27.833  57.417  1.00  0.00     0.218 HD
ENDBRANCH  24  27
BRANCH  25  29
HETATM   29  O   UNL     1       5.656  29.001  57.415  1.00  0.00    -0.349 OA
BRANCH  29  30
HETATM   30  C   UNL     1       5.376  30.366  57.738  1.00  0.00     0.171 C 
HETATM   31  C   UNL     1       3.876  30.580  57.664  1.00  0.00     0.034 C 
ENDBRANCH  29  30
ENDBRANCH  25  29
ENDBRANCH   1  21
BRANCH   5  32
HETATM   32  O   UNL     1       4.914  25.545  49.960  1.00  0.00    -0.355 OA
HETATM   33  H   UNL     1       4.054  25.109  50.116  1.00  0.00     0.218 HD
ENDBRANCH   5  32
BRANCH   2  34
HETATM   34  C   UNL     1       5.424  30.291  51.216  1.00  0.00     0.129 C 
BRANCH  34  35
HETATM   35  C   UNL     1       4.065  30.983  51.098  1.00  0.00     0.048 C 
BRANCH  35  36
HETATM   36  C   UNL     1       3.574  31.339  49.692  1.00  0.00     0.236 C 
BRANCH  36  37
HETATM   37  N   UNL     1       2.928  30.231  48.890  1.00  0.00    -0.067 N 
HETATM   38  H   UNL     1       3.714  29.607  48.657  1.00  0.00     0.280 HD
HETATM   39  C   UNL     1       1.967  29.337  49.667  1.00  0.00     0.261 C 
HETATM   40  C   UNL     1       1.558  28.144  48.792  1.00  0.00     0.195 C 
HETATM   41  O   UNL     1       0.989  28.581  47.552  1.00  0.00    -0.388 OA
HETATM   42  C   UNL     1       1.911  29.366  46.787  1.00  0.00     0.195 C 
HETATM   43  C   UNL     1       2.320  30.630  47.554  1.00  0.00     0.261 C 
ENDBRANCH  36  37
ENDBRANCH  35  36
ENDBRANCH  34  35
ENDBRANCH   2  34
TORSDOF 14
ENDMDL
MODEL 6
REMARK VINA RESULT:      -8.3      3.836      7.966
REMARK  14 active torsions:
REMARK  status: ('A' for Active; 'I' for Inactive)
REMARK    1  A    between atoms: C_2  and  O_3 
REMARK    2  A    between atoms: O_3  and  C_4 
REMARK    3  A    between atoms: C_5  and  O_6 
REMARK    4  A    between atoms: C_9  and  C_10 
REMARK    5  A    between atoms: N_11  and  C_12 
REMARK    6  A    between atoms: C_12  and  C_13 
REMARK    7  A    between atoms: C_13  and  C_14 
REMARK    8  A    between atoms: C_14  and  N_15 
REMARK    9  A    between atoms: C_24  and  O_25 
REMARK   10  A    between atoms: C_26  and  C_27 
REMARK   11  A    between atoms: C_27  and  C_28 
REMARK   12  A    between atoms: C_32  and  O_33 
REMARK   13  A    between atoms: O_33  and  C_34 
REMARK   14  A    between atoms: C_34  and  C_35 
ROOT
HETATM    1  C   UNL     1       5.338  29.855  54.676  1.00  0.00     0.161 C 
HETATM    2  N   UNL     1       4.171  30.206  55.486  1.00  0.00    -0.333 N 
HETATM    3  C   UNL     1       4.482  30.156  56.833  1.00  0.00     0.278 C 
HETATM    4  O   UNL     1       3.784  30.488  57.774  1.00  0.00    -0.265 OA
HETATM    5  C   UNL     1       5.822  29.559  56.965  1.00  0.00     0.146 C 
HETATM    6  C   UNL     1       6.284  29.359  55.726  1.00  0.00     0.059 C 
ENDROOT
BRANCH   6   7
HETATM    7  C   UNL     1       7.493  28.558  55.465  1.00  0.00     0.193 C 
HETATM    8  O   UNL     1       8.607  29.059  55.587  1.00  0.00    -0.287 OA
BRANCH   7   9
HETATM    9  C   UNL     1       7.374  27.107  55.182  1.00  0.00     0.015 A 
HETATM   10  C   UNL     1       7.704  26.668  53.895  1.00  0.00     0.025 A 
HETATM   11  C   UNL     1       7.607  25.312  53.552  1.00  0.00    -0.028 A 
HETATM   12  C   UNL     1       7.959  24.871  52.156  1.00  0.00     0.051 C 
HETATM   13  C   UNL     1       7.181  24.383  54.516  1.00  0.00     0.074 A 
HETATM   14  C   UNL     1       6.835  24.825  55.797  1.00  0.00     0.038 A 
HETATM   15  C   UNL     1       6.920  26.184  56.129  1.00  0.00     0.018 A 
BRANCH  13  16
HETATM   16  O   UNL     1       7.139  23.085  54.090  1.00  0.00    -0.350 OA
BRANCH  16  17
HETATM   17  C   UNL     1       7.565  22.055  54.978  1.00  0.00     0.179 C 
BRANCH  17  18
HETATM   18  C   UNL     1       8.588  21.158  54.263  1.00  0.00     0.002 C 
HETATM   19  C   UNL     1       8.933  19.931  55.110  1.00  0.00     0.011 C 
HETATM   20  C   UNL     1       8.082  20.714  52.889  1.00  0.00     0.011 C 
ENDBRANCH  17  18
ENDBRANCH  16  17
ENDBRANCH  13  16
ENDBRANCH   7   9
ENDBRANCH   6   7
BRANCH   1  21
HETATM   21  C   UNL     1       5.042  28.877  53.562  1.00  0.00    -0.028 A 
HETATM   22  C   UNL     1       4.368  27.665  53.795  1.00  0.00     0.012 A 
HETATM   23  C   UNL     1       4.149  26.768  52.751  1.00  0.00     0.040 A 
HETATM   24  C   UNL     1       4.634  27.061  51.483  1.00  0.00     0.099 A 
HETATM   25  C   UNL     1       5.347  28.233  51.229  1.00  0.00     0.102 A 
HETATM   26  C   UNL     1       5.519  29.153  52.264  1.00  0.00     0.049 A 
BRANCH  24  27
HETATM   27  O   UNL     1       4.419  26.152  50.486  1.00  0.00    -0.358 OA
HETATM   28  H   UNL     1       4.011  25.377  50.920  1.00  0.00     0.218 HD
ENDBRANCH  24  27
BRANCH  25  29
HETATM   29  O   UNL     1       5.819  28.375  49.950  1.00  0.00    -0.349 OA
BRANCH  29  30
HETATM   30  C   UNL     1       5.195  29.392  49.160  1.00  0.00     0.171 C 
HETATM   31  C   UNL     1       4.840  28.801  47.808  1.00  0.00     0.034 C 
ENDBRANCH  29  30
ENDBRANCH  25  29
ENDBRANCH   1  21
BRANCH   5  32
HETATM   32  O   UNL     1       6.395  29.253  58.160  1.00  0.00    -0.355 OA
HETATM   33  H   UNL     1       7.037  29.959  58.365  1.00  0.00     0.218 HD
ENDBRANCH   5  32
BRANCH   2  34
HETATM   34  C   UNL     1       3.023  30.941  54.976  1.00  0.00     0.129 C 
BRANCH  34  35
HETATM   35  C   UNL     1       3.372  32.224  54.219  1.00  0.00     0.048 C 
BRANCH  35  36
HETATM   36  C   UNL     1       2.224  32.977  53.540  1.00  0.00     0.236 C 
BRANCH  36  37
HETATM   37  N   UNL     1       1.349  33.835  54.426  1.00  0.00    -0.067 N 
HETATM   38  H   UNL     1       1.119  34.645  53.833  1.00  0.00     0.280 HD
HETATM   39  C   UNL     1      -0.008  33.238  54.779  1.00  0.00     0.261 C 
HETATM   40  C   UNL     1      -0.861  34.294  55.496  1.00  0.00     0.195 C 
HETATM   41  O   UNL     1      -0.190  34.804  56.655  1.00  0.00    -0.388 OA
HETATM   42  C   UNL     1       1.057  35.425  56.321  1.00  0.00     0.195 C 
HETATM   43  C   UNL     1       2.011  34.419  55.665  1.00  0.00     0.261 C 
ENDBRANCH  36  37
ENDBRANCH  35  36
ENDBRANCH  34  35
ENDBRANCH   2  34
TORSDOF 14
ENDMDL
MODEL 7
REMARK VINA RESULT:      -8.3      2.982      9.012
REMARK  14 active torsions:
REMARK  status: ('A' for Active; 'I' for Inactive)
REMARK    1  A    between atoms: C_2  and  O_3 
REMARK    2  A    between atoms: O_3  and  C_4 
REMARK    3  A    between atoms: C_5  and  O_6 
REMARK    4  A    between atoms: C_9  and  C_10 
REMARK    5  A    between atoms: N_11  and  C_12 
REMARK    6  A    between atoms: C_12  and  C_13 
REMARK    7  A    between atoms: C_13  and  C_14 
REMARK    8  A    between atoms: C_14  and  N_15 
REMARK    9  A    between atoms: C_24  and  O_25 
REMARK   10  A    between atoms: C_26  and  C_27 
REMARK   11  A    between atoms: C_27  and  C_28 
REMARK   12  A    between atoms: C_32  and  O_33 
REMARK   13  A    between atoms: O_33  and  C_34 
REMARK   14  A    between atoms: C_34  and  C_35 
ROOT
HETATM    1  C   UNL     1       6.019  28.750  56.486  1.00  0.00     0.161 C 
HETATM    2  N   UNL     1       5.039  29.804  56.744  1.00  0.00    -0.333 N 
HETATM    3  C   UNL     1       4.084  29.836  55.744  1.00  0.00     0.278 C 
HETATM    4  O   UNL     1       3.072  30.513  55.698  1.00  0.00    -0.265 OA
HETATM    5  C   UNL     1       4.527  28.932  54.669  1.00  0.00     0.146 C 
HETATM    6  C   UNL     1       5.652  28.345  55.091  1.00  0.00     0.059 C 
ENDROOT
BRANCH   6   7
HETATM    7  C   UNL     1       6.508  27.558  54.185  1.00  0.00     0.193 C 
HETATM    8  O   UNL     1       6.954  28.064  53.160  1.00  0.00    -0.287 OA
BRANCH   7   9
HETATM    9  C   UNL     1       6.943  26.195  54.575  1.00  0.00     0.015 A 
HETATM   10  C   UNL     1       7.609  26.052  55.798  1.00  0.00     0.025 A 
HETATM   11  C   UNL     1       8.058  24.796  56.228  1.00  0.00    -0.028 A 
HETATM   12  C   UNL     1       8.781  24.675  57.543  1.00  0.00     0.051 C 
HETATM   13  C   UNL     1       7.826  23.665  55.427  1.00  0.00     0.074 A 
HETATM   14  C   UNL     1       7.175  23.812  54.197  1.00  0.00     0.038 A 
HETATM   15  C   UNL     1       6.743  25.073  53.765  1.00  0.00     0.018 A 
BRANCH  13  16
HETATM   16  O   UNL     1       8.284  22.486  55.942  1.00  0.00    -0.350 OA
BRANCH  16  17
HETATM   17  C   UNL     1       9.297  21.774  55.236  1.00  0.00     0.179 C 
BRANCH  17  18
HETATM   18  C   UNL     1       8.757  20.393  54.828  1.00  0.00     0.002 C 
HETATM   19  C   UNL     1       7.651  19.930  55.779  1.00  0.00     0.011 C 
HETATM   20  C   UNL     1       8.238  20.396  53.389  1.00  0.00     0.011 C 
ENDBRANCH  17  18
ENDBRANCH  16  17
ENDBRANCH  13  16
ENDBRANCH   7   9
ENDBRANCH   6   7
BRANCH   1  21
HETATM   21  C   UNL     1       7.455  29.185  56.673  1.00  0.00    -0.028 A 
HETATM   22  C   UNL     1       8.375  29.192  55.609  1.00  0.00     0.012 A 
HETATM   23  C   UNL     1       9.702  29.560  55.827  1.00  0.00     0.040 A 
HETATM   24  C   UNL     1      10.121  29.885  57.111  1.00  0.00     0.099 A 
HETATM   25  C   UNL     1       9.244  29.843  58.195  1.00  0.00     0.102 A 
HETATM   26  C   UNL     1       7.905  29.525  57.966  1.00  0.00     0.049 A 
BRANCH  24  27
HETATM   27  O   UNL     1      11.432  30.222  57.294  1.00  0.00    -0.358 OA
HETATM   28  H   UNL     1      11.947  29.543  56.816  1.00  0.00     0.218 HD
ENDBRANCH  24  27
BRANCH  25  29
HETATM   29  O   UNL     1       9.796  30.130  59.416  1.00  0.00    -0.349 OA
BRANCH  29  30
HETATM   30  C   UNL     1       8.888  30.587  60.424  1.00  0.00     0.171 C 
HETATM   31  C   UNL     1       9.646  31.488  61.381  1.00  0.00     0.034 C 
ENDBRANCH  29  30
ENDBRANCH  25  29
ENDBRANCH   1  21
BRANCH   5  32
HETATM   32  O   UNL     1       3.882  28.807  53.478  1.00  0.00    -0.355 OA
HETATM   33  H   UNL     1       2.987  29.180  53.590  1.00  0.00     0.218 HD
ENDBRANCH   5  32
BRANCH   2  34
HETATM   34  C   UNL     1       4.819  30.401  58.054  1.00  0.00     0.129 C 
BRANCH  34  35
HETATM   35  C   UNL     1       5.171  31.887  58.145  1.00  0.00     0.048 C 
BRANCH  35  36
HETATM   36  C   UNL     1       5.946  32.354  59.381  1.00  0.00     0.236 C 
BRANCH  36  37
HETATM   37  N   UNL     1       5.212  32.316  60.703  1.00  0.00    -0.067 N 
HETATM   38  H   UNL     1       4.830  31.361  60.745  1.00  0.00     0.280 HD
HETATM   39  C   UNL     1       6.095  32.415  61.943  1.00  0.00     0.261 C 
HETATM   40  C   UNL     1       5.247  32.153  63.196  1.00  0.00     0.195 C 
HETATM   41  O   UNL     1       4.133  33.051  63.267  1.00  0.00    -0.388 OA
HETATM   42  C   UNL     1       3.264  32.916  62.136  1.00  0.00     0.195 C 
HETATM   43  C   UNL     1       4.008  33.237  60.834  1.00  0.00     0.261 C 
ENDBRANCH  36  37
ENDBRANCH  35  36
ENDBRANCH  34  35
ENDBRANCH   2  34
TORSDOF 14
ENDMDL
MODEL 8
REMARK VINA RESULT:      -8.3      3.922      8.599
REMARK  14 active torsions:
REMARK  status: ('A' for Active; 'I' for Inactive)
REMARK    1  A    between atoms: C_2  and  O_3 
REMARK    2  A    between atoms: O_3  and  C_4 
REMARK    3  A    between atoms: C_5  and  O_6 
REMARK    4  A    between atoms: C_9  and  C_10 
REMARK    5  A    between atoms: N_11  and  C_12 
REMARK    6  A    between atoms: C_12  and  C_13 
REMARK    7  A    between atoms: C_13  and  C_14 
REMARK    8  A    between atoms: C_14  and  N_15 
REMARK    9  A    between atoms: C_24  and  O_25 
REMARK   10  A    between atoms: C_26  and  C_27 
REMARK   11  A    between atoms: C_27  and  C_28 
REMARK   12  A    between atoms: C_32  and  O_33 
REMARK   13  A    between atoms: O_33  and  C_34 
REMARK   14  A    between atoms: C_34  and  C_35 
ROOT
HETATM    1  C   UNL     1       5.181  29.437  50.604  1.00  0.00     0.161 C 
HETATM    2  N   UNL     1       5.096  30.853  50.246  1.00  0.00    -0.333 N 
HETATM    3  C   UNL     1       4.625  31.597  51.312  1.00  0.00     0.278 C 
HETATM    4  O   UNL     1       4.532  32.809  51.395  1.00  0.00    -0.265 OA
HETATM    5  C   UNL     1       4.178  30.658  52.355  1.00  0.00     0.146 C 
HETATM    6  C   UNL     1       4.469  29.426  51.922  1.00  0.00     0.059 C 
ENDROOT
BRANCH   6   7
HETATM    7  C   UNL     1       3.951  28.221  52.595  1.00  0.00     0.193 C 
HETATM    8  O   UNL     1       2.753  28.112  52.834  1.00  0.00    -0.287 OA
BRANCH   7   9
HETATM    9  C   UNL     1       4.856  27.077  52.864  1.00  0.00     0.015 A 
HETATM   10  C   UNL     1       5.682  27.156  53.992  1.00  0.00     0.025 A 
HETATM   11  C   UNL     1       6.570  26.117  54.305  1.00  0.00    -0.028 A 
HETATM   12  C   UNL     1       7.454  26.235  55.518  1.00  0.00     0.051 C 
HETATM   13  C   UNL     1       6.623  24.980  53.482  1.00  0.00     0.074 A 
HETATM   14  C   UNL     1       5.810  24.909  52.347  1.00  0.00     0.038 A 
HETATM   15  C   UNL     1       4.936  25.959  52.030  1.00  0.00     0.018 A 
BRANCH  13  16
HETATM   16  O   UNL     1       7.505  24.016  53.883  1.00  0.00    -0.350 OA
BRANCH  16  17
HETATM   17  C   UNL     1       7.919  23.029  52.942  1.00  0.00     0.179 C 
BRANCH  17  18
HETATM   18  C   UNL     1       8.450  21.799  53.696  1.00  0.00     0.002 C 
HETATM   19  C   UNL     1       7.840  21.704  55.096  1.00  0.00     0.011 C 
HETATM   20  C   UNL     1       8.180  20.506  52.923  1.00  0.00     0.011 C 
ENDBRANCH  17  18
ENDBRANCH  16  17
ENDBRANCH  13  16
ENDBRANCH   7   9
ENDBRANCH   6   7
BRANCH   1  21
HETATM   21  C   UNL     1       4.616  28.502  49.559  1.00  0.00    -0.028 A 
HETATM   22  C   UNL     1       5.444  27.749  48.709  1.00  0.00     0.012 A 
HETATM   23  C   UNL     1       4.888  26.928  47.728  1.00  0.00     0.040 A 
HETATM   24  C   UNL     1       3.508  26.887  47.572  1.00  0.00     0.099 A 
HETATM   25  C   UNL     1       2.661  27.657  48.368  1.00  0.00     0.102 A 
HETATM   26  C   UNL     1       3.217  28.438  49.382  1.00  0.00     0.049 A 
BRANCH  24  27
HETATM   27  O   UNL     1       2.996  26.087  46.589  1.00  0.00    -0.358 OA
HETATM   28  H   UNL     1       2.028  26.220  46.621  1.00  0.00     0.218 HD
ENDBRANCH  24  27
BRANCH  25  29
HETATM   29  O   UNL     1       1.326  27.568  48.074  1.00  0.00    -0.349 OA
BRANCH  29  30
HETATM   30  C   UNL     1       0.830  28.509  47.117  1.00  0.00     0.171 C 
HETATM   31  C   UNL     1      -0.215  27.819  46.260  1.00  0.00     0.034 C 
ENDBRANCH  29  30
ENDBRANCH  25  29
ENDBRANCH   1  21
BRANCH   5  32
HETATM   32  O   UNL     1       3.550  31.046  53.498  1.00  0.00    -0.355 OA
HETATM   33  H   UNL     1       2.668  31.380  53.247  1.00  0.00     0.218 HD
ENDBRANCH   5  32
BRANCH   2  34
HETATM   34  C   UNL     1       5.823  31.451  49.135  1.00  0.00     0.129 C 
BRANCH  34  35
HETATM   35  C   UNL     1       4.938  31.998  48.014  1.00  0.00     0.048 C 
BRANCH  35  36
HETATM   36  C   UNL     1       4.947  33.512  47.783  1.00  0.00     0.236 C 
BRANCH  36  37
HETATM   37  N   UNL     1       5.998  34.055  46.841  1.00  0.00    -0.067 N 
HETATM   38  H   UNL     1       5.573  34.917  46.470  1.00  0.00     0.280 HD
HETATM   39  C   UNL     1       7.284  34.534  47.503  1.00  0.00     0.261 C 
HETATM   40  C   UNL     1       8.161  35.246  46.463  1.00  0.00     0.195 C 
HETATM   41  O   UNL     1       8.428  34.396  45.341  1.00  0.00    -0.388 OA
HETATM   42  C   UNL     1       7.225  33.996  44.674  1.00  0.00     0.195 C 
HETATM   43  C   UNL     1       6.313  33.205  45.620  1.00  0.00     0.261 C 
ENDBRANCH  36  37
ENDBRANCH  35  36
ENDBRANCH  34  35
ENDBRANCH   2  34
TORSDOF 14
ENDMDL
MODEL 9
REMARK VINA RESULT:      -8.3      1.860      2.901
REMARK  14 active torsions:
REMARK  status: ('A' for Active; 'I' for Inactive)
REMARK    1  A    between atoms: C_2  and  O_3 
REMARK    2  A    between atoms: O_3  and  C_4 
REMARK    3  A    between atoms: C_5  and  O_6 
REMARK    4  A    between atoms: C_9  and  C_10 
REMARK    5  A    between atoms: N_11  and  C_12 
REMARK    6  A    between atoms: C_12  and  C_13 
REMARK    7  A    between atoms: C_13  and  C_14 
REMARK    8  A    between atoms: C_14  and  N_15 
REMARK    9  A    between atoms: C_24  and  O_25 
REMARK   10  A    between atoms: C_26  and  C_27 
REMARK   11  A    between atoms: C_27  and  C_28 
REMARK   12  A    between atoms: C_32  and  O_33 
REMARK   13  A    between atoms: O_33  and  C_34 
REMARK   14  A    between atoms: C_34  and  C_35 
ROOT
HETATM    1  C   UNL     1       5.787  28.514  53.364  1.00  0.00     0.161 C 
HETATM    2  N   UNL     1       5.089  28.829  52.118  1.00  0.00    -0.333 N 
HETATM    3  C   UNL     1       4.044  29.705  52.354  1.00  0.00     0.278 C 
HETATM    4  O   UNL     1       3.329  30.252  51.534  1.00  0.00    -0.265 OA
HETATM    5  C   UNL     1       3.884  29.833  53.812  1.00  0.00     0.146 C 
HETATM    6  C   UNL     1       4.864  29.119  54.377  1.00  0.00     0.059 C 
ENDROOT
BRANCH   6   7
HETATM    7  C   UNL     1       4.878  28.821  55.821  1.00  0.00     0.193 C 
HETATM    8  O   UNL     1       4.374  27.786  56.244  1.00  0.00    -0.287 OA
BRANCH   7   9
HETATM    9  C   UNL     1       5.619  29.706  56.752  1.00  0.00     0.015 A 
HETATM   10  C   UNL     1       6.988  29.465  56.924  1.00  0.00     0.025 A 
HETATM   11  C   UNL     1       7.751  30.255  57.795  1.00  0.00    -0.028 A 
HETATM   12  C   UNL     1       9.219  29.965  57.968  1.00  0.00     0.051 C 
HETATM   13  C   UNL     1       7.137  31.305  58.496  1.00  0.00     0.074 A 
HETATM   14  C   UNL     1       5.766  31.534  58.337  1.00  0.00     0.038 A 
HETATM   15  C   UNL     1       5.005  30.731  57.476  1.00  0.00     0.018 A 
BRANCH  13  16
HETATM   16  O   UNL     1       7.969  32.028  59.304  1.00  0.00    -0.350 OA
BRANCH  16  17
HETATM   17  C   UNL     1       7.496  32.441  60.584  1.00  0.00     0.179 C 
BRANCH  17  18
HETATM   18  C   UNL     1       8.323  31.748  61.679  1.00  0.00     0.002 C 
HETATM   19  C   UNL     1       9.819  31.807  61.362  1.00  0.00     0.011 C 
HETATM   20  C   UNL     1       8.059  32.363  63.055  1.00  0.00     0.011 C 
ENDBRANCH  17  18
ENDBRANCH  16  17
ENDBRANCH  13  16
ENDBRANCH   7   9
ENDBRANCH   6   7
BRANCH   1  21
HETATM   21  C   UNL     1       6.074  27.042  53.554  1.00  0.00    -0.028 A 
HETATM   22  C   UNL     1       5.223  26.046  53.043  1.00  0.00     0.012 A 
HETATM   23  C   UNL     1       5.497  24.698  53.272  1.00  0.00     0.040 A 
HETATM   24  C   UNL     1       6.597  24.345  54.043  1.00  0.00     0.099 A 
HETATM   25  C   UNL     1       7.434  25.310  54.603  1.00  0.00     0.102 A 
HETATM   26  C   UNL     1       7.188  26.655  54.329  1.00  0.00     0.049 A 
BRANCH  24  27
HETATM   27  O   UNL     1       6.827  23.016  54.265  1.00  0.00    -0.358 OA
HETATM   28  H   UNL     1       7.636  22.802  53.761  1.00  0.00     0.218 HD
ENDBRANCH  24  27
BRANCH  25  29
HETATM   29  O   UNL     1       8.450  24.830  55.389  1.00  0.00    -0.349 OA
BRANCH  29  30
HETATM   30  C   UNL     1       8.133  24.627  56.769  1.00  0.00     0.171 C 
HETATM   31  C   UNL     1       8.203  25.966  57.481  1.00  0.00     0.034 C 
ENDBRANCH  29  30
ENDBRANCH  25  29
ENDBRANCH   1  21
BRANCH   5  32
HETATM   32  O   UNL     1       2.873  30.528  54.399  1.00  0.00    -0.355 OA
HETATM   33  H   UNL     1       2.107  29.927  54.466  1.00  0.00     0.218 HD
ENDBRANCH   5  32
BRANCH   2  34
HETATM   34  C   UNL     1       5.671  28.644  50.796  1.00  0.00     0.129 C 
BRANCH  34  35
HETATM   35  C   UNL     1       5.071  27.488  49.992  1.00  0.00     0.048 C 
BRANCH  35  36
HETATM   36  C   UNL     1       4.864  27.708  48.491  1.00  0.00     0.236 C 
BRANCH  36  37
HETATM   37  N   UNL     1       3.442  27.642  47.979  1.00  0.00    -0.067 N 
HETATM   38  H   UNL     1       3.461  28.222  47.128  1.00  0.00     0.280 HD
HETATM   39  C   UNL     1       2.990  26.274  47.482  1.00  0.00     0.261 C 
HETATM   40  C   UNL     1       1.618  26.403  46.804  1.00  0.00     0.195 C 
HETATM   41  O   UNL     1       0.656  26.990  47.689  1.00  0.00    -0.388 OA
HETATM   42  C   UNL     1       1.044  28.303  48.107  1.00  0.00     0.195 C 
HETATM   43  C   UNL     1       2.376  28.264  48.867  1.00  0.00     0.261 C 
ENDBRANCH  36  37
ENDBRANCH  35  36
ENDBRANCH  34  35
ENDBRANCH   2  34
TORSDOF 14
ENDMDL
MODEL 10
REMARK VINA RESULT:      -8.1      3.371      7.608
REMARK  14 active torsions:
REMARK  status: ('A' for Active; 'I' for Inactive)
REMARK    1  A    between atoms: C_2  and  O_3 
REMARK    2  A    between atoms: O_3  and  C_4 
REMARK    3  A    between atoms: C_5  and  O_6 
REMARK    4  A    between atoms: C_9  and  C_10 
REMARK    5  A    between atoms: N_11  and  C_12 
REMARK    6  A    between atoms: C_12  and  C_13 
REMARK    7  A    between atoms: C_13  and  C_14 
REMARK    8  A    between atoms: C_14  and  N_15 
REMARK    9  A    between atoms: C_24  and  O_25 
REMARK   10  A    between atoms: C_26  and  C_27 
REMARK   11  A    between atoms: C_27  and  C_28 
REMARK   12  A    between atoms: C_32  and  O_33 
REMARK   13  A    between atoms: O_33  and  C_34 
REMARK   14  A    between atoms: C_34  and  C_35 
ROOT
HETATM    1  C   UNL     1       6.164  30.385  58.064  1.00  0.00     0.161 C 
HETATM    2  N   UNL     1       7.316  29.757  57.419  1.00  0.00    -0.333 N 
HETATM    3  C   UNL     1       8.496  30.302  57.893  1.00  0.00     0.278 C 
HETATM    4  O   UNL     1       9.635  29.943  57.652  1.00  0.00    -0.265 OA
HETATM    5  C   UNL     1       8.152  31.468  58.723  1.00  0.00     0.146 C 
HETATM    6  C   UNL     1       6.817  31.525  58.783  1.00  0.00     0.059 C 
ENDROOT
BRANCH   6   7
HETATM    7  C   UNL     1       6.111  32.699  59.328  1.00  0.00     0.193 C 
HETATM    8  O   UNL     1       5.727  33.593  58.580  1.00  0.00    -0.287 OA
BRANCH   7   9
HETATM    9  C   UNL     1       5.743  32.741  60.764  1.00  0.00     0.015 A 
HETATM   10  C   UNL     1       6.775  32.926  61.692  1.00  0.00     0.025 A 
HETATM   11  C   UNL     1       6.506  32.967  63.066  1.00  0.00    -0.028 A 
HETATM   12  C   UNL     1       7.637  33.155  64.041  1.00  0.00     0.051 C 
HETATM   13  C   UNL     1       5.182  32.831  63.517  1.00  0.00     0.074 A 
HETATM   14  C   UNL     1       4.153  32.630  62.590  1.00  0.00     0.038 A 
HETATM   15  C   UNL     1       4.432  32.574  61.218  1.00  0.00     0.018 A 
BRANCH  13  16
HETATM   16  O   UNL     1       5.020  32.904  64.872  1.00  0.00    -0.350 OA
BRANCH  16  17
HETATM   17  C   UNL     1       4.147  33.896  65.407  1.00  0.00     0.179 C 
BRANCH  17  18
HETATM   18  C   UNL     1       4.934  35.196  65.636  1.00  0.00     0.002 C 
HETATM   19  C   UNL     1       4.511  36.280  64.641  1.00  0.00     0.011 C 
HETATM   20  C   UNL     1       4.765  35.711  67.067  1.00  0.00     0.011 C 
ENDBRANCH  17  18
ENDBRANCH  16  17
ENDBRANCH  13  16
ENDBRANCH   7   9
ENDBRANCH   6   7
BRANCH   1  21
HETATM   21  C   UNL     1       5.060  30.775  57.108  1.00  0.00    -0.028 A 
HETATM   22  C   UNL     1       3.725  30.385  57.314  1.00  0.00     0.012 A 
HETATM   23  C   UNL     1       2.739  30.727  56.390  1.00  0.00     0.040 A 
HETATM   24  C   UNL     1       3.090  31.426  55.241  1.00  0.00     0.099 A 
HETATM   25  C   UNL     1       4.413  31.788  54.985  1.00  0.00     0.102 A 
HETATM   26  C   UNL     1       5.389  31.489  55.936  1.00  0.00     0.049 A 
BRANCH  24  27
HETATM   27  O   UNL     1       2.104  31.730  54.346  1.00  0.00    -0.358 OA
HETATM   28  H   UNL     1       1.891  32.672  54.499  1.00  0.00     0.218 HD
ENDBRANCH  24  27
BRANCH  25  29
HETATM   29  O   UNL     1       4.634  32.423  53.791  1.00  0.00    -0.349 OA
BRANCH  29  30
HETATM   30  C   UNL     1       4.910  33.825  53.867  1.00  0.00     0.171 C 
HETATM   31  C   UNL     1       5.487  34.275  52.538  1.00  0.00     0.034 C 
ENDBRANCH  29  30
ENDBRANCH  25  29
ENDBRANCH   1  21
BRANCH   5  32
HETATM   32  O   UNL     1       9.077  32.311  59.256  1.00  0.00    -0.355 OA
HETATM   33  H   UNL     1       9.230  33.025  58.606  1.00  0.00     0.218 HD
ENDBRANCH   5  32
BRANCH   2  34
HETATM   34  C   UNL     1       7.265  28.463  56.753  1.00  0.00     0.129 C 
BRANCH  34  35
HETATM   35  C   UNL     1       6.255  27.479  57.348  1.00  0.00     0.048 C 
BRANCH  35  36
HETATM   36  C   UNL     1       5.107  27.016  56.445  1.00  0.00     0.236 C 
BRANCH  36  37
HETATM   37  N   UNL     1       5.394  25.863  55.509  1.00  0.00    -0.067 N 
HETATM   38  H   UNL     1       4.619  25.208  55.682  1.00  0.00     0.280 HD
HETATM   39  C   UNL     1       5.282  26.185  54.023  1.00  0.00     0.261 C 
HETATM   40  C   UNL     1       5.389  24.887  53.210  1.00  0.00     0.195 C 
HETATM   41  O   UNL     1       6.602  24.186  53.509  1.00  0.00    -0.388 OA
HETATM   42  C   UNL     1       6.683  23.823  54.892  1.00  0.00     0.195 C 
HETATM   43  C   UNL     1       6.662  25.068  55.786  1.00  0.00     0.261 C 
ENDBRANCH  36  37
ENDBRANCH  35  36
ENDBRANCH  34  35
ENDBRANCH   2  34
TORSDOF 14
ENDMDL
