MODEL 1
REMARK VINA RESULT:      -8.4      0.000      0.000
REMARK  5 active torsions:
REMARK  status: ('A' for Active; 'I' for Inactive)
REMARK    1  A    between atoms: C_2  and  C_3 
REMARK       I    between atoms: C_3  and  N_4 
REMARK    2  A    between atoms: N_4  and  C_5 
REMARK    3  A    between atoms: C_5  and  C_6 
REMARK    4  A    between atoms: C_5  and  C_17 
REMARK    5  A    between atoms: C_7  and  O_8 
ROOT
HETATM    1  C   UNL     1       6.638  27.068  55.428  1.00  0.00     0.154 C 
ENDROOT
BRANCH   1   2
HETATM    2  N   UNL     1       7.827  27.867  55.687  1.00  0.00    -0.348 N 
HETATM    3  C   UNL     1       8.370  27.942  56.947  1.00  0.00     0.218 C 
HETATM    4  O   UNL     1       7.881  27.363  57.916  1.00  0.00    -0.274 OA
HETATM    5  H   UNL     1       8.442  28.038  54.907  1.00  0.00     0.163 HD
BRANCH   3   6
HETATM    6  C   UNL     1       9.668  28.717  57.049  1.00  0.00     0.098 C 
HETATM    7  C   UNL     1       9.933  29.631  55.863  1.00  0.00     0.014 C 
ENDBRANCH   3   6
ENDBRANCH   1   2
BRANCH   1   8
HETATM    8  C   UNL     1       7.048  25.761  54.762  1.00  0.00     0.005 A 
HETATM    9  C   UNL     1       7.080  24.547  55.479  1.00  0.00     0.103 A 
HETATM   10  C   UNL     1       7.444  23.321  54.895  1.00  0.00     0.100 A 
HETATM   11  C   UNL     1       7.816  23.338  53.534  1.00  0.00    -0.004 A 
HETATM   12  N   UNL     1       7.456  22.167  55.604  1.00  0.00    -0.257 NA
HETATM   13  C   UNL     1       7.817  24.539  52.808  1.00  0.00     0.014 A 
HETATM   14  C   UNL     1       8.188  22.132  52.924  1.00  0.00     0.015 A 
HETATM   15  C   UNL     1       7.443  25.736  53.416  1.00  0.00     0.013 A 
HETATM   16  C   UNL     1       8.188  20.954  53.659  1.00  0.00     0.020 A 
HETATM   17  C   UNL     1       7.817  21.023  54.985  1.00  0.00     0.117 A 
BRANCH   9  18
HETATM   18  O   UNL     1       6.730  24.543  56.814  1.00  0.00    -0.358 OA
HETATM   19  H   UNL     1       7.440  24.086  57.318  1.00  0.00     0.218 HD
ENDBRANCH   9  18
ENDBRANCH   1   8
BRANCH   1  20
HETATM   20  C   UNL     1       5.552  27.833  54.669  1.00  0.00    -0.031 A 
HETATM   21  C   UNL     1       5.410  29.211  54.917  1.00  0.00     0.009 A 
HETATM   22  C   UNL     1       4.436  29.966  54.261  1.00  0.00     0.001 A 
HETATM   23  C   UNL     1       3.581  29.354  53.350  1.00  0.00     0.000 A 
HETATM   24  C   UNL     1       3.700  27.990  53.095  1.00  0.00     0.001 A 
HETATM   25  C   UNL     1       4.678  27.233  53.747  1.00  0.00     0.009 A 
ENDBRANCH   1  20
TORSDOF 5
ENDMDL
MODEL 2
REMARK VINA RESULT:      -8.4      0.928      1.151
REMARK  5 active torsions:
REMARK  status: ('A' for Active; 'I' for Inactive)
REMARK    1  A    between atoms: C_2  and  C_3 
REMARK       I    between atoms: C_3  and  N_4 
REMARK    2  A    between atoms: N_4  and  C_5 
REMARK    3  A    between atoms: C_5  and  C_6 
REMARK    4  A    between atoms: C_5  and  C_17 
REMARK    5  A    between atoms: C_7  and  O_8 
ROOT
HETATM    1  C   UNL     1       6.480  26.771  54.823  1.00  0.00     0.154 C 
ENDROOT
BRANCH   1   2
HETATM    2  N   UNL     1       7.639  27.489  55.333  1.00  0.00    -0.348 N 
HETATM    3  C   UNL     1       7.774  27.753  56.675  1.00  0.00     0.218 C 
HETATM    4  O   UNL     1       6.931  27.420  57.505  1.00  0.00    -0.274 OA
HETATM    5  H   UNL     1       8.482  27.448  54.782  1.00  0.00     0.163 HD
BRANCH   3   6
HETATM    6  C   UNL     1       9.080  28.406  57.078  1.00  0.00     0.098 C 
HETATM    7  C   UNL     1       9.581  29.444  56.086  1.00  0.00     0.014 C 
ENDBRANCH   3   6
ENDBRANCH   1   2
BRANCH   1   8
HETATM    8  C   UNL     1       6.916  25.392  54.343  1.00  0.00     0.005 A 
HETATM    9  C   UNL     1       7.026  24.304  55.234  1.00  0.00     0.103 A 
HETATM   10  C   UNL     1       7.416  23.016  54.826  1.00  0.00     0.100 A 
HETATM   11  C   UNL     1       7.732  22.838  53.462  1.00  0.00    -0.004 A 
HETATM   12  N   UNL     1       7.504  21.985  55.699  1.00  0.00    -0.257 NA
HETATM   13  C   UNL     1       7.655  23.913  52.563  1.00  0.00     0.014 A 
HETATM   14  C   UNL     1       8.128  21.566  53.024  1.00  0.00     0.015 A 
HETATM   15  C   UNL     1       7.258  25.176  53.000  1.00  0.00     0.013 A 
HETATM   16  C   UNL     1       8.206  20.515  53.928  1.00  0.00     0.020 A 
HETATM   17  C   UNL     1       7.886  20.773  55.244  1.00  0.00     0.117 A 
BRANCH   9  18
HETATM   18  O   UNL     1       6.730  24.492  56.568  1.00  0.00    -0.358 OA
HETATM   19  H   UNL     1       7.555  24.756  57.033  1.00  0.00     0.218 HD
ENDBRANCH   9  18
ENDBRANCH   1   8
BRANCH   1  20
HETATM   20  C   UNL     1       5.691  27.565  53.780  1.00  0.00    -0.031 A 
HETATM   21  C   UNL     1       4.285  27.544  53.849  1.00  0.00     0.009 A 
HETATM   22  C   UNL     1       3.506  28.243  52.925  1.00  0.00     0.001 A 
HETATM   23  C   UNL     1       4.120  28.970  51.910  1.00  0.00     0.000 A 
HETATM   24  C   UNL     1       5.509  28.998  51.819  1.00  0.00     0.001 A 
HETATM   25  C   UNL     1       6.291  28.303  52.746  1.00  0.00     0.009 A 
ENDBRANCH   1  20
TORSDOF 5
ENDMDL
MODEL 3
REMARK VINA RESULT:      -8.2      2.345      6.650
REMARK  5 active torsions:
REMARK  status: ('A' for Active; 'I' for Inactive)
REMARK    1  A    between atoms: C_2  and  C_3 
REMARK       I    between atoms: C_3  and  N_4 
REMARK    2  A    between atoms: N_4  and  C_5 
REMARK    3  A    between atoms: C_5  and  C_6 
REMARK    4  A    between atoms: C_5  and  C_17 
REMARK    5  A    between atoms: C_7  and  O_8 
ROOT
HETATM    1  C   UNL     1       6.488  24.622  54.555  1.00  0.00     0.154 C 
ENDROOT
BRANCH   1   2
HETATM    2  N   UNL     1       6.484  25.117  53.186  1.00  0.00    -0.348 N 
HETATM    3  C   UNL     1       5.328  25.138  52.444  1.00  0.00     0.218 C 
HETATM    4  O   UNL     1       4.253  24.730  52.879  1.00  0.00    -0.274 OA
HETATM    5  H   UNL     1       7.208  25.771  52.933  1.00  0.00     0.163 HD
BRANCH   3   6
HETATM    6  C   UNL     1       5.447  25.781  51.077  1.00  0.00     0.098 C 
HETATM    7  C   UNL     1       4.973  27.225  51.034  1.00  0.00     0.014 C 
ENDBRANCH   3   6
ENDBRANCH   1   2
BRANCH   1   8
HETATM    8  C   UNL     1       6.845  25.764  55.499  1.00  0.00     0.005 A 
HETATM    9  C   UNL     1       6.014  26.896  55.631  1.00  0.00     0.103 A 
HETATM   10  C   UNL     1       6.307  27.964  56.498  1.00  0.00     0.100 A 
HETATM   11  C   UNL     1       7.505  27.887  57.239  1.00  0.00    -0.004 A 
HETATM   12  N   UNL     1       5.487  29.036  56.615  1.00  0.00    -0.257 NA
HETATM   13  C   UNL     1       8.360  26.782  57.103  1.00  0.00     0.014 A 
HETATM   14  C   UNL     1       7.827  28.937  58.110  1.00  0.00     0.015 A 
HETATM   15  C   UNL     1       8.036  25.736  56.239  1.00  0.00     0.013 A 
HETATM   16  C   UNL     1       6.974  30.027  58.227  1.00  0.00     0.020 A 
HETATM   17  C   UNL     1       5.825  30.028  57.464  1.00  0.00     0.117 A 
BRANCH   9  18
HETATM   18  O   UNL     1       4.852  26.971  54.891  1.00  0.00    -0.358 OA
HETATM   19  H   UNL     1       4.117  27.217  55.496  1.00  0.00     0.218 HD
ENDBRANCH   9  18
ENDBRANCH   1   8
BRANCH   1  20
HETATM   20  C   UNL     1       7.354  23.375  54.743  1.00  0.00    -0.031 A 
HETATM   21  C   UNL     1       8.209  22.993  53.691  1.00  0.00     0.009 A 
HETATM   22  C   UNL     1       9.020  21.862  53.796  1.00  0.00     0.001 A 
HETATM   23  C   UNL     1       8.987  21.089  54.952  1.00  0.00     0.000 A 
HETATM   24  C   UNL     1       8.144  21.445  56.001  1.00  0.00     0.001 A 
HETATM   25  C   UNL     1       7.333  22.580  55.900  1.00  0.00     0.009 A 
ENDBRANCH   1  20
TORSDOF 5
ENDMDL
MODEL 4
REMARK VINA RESULT:      -8.1      2.485      6.428
REMARK  5 active torsions:
REMARK  status: ('A' for Active; 'I' for Inactive)
REMARK    1  A    between atoms: C_2  and  C_3 
REMARK       I    between atoms: C_3  and  N_4 
REMARK    2  A    between atoms: N_4  and  C_5 
REMARK    3  A    between atoms: C_5  and  C_6 
REMARK    4  A    between atoms: C_5  and  C_17 
REMARK    5  A    between atoms: C_7  and  O_8 
ROOT
HETATM    1  C   UNL     1       6.267  27.158  54.136  1.00  0.00     0.154 C 
ENDROOT
BRANCH   1   2
HETATM    2  N   UNL     1       6.252  28.047  52.983  1.00  0.00    -0.348 N 
HETATM    3  C   UNL     1       5.067  28.465  52.427  1.00  0.00     0.218 C 
HETATM    4  O   UNL     1       3.971  28.104  52.851  1.00  0.00    -0.274 OA
HETATM    5  H   UNL     1       7.060  28.635  52.848  1.00  0.00     0.163 HD
BRANCH   3   6
HETATM    6  C   UNL     1       5.198  29.476  51.306  1.00  0.00     0.098 C 
HETATM    7  C   UNL     1       5.296  28.852  49.923  1.00  0.00     0.014 C 
ENDBRANCH   3   6
ENDBRANCH   1   2
BRANCH   1   8
HETATM    8  C   UNL     1       6.922  27.873  55.311  1.00  0.00     0.005 A 
HETATM    9  C   UNL     1       8.144  28.561  55.165  1.00  0.00     0.103 A 
HETATM   10  C   UNL     1       8.772  29.239  56.225  1.00  0.00     0.100 A 
HETATM   11  C   UNL     1       8.144  29.192  57.487  1.00  0.00    -0.004 A 
HETATM   12  N   UNL     1       9.941  29.903  56.056  1.00  0.00    -0.257 NA
HETATM   13  C   UNL     1       6.940  28.490  57.661  1.00  0.00     0.014 A 
HETATM   14  C   UNL     1       8.747  29.856  58.564  1.00  0.00     0.015 A 
HETATM   15  C   UNL     1       6.340  27.834  56.587  1.00  0.00     0.013 A 
HETATM   16  C   UNL     1       9.941  30.539  58.377  1.00  0.00     0.020 A 
HETATM   17  C   UNL     1      10.494  30.533  57.114  1.00  0.00     0.117 A 
BRANCH   9  18
HETATM   18  O   UNL     1       8.760  28.589  53.931  1.00  0.00    -0.358 OA
HETATM   19  H   UNL     1       9.448  27.887  53.913  1.00  0.00     0.218 HD
ENDBRANCH   9  18
ENDBRANCH   1   8
BRANCH   1  20
HETATM   20  C   UNL     1       6.877  25.788  53.831  1.00  0.00    -0.031 A 
HETATM   21  C   UNL     1       7.479  25.591  52.573  1.00  0.00     0.009 A 
HETATM   22  C   UNL     1       8.048  24.364  52.230  1.00  0.00     0.001 A 
HETATM   23  C   UNL     1       8.020  23.309  53.136  1.00  0.00     0.000 A 
HETATM   24  C   UNL     1       7.424  23.480  54.382  1.00  0.00     0.001 A 
HETATM   25  C   UNL     1       6.857  24.710  54.730  1.00  0.00     0.009 A 
ENDBRANCH   1  20
TORSDOF 5
ENDMDL
MODEL 5
REMARK VINA RESULT:      -8.0      2.626      5.976
REMARK  5 active torsions:
REMARK  status: ('A' for Active; 'I' for Inactive)
REMARK    1  A    between atoms: C_2  and  C_3 
REMARK       I    between atoms: C_3  and  N_4 
REMARK    2  A    between atoms: N_4  and  C_5 
REMARK    3  A    between atoms: C_5  and  C_6 
REMARK    4  A    between atoms: C_5  and  C_17 
REMARK    5  A    between atoms: C_7  and  O_8 
ROOT
HETATM    1  C   UNL     1       7.170  25.945  54.112  1.00  0.00     0.154 C 
ENDROOT
BRANCH   1   2
HETATM    2  N   UNL     1       6.463  26.400  55.301  1.00  0.00    -0.348 N 
HETATM    3  C   UNL     1       7.019  27.334  56.141  1.00  0.00     0.218 C 
HETATM    4  O   UNL     1       8.133  27.819  55.950  1.00  0.00    -0.274 OA
HETATM    5  H   UNL     1       5.458  26.323  55.293  1.00  0.00     0.163 HD
BRANCH   3   6
HETATM    6  C   UNL     1       6.128  27.797  57.276  1.00  0.00     0.098 C 
HETATM    7  C   UNL     1       5.002  28.720  56.836  1.00  0.00     0.014 C 
ENDBRANCH   3   6
ENDBRANCH   1   2
BRANCH   1   8
HETATM    8  C   UNL     1       6.412  26.407  52.873  1.00  0.00     0.005 A 
HETATM    9  C   UNL     1       6.387  27.764  52.490  1.00  0.00     0.103 A 
HETATM   10  C   UNL     1       5.708  28.225  51.348  1.00  0.00     0.100 A 
HETATM   11  C   UNL     1       5.005  27.270  50.583  1.00  0.00    -0.004 A 
HETATM   12  N   UNL     1       5.708  29.533  50.995  1.00  0.00    -0.257 NA
HETATM   13  C   UNL     1       4.995  25.918  50.961  1.00  0.00     0.014 A 
HETATM   14  C   UNL     1       4.314  27.699  49.441  1.00  0.00     0.015 A 
HETATM   15  C   UNL     1       5.685  25.494  52.095  1.00  0.00     0.013 A 
HETATM   16  C   UNL     1       4.329  29.041  49.085  1.00  0.00     0.020 A 
HETATM   17  C   UNL     1       5.035  29.912  49.888  1.00  0.00     0.117 A 
BRANCH   9  18
HETATM   18  O   UNL     1       7.064  28.693  53.251  1.00  0.00    -0.358 OA
HETATM   19  H   UNL     1       7.318  28.270  54.102  1.00  0.00     0.218 HD
ENDBRANCH   9  18
ENDBRANCH   1   8
BRANCH   1  20
HETATM   20  C   UNL     1       7.470  24.445  54.126  1.00  0.00    -0.031 A 
HETATM   21  C   UNL     1       7.181  23.719  55.297  1.00  0.00     0.009 A 
HETATM   22  C   UNL     1       7.437  22.349  55.378  1.00  0.00     0.001 A 
HETATM   23  C   UNL     1       7.993  21.682  54.291  1.00  0.00     0.000 A 
HETATM   24  C   UNL     1       8.293  22.382  53.126  1.00  0.00     0.001 A 
HETATM   25  C   UNL     1       8.033  23.753  53.041  1.00  0.00     0.009 A 
ENDBRANCH   1  20
TORSDOF 5
ENDMDL
MODEL 6
REMARK VINA RESULT:      -8.0      3.013      4.122
REMARK  5 active torsions:
REMARK  status: ('A' for Active; 'I' for Inactive)
REMARK    1  A    between atoms: C_2  and  C_3 
REMARK       I    between atoms: C_3  and  N_4 
REMARK    2  A    between atoms: N_4  and  C_5 
REMARK    3  A    between atoms: C_5  and  C_6 
REMARK    4  A    between atoms: C_5  and  C_17 
REMARK    5  A    between atoms: C_7  and  O_8 
ROOT
HETATM    1  C   UNL     1       4.939  26.826  52.067  1.00  0.00     0.154 C 
ENDROOT
BRANCH   1   2
HETATM    2  N   UNL     1       5.106  28.012  52.896  1.00  0.00    -0.348 N 
HETATM    3  C   UNL     1       4.023  28.762  53.286  1.00  0.00     0.218 C 
HETATM    4  O   UNL     1       2.872  28.490  52.948  1.00  0.00    -0.274 OA
HETATM    5  H   UNL     1       5.930  28.053  53.475  1.00  0.00     0.163 HD
BRANCH   3   6
HETATM    6  C   UNL     1       4.331  29.900  54.237  1.00  0.00     0.098 C 
HETATM    7  C   UNL     1       5.155  29.486  55.445  1.00  0.00     0.014 C 
ENDBRANCH   3   6
ENDBRANCH   1   2
BRANCH   1   8
HETATM    8  C   UNL     1       5.941  25.764  52.506  1.00  0.00     0.005 A 
HETATM    9  C   UNL     1       5.891  25.194  53.795  1.00  0.00     0.103 A 
HETATM   10  C   UNL     1       6.792  24.206  54.230  1.00  0.00     0.100 A 
HETATM   11  C   UNL     1       7.797  23.803  53.326  1.00  0.00    -0.004 A 
HETATM   12  N   UNL     1       6.716  23.666  55.470  1.00  0.00    -0.257 NA
HETATM   13  C   UNL     1       7.881  24.377  52.048  1.00  0.00     0.014 A 
HETATM   14  C   UNL     1       8.713  22.822  53.732  1.00  0.00     0.015 A 
HETATM   15  C   UNL     1       6.967  25.349  51.645  1.00  0.00     0.013 A 
HETATM   16  C   UNL     1       8.620  22.270  55.003  1.00  0.00     0.020 A 
HETATM   17  C   UNL     1       7.612  22.722  55.828  1.00  0.00     0.117 A 
BRANCH   9  18
HETATM   18  O   UNL     1       4.914  25.605  54.678  1.00  0.00    -0.358 OA
HETATM   19  H   UNL     1       4.874  26.587  54.660  1.00  0.00     0.218 HD
ENDBRANCH   9  18
ENDBRANCH   1   8
BRANCH   1  20
HETATM   20  C   UNL     1       4.979  27.129  50.568  1.00  0.00    -0.031 A 
HETATM   21  C   UNL     1       4.437  26.178  49.682  1.00  0.00     0.009 A 
HETATM   22  C   UNL     1       4.446  26.391  48.303  1.00  0.00     0.001 A 
HETATM   23  C   UNL     1       5.004  27.555  47.784  1.00  0.00     0.000 A 
HETATM   24  C   UNL     1       5.551  28.504  48.642  1.00  0.00     0.001 A 
HETATM   25  C   UNL     1       5.539  28.296  50.024  1.00  0.00     0.009 A 
ENDBRANCH   1  20
TORSDOF 5
ENDMDL
MODEL 7
REMARK VINA RESULT:      -7.9      1.948      4.181
REMARK  5 active torsions:
REMARK  status: ('A' for Active; 'I' for Inactive)
REMARK    1  A    between atoms: C_2  and  C_3 
REMARK       I    between atoms: C_3  and  N_4 
REMARK    2  A    between atoms: N_4  and  C_5 
REMARK    3  A    between atoms: C_5  and  C_6 
REMARK    4  A    between atoms: C_5  and  C_17 
REMARK    5  A    between atoms: C_7  and  O_8 
ROOT
HETATM    1  C   UNL     1       7.142  27.460  54.930  1.00  0.00     0.154 C 
ENDROOT
BRANCH   1   2
HETATM    2  N   UNL     1       5.734  27.738  54.682  1.00  0.00    -0.348 N 
HETATM    3  C   UNL     1       5.309  28.210  53.464  1.00  0.00     0.218 C 
HETATM    4  O   UNL     1       6.081  28.438  52.535  1.00  0.00    -0.274 OA
HETATM    5  H   UNL     1       5.063  27.239  55.245  1.00  0.00     0.163 HD
BRANCH   3   6
HETATM    6  C   UNL     1       3.808  28.348  53.310  1.00  0.00     0.098 C 
HETATM    7  C   UNL     1       3.372  29.668  52.693  1.00  0.00     0.014 C 
ENDBRANCH   3   6
ENDBRANCH   1   2
BRANCH   1   8
HETATM    8  C   UNL     1       7.337  25.955  55.072  1.00  0.00     0.005 A 
HETATM    9  C   UNL     1       7.465  25.120  53.943  1.00  0.00     0.103 A 
HETATM   10  C   UNL     1       7.656  23.730  54.036  1.00  0.00     0.100 A 
HETATM   11  C   UNL     1       7.691  23.166  55.329  1.00  0.00    -0.004 A 
HETATM   12  N   UNL     1       7.786  22.950  52.936  1.00  0.00    -0.257 NA
HETATM   13  C   UNL     1       7.539  23.976  56.466  1.00  0.00     0.014 A 
HETATM   14  C   UNL     1       7.876  21.783  55.455  1.00  0.00     0.015 A 
HETATM   15  C   UNL     1       7.359  25.352  56.338  1.00  0.00     0.013 A 
HETATM   16  C   UNL     1       8.017  20.996  54.320  1.00  0.00     0.020 A 
HETATM   17  C   UNL     1       7.966  21.622  53.093  1.00  0.00     0.117 A 
BRANCH   9  18
HETATM   18  O   UNL     1       7.414  25.677  52.682  1.00  0.00    -0.358 OA
HETATM   19  H   UNL     1       7.426  24.948  52.022  1.00  0.00     0.218 HD
ENDBRANCH   9  18
ENDBRANCH   1   8
BRANCH   1  20
HETATM   20  C   UNL     1       7.720  28.269  56.092  1.00  0.00    -0.031 A 
HETATM   21  C   UNL     1       9.070  28.664  56.023  1.00  0.00     0.009 A 
HETATM   22  C   UNL     1       9.660  29.398  57.052  1.00  0.00     0.001 A 
HETATM   23  C   UNL     1       8.912  29.747  58.173  1.00  0.00     0.000 A 
HETATM   24  C   UNL     1       7.578  29.360  58.265  1.00  0.00     0.001 A 
HETATM   25  C   UNL     1       6.983  28.628  57.233  1.00  0.00     0.009 A 
ENDBRANCH   1  20
TORSDOF 5
ENDMDL
MODEL 8
REMARK VINA RESULT:      -7.9      9.971     12.601
REMARK  5 active torsions:
REMARK  status: ('A' for Active; 'I' for Inactive)
REMARK    1  A    between atoms: C_2  and  C_3 
REMARK       I    between atoms: C_3  and  N_4 
REMARK    2  A    between atoms: N_4  and  C_5 
REMARK    3  A    between atoms: C_5  and  C_6 
REMARK    4  A    between atoms: C_5  and  C_17 
REMARK    5  A    between atoms: C_7  and  O_8 
ROOT
HETATM    1  C   UNL     1       5.139  35.595  63.646  1.00  0.00     0.154 C 
ENDROOT
BRANCH   1   2
HETATM    2  N   UNL     1       4.729  35.467  65.038  1.00  0.00    -0.348 N 
HETATM    3  C   UNL     1       3.628  34.723  65.386  1.00  0.00     0.218 C 
HETATM    4  O   UNL     1       2.926  34.147  64.556  1.00  0.00    -0.274 OA
HETATM    5  H   UNL     1       5.443  35.594  65.738  1.00  0.00     0.163 HD
BRANCH   3   6
HETATM    6  C   UNL     1       3.385  34.584  66.875  1.00  0.00     0.098 C 
HETATM    7  C   UNL     1       4.605  34.125  67.658  1.00  0.00     0.014 C 
ENDBRANCH   3   6
ENDBRANCH   1   2
BRANCH   1   8
HETATM    8  C   UNL     1       6.112  34.473  63.305  1.00  0.00     0.005 A 
HETATM    9  C   UNL     1       6.082  33.830  62.050  1.00  0.00     0.103 A 
HETATM   10  C   UNL     1       6.969  32.798  61.697  1.00  0.00     0.100 A 
HETATM   11  C   UNL     1       7.906  32.388  62.670  1.00  0.00    -0.004 A 
HETATM   12  N   UNL     1       6.927  32.203  60.481  1.00  0.00    -0.257 NA
HETATM   13  C   UNL     1       7.935  32.997  63.935  1.00  0.00     0.014 A 
HETATM   14  C   UNL     1       8.802  31.359  62.350  1.00  0.00     0.015 A 
HETATM   15  C   UNL     1       7.045  34.022  64.250  1.00  0.00     0.013 A 
HETATM   16  C   UNL     1       8.754  30.763  61.097  1.00  0.00     0.020 A 
HETATM   17  C   UNL     1       7.806  31.217  60.204  1.00  0.00     0.117 A 
BRANCH   9  18
HETATM   18  O   UNL     1       5.153  34.226  61.110  1.00  0.00    -0.358 OA
HETATM   19  H   UNL     1       4.268  34.244  61.539  1.00  0.00     0.218 HD
ENDBRANCH   9  18
ENDBRANCH   1   8
BRANCH   1  20
HETATM   20  C   UNL     1       5.661  36.990  63.299  1.00  0.00    -0.031 A 
HETATM   21  C   UNL     1       5.648  37.976  64.304  1.00  0.00     0.009 A 
HETATM   22  C   UNL     1       6.105  39.270  64.051  1.00  0.00     0.001 A 
HETATM   23  C   UNL     1       6.578  39.604  62.785  1.00  0.00     0.000 A 
HETATM   24  C   UNL     1       6.594  38.646  61.775  1.00  0.00     0.001 A 
HETATM   25  C   UNL     1       6.141  37.348  62.028  1.00  0.00     0.009 A 
ENDBRANCH   1  20
TORSDOF 5
ENDMDL
MODEL 9
REMARK VINA RESULT:      -7.8      2.379      6.882
REMARK  5 active torsions:
REMARK  status: ('A' for Active; 'I' for Inactive)
REMARK    1  A    between atoms: C_2  and  C_3 
REMARK       I    between atoms: C_3  and  N_4 
REMARK    2  A    between atoms: N_4  and  C_5 
REMARK    3  A    between atoms: C_5  and  C_6 
REMARK    4  A    between atoms: C_5  and  C_17 
REMARK    5  A    between atoms: C_7  and  O_8 
ROOT
HETATM    1  C   UNL     1       6.517  27.386  55.976  1.00  0.00     0.154 C 
ENDROOT
BRANCH   1   2
HETATM    2  N   UNL     1       5.903  28.028  54.822  1.00  0.00    -0.348 N 
HETATM    3  C   UNL     1       4.606  28.479  54.869  1.00  0.00     0.218 C 
HETATM    4  O   UNL     1       3.895  28.352  55.864  1.00  0.00    -0.274 OA
HETATM    5  H   UNL     1       6.523  28.469  54.160  1.00  0.00     0.163 HD
BRANCH   3   6
HETATM    6  C   UNL     1       4.135  29.226  53.638  1.00  0.00     0.098 C 
HETATM    7  C   UNL     1       3.989  28.350  52.404  1.00  0.00     0.014 C 
ENDBRANCH   3   6
ENDBRANCH   1   2
BRANCH   1   8
HETATM    8  C   UNL     1       7.448  28.376  56.664  1.00  0.00     0.005 A 
HETATM    9  C   UNL     1       6.967  29.297  57.618  1.00  0.00     0.103 A 
HETATM   10  C   UNL     1       7.797  30.219  58.280  1.00  0.00     0.100 A 
HETATM   11  C   UNL     1       9.166  30.220  57.936  1.00  0.00    -0.004 A 
HETATM   12  N   UNL     1       7.312  31.086  59.201  1.00  0.00    -0.257 NA
HETATM   13  C   UNL     1       9.661  29.330  56.970  1.00  0.00     0.014 A 
HETATM   14  C   UNL     1      10.019  31.129  58.577  1.00  0.00     0.015 A 
HETATM   15  C   UNL     1       8.811  28.424  56.338  1.00  0.00     0.013 A 
HETATM   16  C   UNL     1       9.511  32.007  59.525  1.00  0.00     0.020 A 
HETATM   17  C   UNL     1       8.161  31.946  59.800  1.00  0.00     0.117 A 
BRANCH   9  18
HETATM   18  O   UNL     1       5.624  29.300  57.936  1.00  0.00    -0.358 OA
HETATM   19  H   UNL     1       5.469  28.615  58.625  1.00  0.00     0.218 HD
ENDBRANCH   9  18
ENDBRANCH   1   8
BRANCH   1  20
HETATM   20  C   UNL     1       7.180  26.049  55.638  1.00  0.00    -0.031 A 
HETATM   21  C   UNL     1       7.343  25.709  54.282  1.00  0.00     0.009 A 
HETATM   22  C   UNL     1       7.935  24.503  53.906  1.00  0.00     0.001 A 
HETATM   23  C   UNL     1       8.370  23.610  54.881  1.00  0.00     0.000 A 
HETATM   24  C   UNL     1       8.213  23.924  56.228  1.00  0.00     0.001 A 
HETATM   25  C   UNL     1       7.625  25.134  56.607  1.00  0.00     0.009 A 
ENDBRANCH   1  20
TORSDOF 5
ENDMDL
MODEL 10
REMARK VINA RESULT:      -7.7      2.182      4.650
REMARK  5 active torsions:
REMARK  status: ('A' for Active; 'I' for Inactive)
REMARK    1  A    between atoms: C_2  and  C_3 
REMARK       I    between atoms: C_3  and  N_4 
REMARK    2  A    between atoms: N_4  and  C_5 
REMARK    3  A    between atoms: C_5  and  C_6 
REMARK    4  A    between atoms: C_5  and  C_17 
REMARK    5  A    between atoms: C_7  and  O_8 
ROOT
HETATM    1  C   UNL     1       7.116  28.756  55.902  1.00  0.00     0.154 C 
ENDROOT
BRANCH   1   2
HETATM    2  N   UNL     1       5.843  29.129  56.502  1.00  0.00    -0.348 N 
HETATM    3  C   UNL     1       4.814  29.617  55.734  1.00  0.00     0.218 C 
HETATM    4  O   UNL     1       4.912  29.781  54.519  1.00  0.00    -0.274 OA
HETATM    5  H   UNL     1       5.599  28.684  57.373  1.00  0.00     0.163 HD
BRANCH   3   6
HETATM    6  C   UNL     1       3.512  29.857  56.471  1.00  0.00     0.098 C 
HETATM    7  C   UNL     1       2.805  31.141  56.067  1.00  0.00     0.014 C 
ENDBRANCH   3   6
ENDBRANCH   1   2
BRANCH   1   8
HETATM    8  C   UNL     1       7.181  27.239  55.768  1.00  0.00     0.005 A 
HETATM    9  C   UNL     1       7.415  26.620  54.523  1.00  0.00     0.103 A 
HETATM   10  C   UNL     1       7.491  25.225  54.364  1.00  0.00     0.100 A 
HETATM   11  C   UNL     1       7.295  24.430  55.514  1.00  0.00    -0.004 A 
HETATM   12  N   UNL     1       7.728  24.654  53.159  1.00  0.00    -0.257 NA
HETATM   13  C   UNL     1       7.034  25.025  56.758  1.00  0.00     0.014 A 
HETATM   14  C   UNL     1       7.361  23.036  55.387  1.00  0.00     0.015 A 
HETATM   15  C   UNL     1       6.972  26.412  56.882  1.00  0.00     0.013 A 
HETATM   16  C   UNL     1       7.613  22.463  54.147  1.00  0.00     0.020 A 
HETATM   17  C   UNL     1       7.788  23.309  53.072  1.00  0.00     0.117 A 
BRANCH   9  18
HETATM   18  O   UNL     1       7.591  27.404  53.402  1.00  0.00    -0.358 OA
HETATM   19  H   UNL     1       7.853  28.305  53.693  1.00  0.00     0.218 HD
ENDBRANCH   9  18
ENDBRANCH   1   8
BRANCH   1  20
HETATM   20  C   UNL     1       8.322  29.363  56.621  1.00  0.00    -0.031 A 
HETATM   21  C   UNL     1       9.564  29.361  55.958  1.00  0.00     0.009 A 
HETATM   22  C   UNL     1      10.704  29.895  56.561  1.00  0.00     0.001 A 
HETATM   23  C   UNL     1      10.624  30.435  57.841  1.00  0.00     0.000 A 
HETATM   24  C   UNL     1       9.407  30.441  58.517  1.00  0.00     0.001 A 
HETATM   25  C   UNL     1       8.262  29.911  57.913  1.00  0.00     0.009 A 
ENDBRANCH   1  20
TORSDOF 5
ENDMDL
