MODEL 1
REMARK VINA RESULT:      -8.8      0.000      0.000
REMARK  5 active torsions:
REMARK  status: ('A' for Active; 'I' for Inactive)
REMARK    1  A    between atoms: C_7  and  C_8 
REMARK    2  A    between atoms: N_9  and  N_10 
REMARK       I    between atoms: N_10  and  C_11 
REMARK    3  A    between atoms: C_11  and  C_12 
REMARK    4  A    between atoms: C_12  and  O_13 
REMARK    5  A    between atoms: O_13  and  C_14 
ROOT
HETATM    1  C   UNL     1       7.458  25.283  54.167  1.00  0.00     0.147 C 
HETATM    2  N   UNL     1       6.315  25.891  54.299  1.00  0.00    -0.205 NA
ENDROOT
BRANCH   2   3
HETATM    3  N   UNL     1       5.358  25.444  55.167  1.00  0.00    -0.149 NA
HETATM    4  C   UNL     1       5.036  26.103  56.344  1.00  0.00     0.241 C 
HETATM    5  O   UNL     1       4.744  25.427  57.333  1.00  0.00    -0.276 OA
HETATM    6  H   UNL     1       5.480  24.459  55.393  1.00  0.00     0.158 HD
BRANCH   4   7
HETATM    7  C   UNL     1       4.968  27.626  56.321  1.00  0.00     0.273 C 
BRANCH   7   8
HETATM    8  O   UNL     1       5.643  28.194  57.438  1.00  0.00    -0.343 OA
BRANCH   8   9
HETATM    9  C   UNL     1       6.918  28.645  57.228  1.00  0.00     0.069 A 
HETATM   10  C   UNL     1       7.311  28.673  55.888  1.00  0.00     0.037 A 
HETATM   11  C   UNL     1       8.593  29.094  55.531  1.00  0.00     0.003 A 
HETATM   12  C   UNL     1       9.495  29.485  56.517  1.00  0.00     0.000 A 
HETATM   13  C   UNL     1       9.111  29.462  57.856  1.00  0.00     0.003 A 
HETATM   14  C   UNL     1       7.823  29.048  58.212  1.00  0.00     0.037 A 
ENDBRANCH   8   9
ENDBRANCH   7   8
ENDBRANCH   4   7
ENDBRANCH   2   3
BRANCH   1  15
HETATM   15  C   UNL     1       7.943  24.099  54.852  1.00  0.00     0.017 A 
HETATM   16  C   UNL     1       8.364  24.135  56.178  1.00  0.00     0.018 A 
HETATM   17  C   UNL     1       8.428  25.260  57.150  1.00  0.00     0.069 C 
HETATM   18  N   UNL     1       8.790  22.878  56.519  1.00  0.00    -0.358 N 
HETATM   19  H   UNL     1       9.159  22.608  57.422  1.00  0.00     0.166 HD
HETATM   20  C   UNL     1       8.639  22.016  55.461  1.00  0.00     0.043 A 
HETATM   21  C   UNL     1       8.076  22.742  54.409  1.00  0.00     0.004 A 
HETATM   22  C   UNL     1       8.951  20.654  55.370  1.00  0.00     0.030 A 
HETATM   23  C   UNL     1       7.770  22.044  53.221  1.00  0.00     0.014 A 
HETATM   24  C   UNL     1       8.079  20.683  53.111  1.00  0.00     0.001 A 
HETATM   25  C   UNL     1       8.667  20.001  54.169  1.00  0.00     0.002 A 
ENDBRANCH   1  15
TORSDOF 5
ENDMDL
MODEL 2
REMARK VINA RESULT:      -8.7      2.774      4.077
REMARK  5 active torsions:
REMARK  status: ('A' for Active; 'I' for Inactive)
REMARK    1  A    between atoms: C_7  and  C_8 
REMARK    2  A    between atoms: N_9  and  N_10 
REMARK       I    between atoms: N_10  and  C_11 
REMARK    3  A    between atoms: C_11  and  C_12 
REMARK    4  A    between atoms: C_12  and  O_13 
REMARK    5  A    between atoms: O_13  and  C_14 
ROOT
HETATM    1  C   UNL     1       7.151  25.583  57.542  1.00  0.00     0.147 C 
HETATM    2  N   UNL     1       7.846  26.558  58.052  1.00  0.00    -0.205 NA
ENDROOT
BRANCH   2   3
HETATM    3  N   UNL     1       8.586  27.400  57.269  1.00  0.00    -0.149 NA
HETATM    4  C   UNL     1       8.245  28.725  57.046  1.00  0.00     0.241 C 
HETATM    5  O   UNL     1       8.464  29.208  55.933  1.00  0.00    -0.276 OA
HETATM    6  H   UNL     1       8.804  26.985  56.364  1.00  0.00     0.158 HD
BRANCH   4   7
HETATM    7  C   UNL     1       7.704  29.536  58.219  1.00  0.00     0.273 C 
BRANCH   7   8
HETATM    8  O   UNL     1       8.693  29.714  59.228  1.00  0.00    -0.343 OA
BRANCH   8   9
HETATM    9  C   UNL     1       8.433  30.650  60.192  1.00  0.00     0.069 A 
HETATM   10  C   UNL     1       7.360  31.497  59.905  1.00  0.00     0.037 A 
HETATM   11  C   UNL     1       6.996  32.510  60.793  1.00  0.00     0.003 A 
HETATM   12  C   UNL     1       7.710  32.687  61.975  1.00  0.00     0.000 A 
HETATM   13  C   UNL     1       8.781  31.845  62.270  1.00  0.00     0.003 A 
HETATM   14  C   UNL     1       9.139  30.825  61.384  1.00  0.00     0.037 A 
ENDBRANCH   8   9
ENDBRANCH   7   8
ENDBRANCH   4   7
ENDBRANCH   2   3
BRANCH   1  15
HETATM   15  C   UNL     1       7.007  25.199  56.150  1.00  0.00     0.017 A 
HETATM   16  C   UNL     1       6.151  25.872  55.283  1.00  0.00     0.018 A 
HETATM   17  C   UNL     1       5.251  27.034  55.512  1.00  0.00     0.069 C 
HETATM   18  N   UNL     1       6.217  25.254  54.062  1.00  0.00    -0.358 N 
HETATM   19  H   UNL     1       5.693  25.523  53.239  1.00  0.00     0.166 HD
HETATM   20  C   UNL     1       7.106  24.209  54.099  1.00  0.00     0.043 A 
HETATM   21  C   UNL     1       7.649  24.168  55.386  1.00  0.00     0.004 A 
HETATM   22  C   UNL     1       7.472  23.313  53.086  1.00  0.00     0.030 A 
HETATM   23  C   UNL     1       8.644  23.203  55.648  1.00  0.00     0.014 A 
HETATM   24  C   UNL     1       9.019  22.297  54.649  1.00  0.00     0.001 A 
HETATM   25  C   UNL     1       8.435  22.349  53.388  1.00  0.00     0.002 A 
ENDBRANCH   1  15
TORSDOF 5
ENDMDL
MODEL 3
REMARK VINA RESULT:      -8.6      2.885      8.189
REMARK  5 active torsions:
REMARK  status: ('A' for Active; 'I' for Inactive)
REMARK    1  A    between atoms: C_7  and  C_8 
REMARK    2  A    between atoms: N_9  and  N_10 
REMARK       I    between atoms: N_10  and  C_11 
REMARK    3  A    between atoms: C_11  and  C_12 
REMARK    4  A    between atoms: C_12  and  O_13 
REMARK    5  A    between atoms: O_13  and  C_14 
ROOT
HETATM    1  C   UNL     1       8.901  29.034  57.503  1.00  0.00     0.147 C 
HETATM    2  N   UNL     1       8.792  27.748  57.341  1.00  0.00    -0.205 NA
ENDROOT
BRANCH   2   3
HETATM    3  N   UNL     1       7.795  27.029  57.941  1.00  0.00    -0.149 NA
HETATM    4  C   UNL     1       7.397  25.775  57.504  1.00  0.00     0.241 C 
HETATM    5  O   UNL     1       6.201  25.484  57.569  1.00  0.00    -0.276 OA
HETATM    6  H   UNL     1       6.953  27.586  58.077  1.00  0.00     0.158 HD
BRANCH   4   7
HETATM    7  C   UNL     1       8.475  24.793  57.057  1.00  0.00     0.273 C 
BRANCH   7   8
HETATM    8  O   UNL     1       7.946  23.484  56.883  1.00  0.00    -0.343 OA
BRANCH   8   9
HETATM    9  C   UNL     1       7.951  22.977  55.612  1.00  0.00     0.069 A 
HETATM   10  C   UNL     1       7.837  21.586  55.541  1.00  0.00     0.037 A 
HETATM   11  C   UNL     1       7.848  20.933  54.308  1.00  0.00     0.003 A 
HETATM   12  C   UNL     1       7.977  21.669  53.133  1.00  0.00     0.000 A 
HETATM   13  C   UNL     1       8.088  23.057  53.194  1.00  0.00     0.003 A 
HETATM   14  C   UNL     1       8.070  23.711  54.430  1.00  0.00     0.037 A 
ENDBRANCH   8   9
ENDBRANCH   7   8
ENDBRANCH   4   7
ENDBRANCH   2   3
BRANCH   1  15
HETATM   15  C   UNL     1       8.064  29.928  58.282  1.00  0.00     0.017 A 
HETATM   16  C   UNL     1       6.774  30.267  57.883  1.00  0.00     0.018 A 
HETATM   17  C   UNL     1       5.986  29.859  56.688  1.00  0.00     0.069 C 
HETATM   18  N   UNL     1       6.264  31.143  58.804  1.00  0.00    -0.358 N 
HETATM   19  H   UNL     1       5.345  31.566  58.767  1.00  0.00     0.166 HD
HETATM   20  C   UNL     1       7.174  31.370  59.807  1.00  0.00     0.043 A 
HETATM   21  C   UNL     1       8.302  30.594  59.530  1.00  0.00     0.004 A 
HETATM   22  C   UNL     1       7.070  32.193  60.935  1.00  0.00     0.030 A 
HETATM   23  C   UNL     1       9.359  30.617  60.464  1.00  0.00     0.014 A 
HETATM   24  C   UNL     1       9.274  31.437  61.595  1.00  0.00     0.001 A 
HETATM   25  C   UNL     1       8.147  32.219  61.822  1.00  0.00     0.002 A 
ENDBRANCH   1  15
TORSDOF 5
ENDMDL
MODEL 4
REMARK VINA RESULT:      -8.4      4.666      5.983
REMARK  5 active torsions:
REMARK  status: ('A' for Active; 'I' for Inactive)
REMARK    1  A    between atoms: C_7  and  C_8 
REMARK    2  A    between atoms: N_9  and  N_10 
REMARK       I    between atoms: N_10  and  C_11 
REMARK    3  A    between atoms: C_11  and  C_12 
REMARK    4  A    between atoms: C_12  and  O_13 
REMARK    5  A    between atoms: O_13  and  C_14 
ROOT
HETATM    1  C   UNL     1       7.967  24.983  52.326  1.00  0.00     0.147 C 
HETATM    2  N   UNL     1       7.057  25.583  51.615  1.00  0.00    -0.205 NA
ENDROOT
BRANCH   2   3
HETATM    3  N   UNL     1       5.742  25.594  51.991  1.00  0.00    -0.149 NA
HETATM    4  C   UNL     1       5.003  26.759  52.128  1.00  0.00     0.241 C 
HETATM    5  O   UNL     1       4.166  26.820  53.031  1.00  0.00    -0.276 OA
HETATM    6  H   UNL     1       5.580  25.030  52.823  1.00  0.00     0.158 HD
BRANCH   4   7
HETATM    7  C   UNL     1       5.201  27.863  51.094  1.00  0.00     0.273 C 
BRANCH   7   8
HETATM    8  O   UNL     1       5.173  27.346  49.769  1.00  0.00    -0.343 OA
BRANCH   8   9
HETATM    9  C   UNL     1       3.949  27.257  49.164  1.00  0.00     0.069 A 
HETATM   10  C   UNL     1       3.772  26.117  48.375  1.00  0.00     0.037 A 
HETATM   11  C   UNL     1       2.578  25.908  47.684  1.00  0.00     0.003 A 
HETATM   12  C   UNL     1       1.551  26.843  47.774  1.00  0.00     0.000 A 
HETATM   13  C   UNL     1       1.718  27.982  48.560  1.00  0.00     0.003 A 
HETATM   14  C   UNL     1       2.912  28.187  49.258  1.00  0.00     0.037 A 
ENDBRANCH   8   9
ENDBRANCH   7   8
ENDBRANCH   4   7
ENDBRANCH   2   3
BRANCH   1  15
HETATM   15  C   UNL     1       7.816  24.257  53.573  1.00  0.00     0.017 A 
HETATM   16  C   UNL     1       7.537  24.904  54.774  1.00  0.00     0.018 A 
HETATM   17  C   UNL     1       7.341  26.347  55.080  1.00  0.00     0.069 C 
HETATM   18  N   UNL     1       7.488  23.956  55.762  1.00  0.00    -0.358 N 
HETATM   19  H   UNL     1       7.311  24.137  56.741  1.00  0.00     0.166 HD
HETATM   20  C   UNL     1       7.704  22.705  55.239  1.00  0.00     0.043 A 
HETATM   21  C   UNL     1       7.878  22.853  53.861  1.00  0.00     0.004 A 
HETATM   22  C   UNL     1       7.747  21.463  55.885  1.00  0.00     0.030 A 
HETATM   23  C   UNL     1       8.057  21.684  53.092  1.00  0.00     0.014 A 
HETATM   24  C   UNL     1       8.106  20.435  53.722  1.00  0.00     0.001 A 
HETATM   25  C   UNL     1       7.960  20.329  55.100  1.00  0.00     0.002 A 
ENDBRANCH   1  15
TORSDOF 5
ENDMDL
MODEL 5
REMARK VINA RESULT:      -8.2      2.376      6.241
REMARK  5 active torsions:
REMARK  status: ('A' for Active; 'I' for Inactive)
REMARK    1  A    between atoms: C_7  and  C_8 
REMARK    2  A    between atoms: N_9  and  N_10 
REMARK       I    between atoms: N_10  and  C_11 
REMARK    3  A    between atoms: C_11  and  C_12 
REMARK    4  A    between atoms: C_12  and  O_13 
REMARK    5  A    between atoms: O_13  and  C_14 
ROOT
HETATM    1  C   UNL     1       5.706  26.858  56.803  1.00  0.00     0.147 C 
HETATM    2  N   UNL     1       6.601  26.365  57.609  1.00  0.00    -0.205 NA
ENDROOT
BRANCH   2   3
HETATM    3  N   UNL     1       7.885  26.133  57.202  1.00  0.00    -0.149 NA
HETATM    4  C   UNL     1       8.445  24.866  57.144  1.00  0.00     0.241 C 
HETATM    5  O   UNL     1       9.636  24.736  57.438  1.00  0.00    -0.276 OA
HETATM    6  H   UNL     1       8.550  26.738  57.681  1.00  0.00     0.158 HD
BRANCH   4   7
HETATM    7  C   UNL     1       7.580  23.720  56.628  1.00  0.00     0.273 C 
BRANCH   7   8
HETATM    8  O   UNL     1       8.302  22.494  56.604  1.00  0.00    -0.343 OA
BRANCH   8   9
HETATM    9  C   UNL     1       8.339  21.820  55.414  1.00  0.00     0.069 A 
HETATM   10  C   UNL     1       7.823  22.530  54.327  1.00  0.00     0.037 A 
HETATM   11  C   UNL     1       7.781  21.956  53.056  1.00  0.00     0.003 A 
HETATM   12  C   UNL     1       8.254  20.660  52.864  1.00  0.00     0.000 A 
HETATM   13  C   UNL     1       8.773  19.945  53.942  1.00  0.00     0.003 A 
HETATM   14  C   UNL     1       8.821  20.525  55.213  1.00  0.00     0.037 A 
ENDBRANCH   8   9
ENDBRANCH   7   8
ENDBRANCH   4   7
ENDBRANCH   2   3
BRANCH   1  15
HETATM   15  C   UNL     1       5.850  27.249  55.413  1.00  0.00     0.017 A 
HETATM   16  C   UNL     1       6.267  28.525  55.044  1.00  0.00     0.018 A 
HETATM   17  C   UNL     1       6.637  29.705  55.872  1.00  0.00     0.069 C 
HETATM   18  N   UNL     1       6.271  28.588  53.676  1.00  0.00    -0.358 N 
HETATM   19  H   UNL     1       6.523  29.399  53.126  1.00  0.00     0.166 HD
HETATM   20  C   UNL     1       5.889  27.384  53.137  1.00  0.00     0.043 A 
HETATM   21  C   UNL     1       5.653  26.509  54.200  1.00  0.00     0.004 A 
HETATM   22  C   UNL     1       5.750  27.012  51.795  1.00  0.00     0.030 A 
HETATM   23  C   UNL     1       5.302  25.178  53.888  1.00  0.00     0.014 A 
HETATM   24  C   UNL     1       5.154  24.789  52.551  1.00  0.00     0.001 A 
HETATM   25  C   UNL     1       5.369  25.697  51.521  1.00  0.00     0.002 A 
ENDBRANCH   1  15
TORSDOF 5
ENDMDL
MODEL 6
REMARK VINA RESULT:      -8.2      3.214      5.200
REMARK  5 active torsions:
REMARK  status: ('A' for Active; 'I' for Inactive)
REMARK    1  A    between atoms: C_7  and  C_8 
REMARK    2  A    between atoms: N_9  and  N_10 
REMARK       I    between atoms: N_10  and  C_11 
REMARK    3  A    between atoms: C_11  and  C_12 
REMARK    4  A    between atoms: C_12  and  O_13 
REMARK    5  A    between atoms: O_13  and  C_14 
ROOT
HETATM    1  C   UNL     1       7.264  28.039  57.875  1.00  0.00     0.147 C 
HETATM    2  N   UNL     1       8.274  28.829  58.093  1.00  0.00    -0.205 NA
ENDROOT
BRANCH   2   3
HETATM    3  N   UNL     1       9.336  28.895  57.234  1.00  0.00    -0.149 NA
HETATM    4  C   UNL     1      10.103  30.036  57.062  1.00  0.00     0.241 C 
HETATM    5  O   UNL     1      10.531  30.292  55.934  1.00  0.00    -0.276 OA
HETATM    6  H   UNL     1       9.097  28.545  56.307  1.00  0.00     0.158 HD
BRANCH   4   7
HETATM    7  C   UNL     1      10.452  30.861  58.297  1.00  0.00     0.273 C 
BRANCH   7   8
HETATM    8  O   UNL     1       9.557  31.955  58.462  1.00  0.00    -0.343 OA
BRANCH   8   9
HETATM    9  C   UNL     1       8.861  32.014  59.639  1.00  0.00     0.069 A 
HETATM   10  C   UNL     1       9.655  31.953  60.787  1.00  0.00     0.037 A 
HETATM   11  C   UNL     1       9.075  31.984  62.056  1.00  0.00     0.003 A 
HETATM   12  C   UNL     1       7.691  32.072  62.184  1.00  0.00     0.000 A 
HETATM   13  C   UNL     1       6.892  32.137  61.045  1.00  0.00     0.003 A 
HETATM   14  C   UNL     1       7.474  32.113  59.774  1.00  0.00     0.037 A 
ENDBRANCH   8   9
ENDBRANCH   7   8
ENDBRANCH   4   7
ENDBRANCH   2   3
BRANCH   1  15
HETATM   15  C   UNL     1       7.044  27.129  56.767  1.00  0.00     0.017 A 
HETATM   16  C   UNL     1       6.246  27.471  55.678  1.00  0.00     0.018 A 
HETATM   17  C   UNL     1       5.487  28.716  55.381  1.00  0.00     0.069 C 
HETATM   18  N   UNL     1       6.212  26.398  54.827  1.00  0.00    -0.358 N 
HETATM   19  H   UNL     1       5.701  26.357  53.955  1.00  0.00     0.166 HD
HETATM   20  C   UNL     1       6.981  25.371  55.316  1.00  0.00     0.043 A 
HETATM   21  C   UNL     1       7.547  25.809  56.516  1.00  0.00     0.004 A 
HETATM   22  C   UNL     1       7.219  24.101  54.777  1.00  0.00     0.030 A 
HETATM   23  C   UNL     1       8.435  24.936  57.179  1.00  0.00     0.014 A 
HETATM   24  C   UNL     1       8.682  23.661  56.657  1.00  0.00     0.001 A 
HETATM   25  C   UNL     1       8.075  23.249  55.476  1.00  0.00     0.002 A 
ENDBRANCH   1  15
TORSDOF 5
ENDMDL
MODEL 7
REMARK VINA RESULT:      -7.8      5.065      7.896
REMARK  5 active torsions:
REMARK  status: ('A' for Active; 'I' for Inactive)
REMARK    1  A    between atoms: C_7  and  C_8 
REMARK    2  A    between atoms: N_9  and  N_10 
REMARK       I    between atoms: N_10  and  C_11 
REMARK    3  A    between atoms: C_11  and  C_12 
REMARK    4  A    between atoms: C_12  and  O_13 
REMARK    5  A    between atoms: O_13  and  C_14 
ROOT
HETATM    1  C   UNL     1       5.418  28.500  51.286  1.00  0.00     0.147 C 
HETATM    2  N   UNL     1       5.808  27.695  52.231  1.00  0.00    -0.205 NA
ENDROOT
BRANCH   2   3
HETATM    3  N   UNL     1       5.051  26.627  52.624  1.00  0.00    -0.149 NA
HETATM    4  C   UNL     1       5.430  25.310  52.417  1.00  0.00     0.241 C 
HETATM    5  O   UNL     1       4.556  24.483  52.148  1.00  0.00    -0.276 OA
HETATM    6  H   UNL     1       4.082  26.716  52.323  1.00  0.00     0.158 HD
BRANCH   4   7
HETATM    7  C   UNL     1       6.896  24.942  52.624  1.00  0.00     0.273 C 
BRANCH   7   8
HETATM    8  O   UNL     1       7.145  24.532  53.964  1.00  0.00    -0.343 OA
BRANCH   8   9
HETATM    9  C   UNL     1       7.465  23.217  54.160  1.00  0.00     0.069 A 
HETATM   10  C   UNL     1       7.772  22.513  52.993  1.00  0.00     0.037 A 
HETATM   11  C   UNL     1       8.098  21.157  53.044  1.00  0.00     0.003 A 
HETATM   12  C   UNL     1       8.114  20.493  54.267  1.00  0.00     0.000 A 
HETATM   13  C   UNL     1       7.812  21.187  55.437  1.00  0.00     0.003 A 
HETATM   14  C   UNL     1       7.493  22.547  55.386  1.00  0.00     0.037 A 
ENDBRANCH   8   9
ENDBRANCH   7   8
ENDBRANCH   4   7
ENDBRANCH   2   3
BRANCH   1  15
HETATM   15  C   UNL     1       4.201  28.456  50.498  1.00  0.00     0.017 A 
HETATM   16  C   UNL     1       3.166  29.368  50.684  1.00  0.00     0.018 A 
HETATM   17  C   UNL     1       3.033  30.508  51.631  1.00  0.00     0.069 C 
HETATM   18  N   UNL     1       2.156  29.042  49.818  1.00  0.00    -0.358 N 
HETATM   19  H   UNL     1       1.272  29.529  49.737  1.00  0.00     0.166 HD
HETATM   20  C   UNL     1       2.508  27.957  49.055  1.00  0.00     0.043 A 
HETATM   21  C   UNL     1       3.801  27.585  49.430  1.00  0.00     0.004 A 
HETATM   22  C   UNL     1       1.780  27.293  48.060  1.00  0.00     0.030 A 
HETATM   23  C   UNL     1       4.405  26.517  48.733  1.00  0.00     0.014 A 
HETATM   24  C   UNL     1       3.691  25.839  47.738  1.00  0.00     0.001 A 
HETATM   25  C   UNL     1       2.393  26.219  47.413  1.00  0.00     0.002 A 
ENDBRANCH   1  15
TORSDOF 5
ENDMDL
MODEL 8
REMARK VINA RESULT:      -7.8      4.685      6.038
REMARK  5 active torsions:
REMARK  status: ('A' for Active; 'I' for Inactive)
REMARK    1  A    between atoms: C_7  and  C_8 
REMARK    2  A    between atoms: N_9  and  N_10 
REMARK       I    between atoms: N_10  and  C_11 
REMARK    3  A    between atoms: C_11  and  C_12 
REMARK    4  A    between atoms: C_12  and  O_13 
REMARK    5  A    between atoms: O_13  and  C_14 
ROOT
HETATM    1  C   UNL     1       7.813  26.366  53.756  1.00  0.00     0.147 C 
HETATM    2  N   UNL     1       6.903  27.153  53.260  1.00  0.00    -0.205 NA
ENDROOT
BRANCH   2   3
HETATM    3  N   UNL     1       5.569  26.917  53.444  1.00  0.00    -0.149 NA
HETATM    4  C   UNL     1       4.591  27.382  52.579  1.00  0.00     0.241 C 
HETATM    5  O   UNL     1       3.512  27.746  53.054  1.00  0.00    -0.276 OA
HETATM    6  H   UNL     1       5.270  27.141  54.391  1.00  0.00     0.158 HD
BRANCH   4   7
HETATM    7  C   UNL     1       4.871  27.330  51.080  1.00  0.00     0.273 C 
BRANCH   7   8
HETATM    8  O   UNL     1       3.939  28.119  50.349  1.00  0.00    -0.343 OA
BRANCH   8   9
HETATM    9  C   UNL     1       3.323  27.523  49.283  1.00  0.00     0.069 A 
HETATM   10  C   UNL     1       4.033  26.458  48.723  1.00  0.00     0.037 A 
HETATM   11  C   UNL     1       3.531  25.770  47.617  1.00  0.00     0.003 A 
HETATM   12  C   UNL     1       2.313  26.149  47.059  1.00  0.00     0.000 A 
HETATM   13  C   UNL     1       1.597  27.208  47.613  1.00  0.00     0.003 A 
HETATM   14  C   UNL     1       2.097  27.891  48.725  1.00  0.00     0.037 A 
ENDBRANCH   8   9
ENDBRANCH   7   8
ENDBRANCH   4   7
ENDBRANCH   2   3
BRANCH   1  15
HETATM   15  C   UNL     1       7.641  25.167  54.554  1.00  0.00     0.017 A 
HETATM   16  C   UNL     1       7.316  25.221  55.907  1.00  0.00     0.018 A 
HETATM   17  C   UNL     1       7.081  26.382  56.806  1.00  0.00     0.069 C 
HETATM   18  N   UNL     1       7.258  23.935  56.377  1.00  0.00    -0.358 N 
HETATM   19  H   UNL     1       7.050  23.668  57.331  1.00  0.00     0.166 HD
HETATM   20  C   UNL     1       7.514  23.041  55.368  1.00  0.00     0.043 A 
HETATM   21  C   UNL     1       7.724  23.779  54.200  1.00  0.00     0.004 A 
HETATM   22  C   UNL     1       7.564  21.642  55.407  1.00  0.00     0.030 A 
HETATM   23  C   UNL     1       7.949  23.065  53.004  1.00  0.00     0.014 A 
HETATM   24  C   UNL     1       8.006  21.667  53.026  1.00  0.00     0.001 A 
HETATM   25  C   UNL     1       7.823  20.967  54.213  1.00  0.00     0.002 A 
ENDBRANCH   1  15
TORSDOF 5
ENDMDL
MODEL 9
REMARK VINA RESULT:      -7.8      2.008      2.637
REMARK  5 active torsions:
REMARK  status: ('A' for Active; 'I' for Inactive)
REMARK    1  A    between atoms: C_7  and  C_8 
REMARK    2  A    between atoms: N_9  and  N_10 
REMARK       I    between atoms: N_10  and  C_11 
REMARK    3  A    between atoms: C_11  and  C_12 
REMARK    4  A    between atoms: C_12  and  O_13 
REMARK    5  A    between atoms: O_13  and  C_14 
ROOT
HETATM    1  C   UNL     1       8.094  25.003  52.658  1.00  0.00     0.147 C 
HETATM    2  N   UNL     1       7.155  25.399  51.849  1.00  0.00    -0.205 NA
ENDROOT
BRANCH   2   3
HETATM    3  N   UNL     1       5.857  24.995  52.000  1.00  0.00    -0.149 NA
HETATM    4  C   UNL     1       4.943  25.664  52.798  1.00  0.00     0.241 C 
HETATM    5  O   UNL     1       4.112  24.999  53.422  1.00  0.00    -0.276 OA
HETATM    6  H   UNL     1       5.792  24.004  52.226  1.00  0.00     0.158 HD
BRANCH   4   7
HETATM    7  C   UNL     1       4.956  27.189  52.786  1.00  0.00     0.273 C 
BRANCH   7   8
HETATM    8  O   UNL     1       4.203  27.725  53.867  1.00  0.00    -0.343 OA
BRANCH   8   9
HETATM    9  C   UNL     1       4.908  28.284  54.898  1.00  0.00     0.069 A 
HETATM   10  C   UNL     1       4.440  27.949  56.171  1.00  0.00     0.037 A 
HETATM   11  C   UNL     1       5.053  28.464  57.313  1.00  0.00     0.003 A 
HETATM   12  C   UNL     1       6.141  29.325  57.189  1.00  0.00     0.000 A 
HETATM   13  C   UNL     1       6.616  29.662  55.923  1.00  0.00     0.003 A 
HETATM   14  C   UNL     1       6.005  29.140  54.779  1.00  0.00     0.037 A 
ENDBRANCH   8   9
ENDBRANCH   7   8
ENDBRANCH   4   7
ENDBRANCH   2   3
BRANCH   1  15
HETATM   15  C   UNL     1       7.993  24.124  53.809  1.00  0.00     0.017 A 
HETATM   16  C   UNL     1       7.751  24.611  55.090  1.00  0.00     0.018 A 
HETATM   17  C   UNL     1       7.553  26.001  55.582  1.00  0.00     0.069 C 
HETATM   18  N   UNL     1       7.745  23.546  55.951  1.00  0.00    -0.358 N 
HETATM   19  H   UNL     1       7.602  23.600  56.952  1.00  0.00     0.166 HD
HETATM   20  C   UNL     1       7.954  22.373  55.268  1.00  0.00     0.043 A 
HETATM   21  C   UNL     1       8.078  22.696  53.915  1.00  0.00     0.004 A 
HETATM   22  C   UNL     1       8.031  21.061  55.751  1.00  0.00     0.030 A 
HETATM   23  C   UNL     1       8.240  21.634  52.999  1.00  0.00     0.014 A 
HETATM   24  C   UNL     1       8.323  20.317  53.465  1.00  0.00     0.001 A 
HETATM   25  C   UNL     1       8.226  20.037  54.823  1.00  0.00     0.002 A 
ENDBRANCH   1  15
TORSDOF 5
ENDMDL
MODEL 10
REMARK VINA RESULT:      -7.4      3.950      5.345
REMARK  5 active torsions:
REMARK  status: ('A' for Active; 'I' for Inactive)
REMARK    1  A    between atoms: C_7  and  C_8 
REMARK    2  A    between atoms: N_9  and  N_10 
REMARK       I    between atoms: N_10  and  C_11 
REMARK    3  A    between atoms: C_11  and  C_12 
REMARK    4  A    between atoms: C_12  and  O_13 
REMARK    5  A    between atoms: O_13  and  C_14 
ROOT
HETATM    1  C   UNL     1       7.841  25.680  54.854  1.00  0.00     0.147 C 
HETATM    2  N   UNL     1       6.877  26.548  54.758  1.00  0.00    -0.205 NA
ENDROOT
BRANCH   2   3
HETATM    3  N   UNL     1       5.687  26.238  54.160  1.00  0.00    -0.149 NA
HETATM    4  C   UNL     1       4.926  27.164  53.463  1.00  0.00     0.241 C 
HETATM    5  O   UNL     1       3.697  27.089  53.537  1.00  0.00    -0.276 OA
HETATM    6  H   UNL     1       5.061  25.743  54.792  1.00  0.00     0.158 HD
BRANCH   4   7
HETATM    7  C   UNL     1       5.651  28.164  52.568  1.00  0.00     0.273 C 
BRANCH   7   8
HETATM    8  O   UNL     1       5.994  27.586  51.314  1.00  0.00    -0.343 OA
BRANCH   8   9
HETATM    9  C   UNL     1       4.992  27.468  50.390  1.00  0.00     0.069 A 
HETATM   10  C   UNL     1       4.225  28.623  50.215  1.00  0.00     0.037 A 
HETATM   11  C   UNL     1       3.157  28.638  49.317  1.00  0.00     0.003 A 
HETATM   12  C   UNL     1       2.845  27.494  48.589  1.00  0.00     0.000 A 
HETATM   13  C   UNL     1       3.607  26.338  48.755  1.00  0.00     0.003 A 
HETATM   14  C   UNL     1       4.682  26.326  49.649  1.00  0.00     0.037 A 
ENDBRANCH   8   9
ENDBRANCH   7   8
ENDBRANCH   4   7
ENDBRANCH   2   3
BRANCH   1  15
HETATM   15  C   UNL     1       7.876  24.303  54.396  1.00  0.00     0.017 A 
HETATM   16  C   UNL     1       7.817  23.974  53.045  1.00  0.00     0.018 A 
HETATM   17  C   UNL     1       7.715  24.835  51.836  1.00  0.00     0.069 C 
HETATM   18  N   UNL     1       7.837  22.607  52.943  1.00  0.00    -0.358 N 
HETATM   19  H   UNL     1       7.797  22.082  52.079  1.00  0.00     0.166 HD
HETATM   20  C   UNL     1       7.929  22.034  54.187  1.00  0.00     0.043 A 
HETATM   21  C   UNL     1       7.992  23.071  55.121  1.00  0.00     0.004 A 
HETATM   22  C   UNL     1       7.971  20.680  54.544  1.00  0.00     0.030 A 
HETATM   23  C   UNL     1       8.152  22.723  56.479  1.00  0.00     0.014 A 
HETATM   24  C   UNL     1       8.192  21.375  56.854  1.00  0.00     0.001 A 
HETATM   25  C   UNL     1       8.095  20.369  55.899  1.00  0.00     0.002 A 
ENDBRANCH   1  15
TORSDOF 5
ENDMDL
