MODEL 1
REMARK VINA RESULT:     -10.1      0.000      0.000
REMARK  2 active torsions:
REMARK  status: ('A' for Active; 'I' for Inactive)
REMARK    1  A    between atoms: C_15  and  C_16 
REMARK    2  A    between atoms: C_19  and  O_20 
ROOT
HETATM    1  C   UNL     1       7.982  20.332  52.535  1.00  0.00     0.048 C 
HETATM    2  C   UNL     1       7.948  21.235  53.733  1.00  0.00    -0.061 A 
HETATM    3  C   UNL     1       7.844  22.629  53.570  1.00  0.00     0.021 A 
HETATM    4  C   UNL     1       7.804  23.468  54.701  1.00  0.00    -0.000 A 
HETATM    5  C   UNL     1       7.869  22.877  55.970  1.00  0.00     0.043 A 
HETATM    6  N   UNL     1       7.852  23.891  56.900  1.00  0.00    -0.353 N 
HETATM    7  H   UNL     1       7.898  23.771  57.904  1.00  0.00     0.166 HD
HETATM    8  C   UNL     1       7.712  25.084  56.266  1.00  0.00     0.066 A 
HETATM    9  C   UNL     1       7.696  24.874  54.901  1.00  0.00    -0.017 A 
HETATM   10  C   UNL     1       7.569  26.013  53.927  1.00  0.00     0.043 C 
HETATM   11  C   UNL     1       7.782  27.394  54.622  1.00  0.00     0.018 C 
HETATM   12  C   UNL     1       7.041  27.465  55.974  1.00  0.00     0.065 C 
HETATM   13  C   UNL     1       7.612  26.379  56.842  1.00  0.00     0.082 C 
HETATM   14  N   UNL     1       8.052  26.712  58.009  1.00  0.00    -0.203 NA
HETATM   15  C   UNL     1       7.323  28.669  56.882  1.00  0.00     0.121 C 
HETATM   16  N   UNL     1       7.802  28.034  58.122  1.00  0.00    -0.207 NA
HETATM   17  C   UNL     1       7.936  21.494  56.158  1.00  0.00     0.031 A 
HETATM   18  C   UNL     1       7.968  20.685  55.020  1.00  0.00     0.009 A 
HETATM   19  H   UNL     1       8.539  28.560  58.590  1.00  0.00     0.149 HD
ENDROOT
BRANCH  15  20
HETATM   20  C   UNL     1       6.123  29.532  57.238  1.00  0.00    -0.038 A 
HETATM   21  C   UNL     1       6.268  30.728  57.964  1.00  0.00     0.011 A 
HETATM   22  C   UNL     1       5.187  31.589  58.157  1.00  0.00     0.037 A 
HETATM   23  C   UNL     1       3.954  31.292  57.588  1.00  0.00     0.068 A 
HETATM   24  C   UNL     1       3.777  30.099  56.893  1.00  0.00     0.037 A 
HETATM   25  C   UNL     1       4.857  29.224  56.715  1.00  0.00     0.011 A 
BRANCH  23  26
HETATM   26  O   UNL     1       2.959  32.212  57.772  1.00  0.00    -0.356 OA
HETATM   27  C   UNL     1       3.440  33.436  58.326  1.00  0.00     0.210 C 
ENDBRANCH  23  26
ENDBRANCH  15  20
TORSDOF 2
ENDMDL
MODEL 2
REMARK VINA RESULT:      -9.9      2.516      3.463
REMARK  2 active torsions:
REMARK  status: ('A' for Active; 'I' for Inactive)
REMARK    1  A    between atoms: C_15  and  C_16 
REMARK    2  A    between atoms: C_19  and  O_20 
ROOT
HETATM    1  C   UNL     1       7.924  20.316  54.291  1.00  0.00     0.048 C 
HETATM    2  C   UNL     1       7.830  21.798  54.076  1.00  0.00    -0.061 A 
HETATM    3  C   UNL     1       7.395  22.641  55.115  1.00  0.00     0.021 A 
HETATM    4  C   UNL     1       7.319  24.033  54.906  1.00  0.00    -0.000 A 
HETATM    5  C   UNL     1       7.686  24.537  53.652  1.00  0.00     0.043 A 
HETATM    6  N   UNL     1       7.492  25.900  53.681  1.00  0.00    -0.353 N 
HETATM    7  H   UNL     1       7.662  26.536  52.913  1.00  0.00     0.166 HD
HETATM    8  C   UNL     1       7.083  26.271  54.922  1.00  0.00     0.066 A 
HETATM    9  C   UNL     1       6.943  25.147  55.711  1.00  0.00    -0.017 A 
HETATM   10  C   UNL     1       6.484  25.235  57.140  1.00  0.00     0.043 C 
HETATM   11  C   UNL     1       5.907  26.645  57.476  1.00  0.00     0.018 C 
HETATM   12  C   UNL     1       6.789  27.769  56.891  1.00  0.00     0.065 C 
HETATM   13  C   UNL     1       6.803  27.580  55.400  1.00  0.00     0.082 C 
HETATM   14  N   UNL     1       6.475  28.588  54.663  1.00  0.00    -0.203 NA
HETATM   15  C   UNL     1       6.248  29.203  56.944  1.00  0.00     0.121 C 
HETATM   16  N   UNL     1       6.246  29.601  55.526  1.00  0.00    -0.207 NA
HETATM   17  C   UNL     1       8.156  23.725  52.616  1.00  0.00     0.031 A 
HETATM   18  C   UNL     1       8.227  22.350  52.852  1.00  0.00     0.009 A 
HETATM   19  H   UNL     1       5.459  30.197  55.271  1.00  0.00     0.149 HD
ENDROOT
BRANCH  15  20
HETATM   20  C   UNL     1       7.096  30.209  57.706  1.00  0.00    -0.038 A 
HETATM   21  C   UNL     1       6.511  31.236  58.467  1.00  0.00     0.011 A 
HETATM   22  C   UNL     1       7.288  32.060  59.283  1.00  0.00     0.037 A 
HETATM   23  C   UNL     1       8.657  31.842  59.386  1.00  0.00     0.068 A 
HETATM   24  C   UNL     1       9.264  30.852  58.617  1.00  0.00     0.037 A 
HETATM   25  C   UNL     1       8.488  30.036  57.784  1.00  0.00     0.011 A 
BRANCH  23  26
HETATM   26  O   UNL     1       9.342  32.653  60.248  1.00  0.00    -0.356 OA
HETATM   27  C   UNL     1       9.706  31.985  61.455  1.00  0.00     0.210 C 
ENDBRANCH  23  26
ENDBRANCH  15  20
TORSDOF 2
ENDMDL
MODEL 3
REMARK VINA RESULT:      -9.5      2.313      2.965
REMARK  2 active torsions:
REMARK  status: ('A' for Active; 'I' for Inactive)
REMARK    1  A    between atoms: C_15  and  C_16 
REMARK    2  A    between atoms: C_19  and  O_20 
ROOT
HETATM    1  C   UNL     1       9.113  20.223  55.494  1.00  0.00     0.048 C 
HETATM    2  C   UNL     1       8.425  21.406  54.877  1.00  0.00    -0.061 A 
HETATM    3  C   UNL     1       7.766  22.348  55.689  1.00  0.00     0.021 A 
HETATM    4  C   UNL     1       7.131  23.461  55.101  1.00  0.00    -0.000 A 
HETATM    5  C   UNL     1       7.179  23.592  53.707  1.00  0.00     0.043 A 
HETATM    6  N   UNL     1       6.464  24.720  53.373  1.00  0.00    -0.353 N 
HETATM    7  H   UNL     1       6.314  25.067  52.435  1.00  0.00     0.166 HD
HETATM    8  C   UNL     1       6.030  25.332  54.507  1.00  0.00     0.066 A 
HETATM    9  C   UNL     1       6.404  24.578  55.601  1.00  0.00    -0.017 A 
HETATM   10  C   UNL     1       6.049  24.990  57.004  1.00  0.00     0.043 C 
HETATM   11  C   UNL     1       4.986  26.133  57.020  1.00  0.00     0.018 C 
HETATM   12  C   UNL     1       5.308  27.216  55.967  1.00  0.00     0.065 C 
HETATM   13  C   UNL     1       5.291  26.539  54.625  1.00  0.00     0.082 C 
HETATM   14  N   UNL     1       4.539  27.046  53.706  1.00  0.00    -0.203 NA
HETATM   15  C   UNL     1       4.249  28.294  55.704  1.00  0.00     0.121 C 
HETATM   16  N   UNL     1       3.989  28.148  54.262  1.00  0.00    -0.207 NA
HETATM   17  C   UNL     1       7.858  22.690  52.884  1.00  0.00     0.031 A 
HETATM   18  C   UNL     1       8.483  21.600  53.493  1.00  0.00     0.009 A 
HETATM   19  H   UNL     1       3.015  28.303  54.006  1.00  0.00     0.149 HD
ENDROOT
BRANCH  15  20
HETATM   20  C   UNL     1       4.681  29.730  55.953  1.00  0.00    -0.038 A 
HETATM   21  C   UNL     1       4.248  30.781  55.126  1.00  0.00     0.011 A 
HETATM   22  C   UNL     1       4.525  32.111  55.448  1.00  0.00     0.037 A 
HETATM   23  C   UNL     1       5.199  32.414  56.625  1.00  0.00     0.068 A 
HETATM   24  C   UNL     1       5.667  31.389  57.444  1.00  0.00     0.037 A 
HETATM   25  C   UNL     1       5.406  30.053  57.112  1.00  0.00     0.011 A 
BRANCH  23  26
HETATM   26  O   UNL     1       5.383  33.741  56.900  1.00  0.00    -0.356 OA
HETATM   27  C   UNL     1       4.454  34.234  57.864  1.00  0.00     0.210 C 
ENDBRANCH  23  26
ENDBRANCH  15  20
TORSDOF 2
ENDMDL
MODEL 4
REMARK VINA RESULT:      -9.3      5.396      8.869
REMARK  2 active torsions:
REMARK  status: ('A' for Active; 'I' for Inactive)
REMARK    1  A    between atoms: C_15  and  C_16 
REMARK    2  A    between atoms: C_19  and  O_20 
ROOT
HETATM    1  C   UNL     1       4.841  31.527  46.665  1.00  0.00     0.048 C 
HETATM    2  C   UNL     1       5.011  31.064  48.083  1.00  0.00    -0.061 A 
HETATM    3  C   UNL     1       4.945  29.693  48.396  1.00  0.00     0.021 A 
HETATM    4  C   UNL     1       5.116  29.268  49.729  1.00  0.00    -0.000 A 
HETATM    5  C   UNL     1       5.350  30.239  50.711  1.00  0.00     0.043 A 
HETATM    6  N   UNL     1       5.442  29.589  51.921  1.00  0.00    -0.353 N 
HETATM    7  H   UNL     1       5.599  30.031  52.817  1.00  0.00     0.166 HD
HETATM    8  C   UNL     1       5.343  28.248  51.722  1.00  0.00     0.066 A 
HETATM    9  C   UNL     1       5.121  28.003  50.382  1.00  0.00    -0.017 A 
HETATM   10  C   UNL     1       4.949  26.606  49.852  1.00  0.00     0.043 C 
HETATM   11  C   UNL     1       4.736  25.573  51.003  1.00  0.00     0.018 C 
HETATM   12  C   UNL     1       5.709  25.826  52.175  1.00  0.00     0.065 C 
HETATM   13  C   UNL     1       5.422  27.209  52.688  1.00  0.00     0.082 C 
HETATM   14  N   UNL     1       5.179  27.344  53.949  1.00  0.00    -0.203 NA
HETATM   15  C   UNL     1       5.487  25.039  53.472  1.00  0.00     0.121 C 
HETATM   16  N   UNL     1       5.315  26.106  54.472  1.00  0.00    -0.207 NA
HETATM   17  C   UNL     1       5.456  31.602  50.419  1.00  0.00     0.031 A 
HETATM   18  C   UNL     1       5.289  31.995  49.090  1.00  0.00     0.009 A 
HETATM   19  H   UNL     1       4.632  25.881  55.195  1.00  0.00     0.149 HD
ENDROOT
BRANCH  15  20
HETATM   20  C   UNL     1       6.641  24.161  53.925  1.00  0.00    -0.038 A 
HETATM   21  C   UNL     1       6.944  23.991  55.288  1.00  0.00     0.011 A 
HETATM   22  C   UNL     1       7.905  23.068  55.704  1.00  0.00     0.037 A 
HETATM   23  C   UNL     1       8.547  22.267  54.767  1.00  0.00     0.068 A 
HETATM   24  C   UNL     1       8.289  22.438  53.409  1.00  0.00     0.037 A 
HETATM   25  C   UNL     1       7.337  23.378  52.989  1.00  0.00     0.011 A 
BRANCH  23  26
HETATM   26  O   UNL     1       9.434  21.347  55.254  1.00  0.00    -0.356 OA
HETATM   27  C   UNL     1       8.814  20.390  56.112  1.00  0.00     0.210 C 
ENDBRANCH  23  26
ENDBRANCH  15  20
TORSDOF 2
ENDMDL
MODEL 5
REMARK VINA RESULT:      -8.5      4.735      5.655
REMARK  2 active torsions:
REMARK  status: ('A' for Active; 'I' for Inactive)
REMARK    1  A    between atoms: C_15  and  C_16 
REMARK    2  A    between atoms: C_19  and  O_20 
ROOT
HETATM    1  C   UNL     1       8.473  21.492  56.866  1.00  0.00     0.048 C 
HETATM    2  C   UNL     1       8.034  22.130  55.580  1.00  0.00    -0.061 A 
HETATM    3  C   UNL     1       7.293  23.326  55.597  1.00  0.00     0.021 A 
HETATM    4  C   UNL     1       6.892  23.922  54.384  1.00  0.00    -0.000 A 
HETATM    5  C   UNL     1       7.253  23.293  53.185  1.00  0.00     0.043 A 
HETATM    6  N   UNL     1       6.721  24.034  52.154  1.00  0.00    -0.353 N 
HETATM    7  H   UNL     1       6.807  23.820  51.169  1.00  0.00     0.166 HD
HETATM    8  C   UNL     1       6.102  25.133  52.660  1.00  0.00     0.066 A 
HETATM    9  C   UNL     1       6.166  25.097  54.038  1.00  0.00    -0.017 A 
HETATM   10  C   UNL     1       5.550  26.175  54.887  1.00  0.00     0.043 C 
HETATM   11  C   UNL     1       4.605  27.097  54.055  1.00  0.00     0.018 C 
HETATM   12  C   UNL     1       5.234  27.468  52.695  1.00  0.00     0.065 C 
HETATM   13  C   UNL     1       5.454  26.181  51.951  1.00  0.00     0.082 C 
HETATM   14  N   UNL     1       4.964  26.083  50.760  1.00  0.00    -0.203 NA
HETATM   15  C   UNL     1       4.348  28.187  51.670  1.00  0.00     0.121 C 
HETATM   16  N   UNL     1       4.397  27.283  50.509  1.00  0.00    -0.207 NA
HETATM   17  C   UNL     1       8.019  22.126  53.142  1.00  0.00     0.031 A 
HETATM   18  C   UNL     1       8.407  21.560  54.358  1.00  0.00     0.009 A 
HETATM   19  H   UNL     1       3.518  27.230  49.996  1.00  0.00     0.149 HD
ENDROOT
BRANCH  15  20
HETATM   20  C   UNL     1       4.831  29.554  51.213  1.00  0.00    -0.038 A 
HETATM   21  C   UNL     1       5.660  29.701  50.087  1.00  0.00     0.011 A 
HETATM   22  C   UNL     1       5.976  30.965  49.585  1.00  0.00     0.037 A 
HETATM   23  C   UNL     1       5.429  32.101  50.172  1.00  0.00     0.068 A 
HETATM   24  C   UNL     1       4.631  31.983  51.308  1.00  0.00     0.037 A 
HETATM   25  C   UNL     1       4.329  30.715  51.824  1.00  0.00     0.011 A 
BRANCH  23  26
HETATM   26  O   UNL     1       5.738  33.299  49.590  1.00  0.00    -0.356 OA
HETATM   27  C   UNL     1       6.421  33.143  48.347  1.00  0.00     0.210 C 
ENDBRANCH  23  26
ENDBRANCH  15  20
TORSDOF 2
ENDMDL
MODEL 6
REMARK VINA RESULT:      -8.4      5.770      8.803
REMARK  2 active torsions:
REMARK  status: ('A' for Active; 'I' for Inactive)
REMARK    1  A    between atoms: C_15  and  C_16 
REMARK    2  A    between atoms: C_19  and  O_20 
ROOT
HETATM    1  C   UNL     1      10.900  29.236  56.662  1.00  0.00     0.048 C 
HETATM    2  C   UNL     1       9.629  29.745  57.276  1.00  0.00    -0.061 A 
HETATM    3  C   UNL     1       9.648  30.363  58.541  1.00  0.00     0.021 A 
HETATM    4  C   UNL     1       8.450  30.845  59.105  1.00  0.00    -0.000 A 
HETATM    5  C   UNL     1       7.263  30.692  58.376  1.00  0.00     0.043 A 
HETATM    6  N   UNL     1       6.239  31.200  59.142  1.00  0.00    -0.353 N 
HETATM    7  H   UNL     1       5.261  31.219  58.881  1.00  0.00     0.166 HD
HETATM    8  C   UNL     1       6.748  31.723  60.288  1.00  0.00     0.066 A 
HETATM    9  C   UNL     1       8.112  31.510  60.318  1.00  0.00    -0.017 A 
HETATM   10  C   UNL     1       8.958  31.963  61.476  1.00  0.00     0.043 C 
HETATM   11  C   UNL     1       8.086  32.377  62.702  1.00  0.00     0.018 C 
HETATM   12  C   UNL     1       6.872  33.229  62.269  1.00  0.00     0.065 C 
HETATM   13  C   UNL     1       6.052  32.378  61.340  1.00  0.00     0.082 C 
HETATM   14  N   UNL     1       4.799  32.228  61.611  1.00  0.00    -0.203 NA
HETATM   15  C   UNL     1       5.800  33.533  63.322  1.00  0.00     0.121 C 
HETATM   16  N   UNL     1       4.579  32.981  62.710  1.00  0.00    -0.207 NA
HETATM   17  C   UNL     1       7.225  30.116  57.104  1.00  0.00     0.031 A 
HETATM   18  C   UNL     1       8.427  29.651  56.565  1.00  0.00     0.009 A 
HETATM   19  H   UNL     1       3.940  32.561  63.384  1.00  0.00     0.149 HD
ENDROOT
BRANCH  15  20
HETATM   20  C   UNL     1       5.548  35.004  63.612  1.00  0.00    -0.038 A 
HETATM   21  C   UNL     1       5.071  35.435  64.862  1.00  0.00     0.011 A 
HETATM   22  C   UNL     1       4.986  36.794  65.172  1.00  0.00     0.037 A 
HETATM   23  C   UNL     1       5.418  37.743  64.253  1.00  0.00     0.068 A 
HETATM   24  C   UNL     1       5.864  37.342  62.995  1.00  0.00     0.037 A 
HETATM   25  C   UNL     1       5.932  35.979  62.677  1.00  0.00     0.011 A 
BRANCH  23  26
HETATM   26  O   UNL     1       5.357  39.050  64.649  1.00  0.00    -0.356 OA
HETATM   27  C   UNL     1       6.489  39.806  64.218  1.00  0.00     0.210 C 
ENDBRANCH  23  26
ENDBRANCH  15  20
TORSDOF 2
ENDMDL
MODEL 7
REMARK VINA RESULT:      -8.4      4.012      7.835
REMARK  2 active torsions:
REMARK  status: ('A' for Active; 'I' for Inactive)
REMARK    1  A    between atoms: C_15  and  C_16 
REMARK    2  A    between atoms: C_19  and  O_20 
ROOT
HETATM    1  C   UNL     1       8.033  32.706  60.821  1.00  0.00     0.048 C 
HETATM    2  C   UNL     1       8.272  31.692  59.741  1.00  0.00    -0.061 A 
HETATM    3  C   UNL     1       7.186  31.069  59.097  1.00  0.00     0.021 A 
HETATM    4  C   UNL     1       7.421  30.125  58.078  1.00  0.00    -0.000 A 
HETATM    5  C   UNL     1       8.748  29.835  57.734  1.00  0.00     0.043 A 
HETATM    6  N   UNL     1       8.719  28.868  56.754  1.00  0.00    -0.353 N 
HETATM    7  H   UNL     1       9.528  28.451  56.314  1.00  0.00     0.166 HD
HETATM    8  C   UNL     1       7.428  28.594  56.428  1.00  0.00     0.066 A 
HETATM    9  C   UNL     1       6.588  29.335  57.235  1.00  0.00    -0.017 A 
HETATM   10  C   UNL     1       5.092  29.234  57.123  1.00  0.00     0.043 C 
HETATM   11  C   UNL     1       4.658  28.009  56.258  1.00  0.00     0.018 C 
HETATM   12  C   UNL     1       5.526  27.882  54.986  1.00  0.00     0.065 C 
HETATM   13  C   UNL     1       6.944  27.690  55.444  1.00  0.00     0.082 C 
HETATM   14  N   UNL     1       7.592  26.672  54.984  1.00  0.00    -0.203 NA
HETATM   15  C   UNL     1       5.374  26.612  54.141  1.00  0.00     0.121 C 
HETATM   16  N   UNL     1       6.742  26.068  54.126  1.00  0.00    -0.207 NA
HETATM   17  C   UNL     1       9.841  30.466  58.332  1.00  0.00     0.031 A 
HETATM   18  C   UNL     1       9.580  31.402  59.335  1.00  0.00     0.009 A 
HETATM   19  H   UNL     1       6.776  25.049  54.152  1.00  0.00     0.149 HD
ENDROOT
BRANCH  15  20
HETATM   20  C   UNL     1       4.941  26.817  52.699  1.00  0.00    -0.038 A 
HETATM   21  C   UNL     1       4.433  28.050  52.253  1.00  0.00     0.011 A 
HETATM   22  C   UNL     1       4.181  28.278  50.899  1.00  0.00     0.037 A 
HETATM   23  C   UNL     1       4.474  27.293  49.963  1.00  0.00     0.068 A 
HETATM   24  C   UNL     1       4.947  26.052  50.383  1.00  0.00     0.037 A 
HETATM   25  C   UNL     1       5.183  25.815  51.744  1.00  0.00     0.011 A 
BRANCH  23  26
HETATM   26  O   UNL     1       4.253  27.610  48.651  1.00  0.00    -0.356 OA
HETATM   27  C   UNL     1       4.354  26.476  47.790  1.00  0.00     0.210 C 
ENDBRANCH  23  26
ENDBRANCH  15  20
TORSDOF 2
ENDMDL
MODEL 8
REMARK VINA RESULT:      -8.4      4.231      5.045
REMARK  2 active torsions:
REMARK  status: ('A' for Active; 'I' for Inactive)
REMARK    1  A    between atoms: C_15  and  C_16 
REMARK    2  A    between atoms: C_19  and  O_20 
ROOT
HETATM    1  C   UNL     1       8.367  20.359  56.223  1.00  0.00     0.048 C 
HETATM    2  C   UNL     1       8.147  21.835  56.068  1.00  0.00    -0.061 A 
HETATM    3  C   UNL     1       7.680  22.360  54.848  1.00  0.00     0.021 A 
HETATM    4  C   UNL     1       7.468  23.747  54.714  1.00  0.00    -0.000 A 
HETATM    5  C   UNL     1       7.733  24.568  55.818  1.00  0.00     0.043 A 
HETATM    6  N   UNL     1       7.491  25.867  55.434  1.00  0.00    -0.353 N 
HETATM    7  H   UNL     1       7.605  26.685  56.018  1.00  0.00     0.166 HD
HETATM    8  C   UNL     1       7.022  25.882  54.158  1.00  0.00     0.066 A 
HETATM    9  C   UNL     1       7.009  24.592  53.665  1.00  0.00    -0.017 A 
HETATM   10  C   UNL     1       6.555  24.287  52.264  1.00  0.00     0.043 C 
HETATM   11  C   UNL     1       6.431  25.581  51.401  1.00  0.00     0.018 C 
HETATM   12  C   UNL     1       5.749  26.721  52.189  1.00  0.00     0.065 C 
HETATM   13  C   UNL     1       6.614  27.002  53.385  1.00  0.00     0.082 C 
HETATM   14  N   UNL     1       6.999  28.219  53.576  1.00  0.00    -0.203 NA
HETATM   15  C   UNL     1       5.745  28.120  51.563  1.00  0.00     0.121 C 
HETATM   16  N   UNL     1       6.420  28.935  52.588  1.00  0.00    -0.207 NA
HETATM   17  C   UNL     1       8.162  24.067  57.050  1.00  0.00     0.031 A 
HETATM   18  C   UNL     1       8.358  22.688  57.157  1.00  0.00     0.009 A 
HETATM   19  H   UNL     1       7.013  29.668  52.200  1.00  0.00     0.149 HD
ENDROOT
BRANCH  15  20
HETATM   20  C   UNL     1       4.378  28.735  51.309  1.00  0.00    -0.038 A 
HETATM   21  C   UNL     1       3.950  29.883  51.999  1.00  0.00     0.011 A 
HETATM   22  C   UNL     1       2.761  30.528  51.655  1.00  0.00     0.037 A 
HETATM   23  C   UNL     1       2.004  30.063  50.586  1.00  0.00     0.068 A 
HETATM   24  C   UNL     1       2.390  28.910  49.908  1.00  0.00     0.037 A 
HETATM   25  C   UNL     1       3.574  28.250  50.264  1.00  0.00     0.011 A 
BRANCH  23  26
HETATM   26  O   UNL     1       0.882  30.781  50.273  1.00  0.00    -0.356 OA
HETATM   27  C   UNL     1       0.907  31.278  48.935  1.00  0.00     0.210 C 
ENDBRANCH  23  26
ENDBRANCH  15  20
TORSDOF 2
ENDMDL
MODEL 9
REMARK VINA RESULT:      -8.4     11.262     14.572
REMARK  2 active torsions:
REMARK  status: ('A' for Active; 'I' for Inactive)
REMARK    1  A    between atoms: C_15  and  C_16 
REMARK    2  A    between atoms: C_19  and  O_20 
ROOT
HETATM    1  C   UNL     1       4.128  35.106  59.648  1.00  0.00     0.048 C 
HETATM    2  C   UNL     1       3.805  34.944  61.104  1.00  0.00    -0.061 A 
HETATM    3  C   UNL     1       4.833  34.712  62.038  1.00  0.00     0.021 A 
HETATM    4  C   UNL     1       4.521  34.569  63.405  1.00  0.00    -0.000 A 
HETATM    5  C   UNL     1       3.178  34.666  63.794  1.00  0.00     0.043 A 
HETATM    6  N   UNL     1       3.125  34.456  65.153  1.00  0.00    -0.353 N 
HETATM    7  H   UNL     1       2.285  34.456  65.717  1.00  0.00     0.166 HD
HETATM    8  C   UNL     1       4.386  34.300  65.636  1.00  0.00     0.066 A 
HETATM    9  C   UNL     1       5.283  34.345  64.587  1.00  0.00    -0.017 A 
HETATM   10  C   UNL     1       6.762  34.183  64.805  1.00  0.00     0.043 C 
HETATM   11  C   UNL     1       7.082  33.659  66.239  1.00  0.00     0.018 C 
HETATM   12  C   UNL     1       6.232  34.383  67.306  1.00  0.00     0.065 C 
HETATM   13  C   UNL     1       4.792  34.100  66.983  1.00  0.00     0.082 C 
HETATM   14  N   UNL     1       4.051  33.611  67.920  1.00  0.00    -0.203 NA
HETATM   15  C   UNL     1       6.267  33.838  68.739  1.00  0.00     0.121 C 
HETATM   16  N   UNL     1       4.849  33.542  69.007  1.00  0.00    -0.207 NA
HETATM   17  C   UNL     1       2.145  34.931  62.891  1.00  0.00     0.031 A 
HETATM   18  C   UNL     1       2.483  35.074  61.543  1.00  0.00     0.009 A 
HETATM   19  H   UNL     1       4.708  32.709  69.577  1.00  0.00     0.149 HD
ENDROOT
BRANCH  15  20
HETATM   20  C   UNL     1       6.748  34.805  69.809  1.00  0.00    -0.038 A 
HETATM   21  C   UNL     1       7.574  35.898  69.494  1.00  0.00     0.011 A 
HETATM   22  C   UNL     1       7.888  36.864  70.452  1.00  0.00     0.037 A 
HETATM   23  C   UNL     1       7.343  36.777  71.728  1.00  0.00     0.068 A 
HETATM   24  C   UNL     1       6.548  35.687  72.074  1.00  0.00     0.037 A 
HETATM   25  C   UNL     1       6.248  34.707  71.118  1.00  0.00     0.011 A 
BRANCH  23  26
HETATM   26  O   UNL     1       7.650  37.790  72.594  1.00  0.00    -0.356 OA
HETATM   27  C   UNL     1       8.362  38.854  71.961  1.00  0.00     0.210 C 
ENDBRANCH  23  26
ENDBRANCH  15  20
TORSDOF 2
ENDMDL
MODEL 10
REMARK VINA RESULT:      -8.1      6.047      8.004
REMARK  2 active torsions:
REMARK  status: ('A' for Active; 'I' for Inactive)
REMARK    1  A    between atoms: C_15  and  C_16 
REMARK    2  A    between atoms: C_19  and  O_20 
ROOT
HETATM    1  C   UNL     1       7.791  25.532  58.093  1.00  0.00     0.048 C 
HETATM    2  C   UNL     1       7.391  26.488  57.007  1.00  0.00    -0.061 A 
HETATM    3  C   UNL     1       7.120  26.015  55.709  1.00  0.00     0.021 A 
HETATM    4  C   UNL     1       6.737  26.920  54.698  1.00  0.00    -0.000 A 
HETATM    5  C   UNL     1       6.635  28.278  55.025  1.00  0.00     0.043 A 
HETATM    6  N   UNL     1       6.288  28.955  53.878  1.00  0.00    -0.353 N 
HETATM    7  H   UNL     1       6.152  29.954  53.802  1.00  0.00     0.166 HD
HETATM    8  C   UNL     1       6.105  28.066  52.867  1.00  0.00     0.066 A 
HETATM    9  C   UNL     1       6.389  26.794  53.323  1.00  0.00    -0.017 A 
HETATM   10  C   UNL     1       6.294  25.592  52.423  1.00  0.00     0.043 C 
HETATM   11  C   UNL     1       6.163  26.001  50.923  1.00  0.00     0.018 C 
HETATM   12  C   UNL     1       5.167  27.167  50.741  1.00  0.00     0.065 C 
HETATM   13  C   UNL     1       5.707  28.328  51.528  1.00  0.00     0.082 C 
HETATM   14  N   UNL     1       5.856  29.454  50.913  1.00  0.00    -0.203 NA
HETATM   15  C   UNL     1       5.087  27.831  49.361  1.00  0.00     0.121 C 
HETATM   16  N   UNL     1       5.399  29.239  49.661  1.00  0.00    -0.207 NA
HETATM   17  C   UNL     1       6.863  28.766  56.315  1.00  0.00     0.031 A 
HETATM   18  C   UNL     1       7.236  27.848  57.299  1.00  0.00     0.009 A 
HETATM   19  H   UNL     1       5.945  29.698  48.932  1.00  0.00     0.149 HD
ENDROOT
BRANCH  15  20
HETATM   20  C   UNL     1       3.729  27.793  48.680  1.00  0.00    -0.038 A 
HETATM   21  C   UNL     1       3.410  26.803  47.733  1.00  0.00     0.011 A 
HETATM   22  C   UNL     1       2.115  26.683  47.225  1.00  0.00     0.037 A 
HETATM   23  C   UNL     1       1.108  27.521  47.688  1.00  0.00     0.068 A 
HETATM   24  C   UNL     1       1.406  28.530  48.601  1.00  0.00     0.037 A 
HETATM   25  C   UNL     1       2.710  28.663  49.098  1.00  0.00     0.011 A 
BRANCH  23  26
HETATM   26  O   UNL     1      -0.146  27.306  47.186  1.00  0.00    -0.356 OA
HETATM   27  C   UNL     1      -0.269  27.722  45.827  1.00  0.00     0.210 C 
ENDBRANCH  23  26
ENDBRANCH  15  20
TORSDOF 2
ENDMDL
