MODEL 1
REMARK VINA RESULT:      -9.1      0.000      0.000
REMARK  4 active torsions:
REMARK  status: ('A' for Active; 'I' for Inactive)
REMARK    1  A    between atoms: C_3  and  N_4 
REMARK    2  A    between atoms: N_4  and  C_5 
REMARK    3  A    between atoms: C_5  and  C_6 
REMARK    4  A    between atoms: C_14  and  C_15 
ROOT
HETATM    1  C   UNL     1       5.733  26.925  51.648  1.00  0.00     0.006 A 
HETATM    2  C   UNL     1       6.074  27.962  52.512  1.00  0.00     0.048 A 
HETATM    3  C   UNL     1       6.838  27.710  53.662  1.00  0.00     0.101 A 
HETATM    4  N   UNL     1       7.174  26.435  53.919  1.00  0.00    -0.342 N 
HETATM    5  H   UNL     1       7.691  26.228  54.764  1.00  0.00     0.167 HD
HETATM    6  C   UNL     1       6.857  25.400  53.119  1.00  0.00     0.044 A 
HETATM    7  C   UNL     1       6.134  25.632  51.950  1.00  0.00     0.030 A 
ENDROOT
BRANCH   6   8
HETATM    8  C   UNL     1       7.343  24.095  53.561  1.00  0.00    -0.007 A 
HETATM    9  C   UNL     1       7.558  23.840  54.928  1.00  0.00     0.053 A 
HETATM   10  C   UNL     1       8.021  22.597  55.364  1.00  0.00     0.103 A 
HETATM   11  C   UNL     1       8.303  21.592  54.441  1.00  0.00     0.102 A 
HETATM   12  O   UNL     1       8.184  22.446  56.716  1.00  0.00    -0.346 OA
HETATM   13  O   UNL     1       8.794  20.365  54.794  1.00  0.00    -0.346 OA
HETATM   14  C   UNL     1       8.083  21.817  53.085  1.00  0.00     0.040 A 
HETATM   15  C   UNL     1       9.327  20.379  56.126  1.00  0.00     0.202 C 
HETATM   16  C   UNL     1       8.366  21.071  57.080  1.00  0.00     0.202 C 
HETATM   17  C   UNL     1       7.613  23.059  52.646  1.00  0.00     0.016 A 
ENDBRANCH   6   8
BRANCH   3  18
HETATM   18  N   UNL     1       7.105  28.752  54.541  1.00  0.00    -0.372 N 
HETATM   19  H   UNL     1       7.840  29.363  54.175  1.00  0.00     0.161 HD
BRANCH  18  20
HETATM   20  C   UNL     1       7.232  28.601  55.990  1.00  0.00     0.162 C 
BRANCH  20  21
HETATM   21  C   UNL     1       8.428  29.312  56.536  1.00  0.00    -0.005 A 
HETATM   22  C   UNL     1       9.601  29.423  55.815  1.00  0.00     0.128 A 
HETATM   23  N   UNL     1      10.713  30.010  56.289  1.00  0.00    -0.254 NA
HETATM   24  C   UNL     1      10.618  30.569  57.504  1.00  0.00     0.232 A 
HETATM   25  N   UNL     1       9.529  30.543  58.282  1.00  0.00    -0.254 NA
HETATM   26  C   UNL     1       8.443  29.938  57.768  1.00  0.00     0.128 A 
ENDBRANCH  20  21
ENDBRANCH  18  20
ENDBRANCH   3  18
TORSDOF 4
ENDMDL
MODEL 2
REMARK VINA RESULT:      -9.1      1.408      1.793
REMARK  4 active torsions:
REMARK  status: ('A' for Active; 'I' for Inactive)
REMARK    1  A    between atoms: C_3  and  N_4 
REMARK    2  A    between atoms: N_4  and  C_5 
REMARK    3  A    between atoms: C_5  and  C_6 
REMARK    4  A    between atoms: C_14  and  C_15 
ROOT
HETATM    1  C   UNL     1       5.091  27.875  54.441  1.00  0.00     0.006 A 
HETATM    2  C   UNL     1       6.097  28.700  54.937  1.00  0.00     0.048 A 
HETATM    3  C   UNL     1       7.384  28.191  55.174  1.00  0.00     0.101 A 
HETATM    4  N   UNL     1       7.585  26.881  54.959  1.00  0.00    -0.342 N 
HETATM    5  H   UNL     1       8.495  26.487  55.163  1.00  0.00     0.167 HD
HETATM    6  C   UNL     1       6.639  26.044  54.492  1.00  0.00     0.044 A 
HETATM    7  C   UNL     1       5.366  26.535  54.208  1.00  0.00     0.030 A 
ENDROOT
BRANCH   6   8
HETATM    8  C   UNL     1       7.069  24.660  54.297  1.00  0.00    -0.007 A 
HETATM    9  C   UNL     1       7.267  23.813  55.402  1.00  0.00     0.053 A 
HETATM   10  C   UNL     1       7.675  22.489  55.229  1.00  0.00     0.103 A 
HETATM   11  C   UNL     1       7.919  21.993  53.950  1.00  0.00     0.102 A 
HETATM   12  O   UNL     1       7.826  21.743  56.369  1.00  0.00    -0.346 OA
HETATM   13  O   UNL     1       8.357  20.719  53.711  1.00  0.00    -0.346 OA
HETATM   14  C   UNL     1       7.714  22.808  52.841  1.00  0.00     0.040 A 
HETATM   15  C   UNL     1       8.884  20.114  54.900  1.00  0.00     0.202 C 
HETATM   16  C   UNL     1       7.949  20.344  56.076  1.00  0.00     0.202 C 
HETATM   17  C   UNL     1       7.299  24.134  53.010  1.00  0.00     0.016 A 
ENDBRANCH   6   8
BRANCH   3  18
HETATM   18  N   UNL     1       8.348  29.020  55.734  1.00  0.00    -0.372 N 
HETATM   19  H   UNL     1       8.970  29.399  55.014  1.00  0.00     0.161 HD
BRANCH  18  20
HETATM   20  C   UNL     1       9.095  28.716  56.954  1.00  0.00     0.162 C 
BRANCH  20  21
HETATM   21  C   UNL     1       9.175  29.885  57.881  1.00  0.00    -0.005 A 
HETATM   22  C   UNL     1      10.087  30.904  57.690  1.00  0.00     0.128 A 
HETATM   23  N   UNL     1      10.224  31.947  58.527  1.00  0.00    -0.254 NA
HETATM   24  C   UNL     1       9.363  32.002  59.554  1.00  0.00     0.232 A 
HETATM   25  N   UNL     1       8.426  31.085  59.825  1.00  0.00    -0.254 NA
HETATM   26  C   UNL     1       8.331  30.057  58.962  1.00  0.00     0.128 A 
ENDBRANCH  20  21
ENDBRANCH  18  20
ENDBRANCH   3  18
TORSDOF 4
ENDMDL
MODEL 3
REMARK VINA RESULT:      -8.8      3.172      6.316
REMARK  4 active torsions:
REMARK  status: ('A' for Active; 'I' for Inactive)
REMARK    1  A    between atoms: C_3  and  N_4 
REMARK    2  A    between atoms: N_4  and  C_5 
REMARK    3  A    between atoms: C_5  and  C_6 
REMARK    4  A    between atoms: C_14  and  C_15 
ROOT
HETATM    1  C   UNL     1       6.979  28.095  53.787  1.00  0.00     0.006 A 
HETATM    2  C   UNL     1       6.006  28.174  52.794  1.00  0.00     0.048 A 
HETATM    3  C   UNL     1       5.497  27.009  52.200  1.00  0.00     0.101 A 
HETATM    4  N   UNL     1       6.022  25.834  52.584  1.00  0.00    -0.342 N 
HETATM    5  H   UNL     1       5.697  24.985  52.139  1.00  0.00     0.167 HD
HETATM    6  C   UNL     1       6.971  25.710  53.531  1.00  0.00     0.044 A 
HETATM    7  C   UNL     1       7.462  26.850  54.165  1.00  0.00     0.030 A 
ENDROOT
BRANCH   6   8
HETATM    8  C   UNL     1       7.387  24.340  53.826  1.00  0.00    -0.007 A 
HETATM    9  C   UNL     1       7.672  23.951  55.147  1.00  0.00     0.053 A 
HETATM   10  C   UNL     1       8.067  22.645  55.443  1.00  0.00     0.103 A 
HETATM   11  C   UNL     1       8.210  21.709  54.421  1.00  0.00     0.102 A 
HETATM   12  O   UNL     1       8.308  22.364  56.762  1.00  0.00    -0.346 OA
HETATM   13  O   UNL     1       8.630  20.424  54.634  1.00  0.00    -0.346 OA
HETATM   14  C   UNL     1       7.918  22.067  53.108  1.00  0.00     0.040 A 
HETATM   15  C   UNL     1       9.250  20.282  55.920  1.00  0.00     0.202 C 
HETATM   16  C   UNL     1       8.409  20.952  56.995  1.00  0.00     0.202 C 
HETATM   17  C   UNL     1       7.516  23.373  52.809  1.00  0.00     0.016 A 
ENDBRANCH   6   8
BRANCH   3  18
HETATM   18  N   UNL     1       4.577  27.121  51.165  1.00  0.00    -0.372 N 
HETATM   19  H   UNL     1       3.992  26.284  51.101  1.00  0.00     0.161 HD
BRANCH  18  20
HETATM   20  C   UNL     1       4.888  27.637  49.832  1.00  0.00     0.162 C 
BRANCH  20  21
HETATM   21  C   UNL     1       3.885  27.216  48.808  1.00  0.00    -0.005 A 
HETATM   22  C   UNL     1       2.598  27.717  48.801  1.00  0.00     0.128 A 
HETATM   23  N   UNL     1       1.653  27.328  47.928  1.00  0.00    -0.254 NA
HETATM   24  C   UNL     1       2.038  26.457  46.984  1.00  0.00     0.232 A 
HETATM   25  N   UNL     1       3.261  25.923  46.880  1.00  0.00    -0.254 NA
HETATM   26  C   UNL     1       4.172  26.338  47.780  1.00  0.00     0.128 A 
ENDBRANCH  20  21
ENDBRANCH  18  20
ENDBRANCH   3  18
TORSDOF 4
ENDMDL
MODEL 4
REMARK VINA RESULT:      -8.8      1.635      2.364
REMARK  4 active torsions:
REMARK  status: ('A' for Active; 'I' for Inactive)
REMARK    1  A    between atoms: C_3  and  N_4 
REMARK    2  A    between atoms: N_4  and  C_5 
REMARK    3  A    between atoms: C_5  and  C_6 
REMARK    4  A    between atoms: C_14  and  C_15 
ROOT
HETATM    1  C   UNL     1       5.073  27.554  54.229  1.00  0.00     0.006 A 
HETATM    2  C   UNL     1       5.859  28.595  54.716  1.00  0.00     0.048 A 
HETATM    3  C   UNL     1       7.140  28.340  55.230  1.00  0.00     0.101 A 
HETATM    4  N   UNL     1       7.546  27.062  55.284  1.00  0.00    -0.342 N 
HETATM    5  H   UNL     1       8.451  26.854  55.689  1.00  0.00     0.167 HD
HETATM    6  C   UNL     1       6.816  26.023  54.836  1.00  0.00     0.044 A 
HETATM    7  C   UNL     1       5.558  26.256  54.282  1.00  0.00     0.030 A 
ENDROOT
BRANCH   6   8
HETATM    8  C   UNL     1       7.452  24.712  54.957  1.00  0.00    -0.007 A 
HETATM    9  C   UNL     1       7.307  23.754  53.938  1.00  0.00     0.053 A 
HETATM   10  C   UNL     1       7.911  22.499  54.039  1.00  0.00     0.103 A 
HETATM   11  C   UNL     1       8.650  22.168  55.173  1.00  0.00     0.102 A 
HETATM   12  O   UNL     1       7.721  21.643  52.987  1.00  0.00    -0.346 OA
HETATM   13  O   UNL     1       9.236  20.945  55.356  1.00  0.00    -0.346 OA
HETATM   14  C   UNL     1       8.819  23.106  56.187  1.00  0.00     0.040 A 
HETATM   15  C   UNL     1       8.693  19.965  54.460  1.00  0.00     0.202 C 
HETATM   16  C   UNL     1       8.612  20.520  53.047  1.00  0.00     0.202 C 
HETATM   17  C   UNL     1       8.221  24.367  56.085  1.00  0.00     0.016 A 
ENDBRANCH   6   8
BRANCH   3  18
HETATM   18  N   UNL     1       7.874  29.388  55.772  1.00  0.00    -0.372 N 
HETATM   19  H   UNL     1       7.908  30.184  55.130  1.00  0.00     0.161 HD
BRANCH  18  20
HETATM   20  C   UNL     1       9.150  29.232  56.469  1.00  0.00     0.162 C 
BRANCH  20  21
HETATM   21  C   UNL     1       9.261  30.122  57.664  1.00  0.00    -0.005 A 
HETATM   22  C   UNL     1      10.170  31.161  57.716  1.00  0.00     0.128 A 
HETATM   23  N   UNL     1      10.335  31.953  58.789  1.00  0.00    -0.254 NA
HETATM   24  C   UNL     1       9.506  31.736  59.821  1.00  0.00     0.232 A 
HETATM   25  N   UNL     1       8.576  30.775  59.874  1.00  0.00    -0.254 NA
HETATM   26  C   UNL     1       8.452  30.004  58.778  1.00  0.00     0.128 A 
ENDBRANCH  20  21
ENDBRANCH  18  20
ENDBRANCH   3  18
TORSDOF 4
ENDMDL
MODEL 5
REMARK VINA RESULT:      -8.8      4.593      7.547
REMARK  4 active torsions:
REMARK  status: ('A' for Active; 'I' for Inactive)
REMARK    1  A    between atoms: C_3  and  N_4 
REMARK    2  A    between atoms: N_4  and  C_5 
REMARK    3  A    between atoms: C_5  and  C_6 
REMARK    4  A    between atoms: C_14  and  C_15 
ROOT
HETATM    1  C   UNL     1       9.910  31.563  58.919  1.00  0.00     0.006 A 
HETATM    2  C   UNL     1       9.467  31.703  60.232  1.00  0.00     0.048 A 
HETATM    3  C   UNL     1       8.433  30.893  60.725  1.00  0.00     0.101 A 
HETATM    4  N   UNL     1       7.859  30.027  59.873  1.00  0.00    -0.342 N 
HETATM    5  H   UNL     1       7.086  29.462  60.199  1.00  0.00     0.167 HD
HETATM    6  C   UNL     1       8.247  29.866  58.594  1.00  0.00     0.044 A 
HETATM    7  C   UNL     1       9.300  30.630  58.093  1.00  0.00     0.030 A 
ENDROOT
BRANCH   6   8
HETATM    8  C   UNL     1       7.515  28.849  57.842  1.00  0.00    -0.007 A 
HETATM    9  C   UNL     1       8.135  27.636  57.493  1.00  0.00     0.053 A 
HETATM   10  C   UNL     1       7.446  26.655  56.776  1.00  0.00     0.103 A 
HETATM   11  C   UNL     1       6.132  26.878  56.371  1.00  0.00     0.102 A 
HETATM   12  O   UNL     1       8.136  25.505  56.498  1.00  0.00    -0.346 OA
HETATM   13  O   UNL     1       5.411  25.978  55.635  1.00  0.00    -0.346 OA
HETATM   14  C   UNL     1       5.493  28.065  56.719  1.00  0.00     0.040 A 
HETATM   15  C   UNL     1       6.263  24.998  55.027  1.00  0.00     0.202 C 
HETATM   16  C   UNL     1       7.266  24.461  56.036  1.00  0.00     0.202 C 
HETATM   17  C   UNL     1       6.178  29.046  57.443  1.00  0.00     0.016 A 
ENDBRANCH   6   8
BRANCH   3  18
HETATM   18  N   UNL     1       7.964  31.101  62.016  1.00  0.00    -0.372 N 
HETATM   19  H   UNL     1       6.968  30.878  62.087  1.00  0.00     0.161 HD
BRANCH  18  20
HETATM   20  C   UNL     1       8.293  32.265  62.839  1.00  0.00     0.162 C 
BRANCH  20  21
HETATM   21  C   UNL     1       7.146  32.706  63.690  1.00  0.00    -0.005 A 
HETATM   22  C   UNL     1       7.329  33.511  64.797  1.00  0.00     0.128 A 
HETATM   23  N   UNL     1       6.332  33.889  65.616  1.00  0.00    -0.254 NA
HETATM   24  C   UNL     1       5.097  33.501  65.266  1.00  0.00     0.232 A 
HETATM   25  N   UNL     1       4.799  32.741  64.205  1.00  0.00    -0.254 NA
HETATM   26  C   UNL     1       5.831  32.382  63.419  1.00  0.00     0.128 A 
ENDBRANCH  20  21
ENDBRANCH  18  20
ENDBRANCH   3  18
TORSDOF 4
ENDMDL
MODEL 6
REMARK VINA RESULT:      -8.2      3.577      7.405
REMARK  4 active torsions:
REMARK  status: ('A' for Active; 'I' for Inactive)
REMARK    1  A    between atoms: C_3  and  N_4 
REMARK    2  A    between atoms: N_4  and  C_5 
REMARK    3  A    between atoms: C_5  and  C_6 
REMARK    4  A    between atoms: C_14  and  C_15 
ROOT
HETATM    1  C   UNL     1       4.512  26.972  52.813  1.00  0.00     0.006 A 
HETATM    2  C   UNL     1       4.973  25.675  52.603  1.00  0.00     0.048 A 
HETATM    3  C   UNL     1       5.911  25.103  53.476  1.00  0.00     0.101 A 
HETATM    4  N   UNL     1       6.380  25.867  54.475  1.00  0.00    -0.342 N 
HETATM    5  H   UNL     1       7.086  25.486  55.092  1.00  0.00     0.167 HD
HETATM    6  C   UNL     1       5.971  27.128  54.709  1.00  0.00     0.044 A 
HETATM    7  C   UNL     1       5.009  27.704  53.881  1.00  0.00     0.030 A 
ENDROOT
BRANCH   6   8
HETATM    8  C   UNL     1       6.580  27.780  55.867  1.00  0.00    -0.007 A 
HETATM    9  C   UNL     1       6.234  29.099  56.207  1.00  0.00     0.053 A 
HETATM   10  C   UNL     1       6.807  29.733  57.312  1.00  0.00     0.103 A 
HETATM   11  C   UNL     1       7.758  29.068  58.084  1.00  0.00     0.102 A 
HETATM   12  O   UNL     1       6.391  31.013  57.566  1.00  0.00    -0.346 OA
HETATM   13  O   UNL     1       8.387  29.640  59.156  1.00  0.00    -0.346 OA
HETATM   14  C   UNL     1       8.105  27.756  57.775  1.00  0.00     0.040 A 
HETATM   15  C   UNL     1       8.243  31.067  59.147  1.00  0.00     0.202 C 
HETATM   16  C   UNL     1       6.799  31.457  58.868  1.00  0.00     0.202 C 
HETATM   17  C   UNL     1       7.527  27.117  56.673  1.00  0.00     0.016 A 
ENDBRANCH   6   8
BRANCH   3  18
HETATM   18  N   UNL     1       6.405  23.833  53.203  1.00  0.00    -0.372 N 
HETATM   19  H   UNL     1       5.973  23.132  53.811  1.00  0.00     0.161 HD
BRANCH  18  20
HETATM   20  C   UNL     1       7.817  23.524  52.980  1.00  0.00     0.162 C 
BRANCH  20  21
HETATM   21  C   UNL     1       8.249  22.279  53.685  1.00  0.00    -0.005 A 
HETATM   22  C   UNL     1       8.261  21.051  53.053  1.00  0.00     0.128 A 
HETATM   23  N   UNL     1       8.594  19.902  53.665  1.00  0.00    -0.254 NA
HETATM   24  C   UNL     1       8.999  20.003  54.939  1.00  0.00     0.232 A 
HETATM   25  N   UNL     1       9.048  21.140  55.644  1.00  0.00    -0.254 NA
HETATM   26  C   UNL     1       8.699  22.263  54.991  1.00  0.00     0.128 A 
ENDBRANCH  20  21
ENDBRANCH  18  20
ENDBRANCH   3  18
TORSDOF 4
ENDMDL
MODEL 7
REMARK VINA RESULT:      -8.0      1.900      2.921
REMARK  4 active torsions:
REMARK  status: ('A' for Active; 'I' for Inactive)
REMARK    1  A    between atoms: C_3  and  N_4 
REMARK    2  A    between atoms: N_4  and  C_5 
REMARK    3  A    between atoms: C_5  and  C_6 
REMARK    4  A    between atoms: C_14  and  C_15 
ROOT
HETATM    1  C   UNL     1       5.695  26.934  51.604  1.00  0.00     0.006 A 
HETATM    2  C   UNL     1       6.039  27.980  52.456  1.00  0.00     0.048 A 
HETATM    3  C   UNL     1       6.804  27.739  53.608  1.00  0.00     0.101 A 
HETATM    4  N   UNL     1       7.137  26.467  53.880  1.00  0.00    -0.342 N 
HETATM    5  H   UNL     1       7.654  26.268  54.726  1.00  0.00     0.167 HD
HETATM    6  C   UNL     1       6.817  25.424  53.091  1.00  0.00     0.044 A 
HETATM    7  C   UNL     1       6.094  25.643  51.920  1.00  0.00     0.030 A 
ENDROOT
BRANCH   6   8
HETATM    8  C   UNL     1       7.301  24.122  53.548  1.00  0.00    -0.007 A 
HETATM    9  C   UNL     1       7.550  23.893  54.913  1.00  0.00     0.053 A 
HETATM   10  C   UNL     1       8.010  22.654  55.363  1.00  0.00     0.103 A 
HETATM   11  C   UNL     1       8.256  21.627  54.454  1.00  0.00     0.102 A 
HETATM   12  O   UNL     1       8.209  22.530  56.712  1.00  0.00    -0.346 OA
HETATM   13  O   UNL     1       8.743  20.402  54.820  1.00  0.00    -0.346 OA
HETATM   14  C   UNL     1       8.002  21.826  53.100  1.00  0.00     0.040 A 
HETATM   15  C   UNL     1       9.312  20.437  56.135  1.00  0.00     0.202 C 
HETATM   16  C   UNL     1       8.385  21.160  57.100  1.00  0.00     0.202 C 
HETATM   17  C   UNL     1       7.534  23.064  52.647  1.00  0.00     0.016 A 
ENDBRANCH   6   8
BRANCH   3  18
HETATM   18  N   UNL     1       7.073  28.790  54.476  1.00  0.00    -0.372 N 
HETATM   19  H   UNL     1       8.029  29.133  54.352  1.00  0.00     0.161 HD
BRANCH  18  20
HETATM   20  C   UNL     1       6.694  28.817  55.888  1.00  0.00     0.162 C 
BRANCH  20  21
HETATM   21  C   UNL     1       5.450  29.609  56.131  1.00  0.00    -0.005 A 
HETATM   22  C   UNL     1       4.920  29.763  57.397  1.00  0.00     0.128 A 
HETATM   23  N   UNL     1       3.779  30.425  57.651  1.00  0.00    -0.254 NA
HETATM   24  C   UNL     1       3.187  31.014  56.602  1.00  0.00     0.232 A 
HETATM   25  N   UNL     1       3.621  30.952  55.337  1.00  0.00    -0.254 NA
HETATM   26  C   UNL     1       4.765  30.273  55.131  1.00  0.00     0.128 A 
ENDBRANCH  20  21
ENDBRANCH  18  20
ENDBRANCH   3  18
TORSDOF 4
ENDMDL
MODEL 8
REMARK VINA RESULT:      -8.0      2.486      3.322
REMARK  4 active torsions:
REMARK  status: ('A' for Active; 'I' for Inactive)
REMARK    1  A    between atoms: C_3  and  N_4 
REMARK    2  A    between atoms: N_4  and  C_5 
REMARK    3  A    between atoms: C_5  and  C_6 
REMARK    4  A    between atoms: C_14  and  C_15 
ROOT
HETATM    1  C   UNL     1       4.531  27.240  53.223  1.00  0.00     0.006 A 
HETATM    2  C   UNL     1       5.002  28.367  53.892  1.00  0.00     0.048 A 
HETATM    3  C   UNL     1       6.138  28.285  54.713  1.00  0.00     0.101 A 
HETATM    4  N   UNL     1       6.708  27.079  54.869  1.00  0.00    -0.342 N 
HETATM    5  H   UNL     1       7.503  26.992  55.489  1.00  0.00     0.167 HD
HETATM    6  C   UNL     1       6.279  25.962  54.252  1.00  0.00     0.044 A 
HETATM    7  C   UNL     1       5.179  26.026  53.399  1.00  0.00     0.030 A 
ENDROOT
BRANCH   6   8
HETATM    8  C   UNL     1       7.057  24.756  54.531  1.00  0.00    -0.007 A 
HETATM    9  C   UNL     1       7.014  23.661  53.649  1.00  0.00     0.053 A 
HETATM   10  C   UNL     1       7.754  22.503  53.902  1.00  0.00     0.103 A 
HETATM   11  C   UNL     1       8.531  22.408  55.055  1.00  0.00     0.102 A 
HETATM   12  O   UNL     1       7.653  21.500  52.975  1.00  0.00    -0.346 OA
HETATM   13  O   UNL     1       9.250  21.291  55.384  1.00  0.00    -0.346 OA
HETATM   14  C   UNL     1       8.601  23.485  55.933  1.00  0.00     0.040 A 
HETATM   15  C   UNL     1       8.813  20.148  54.636  1.00  0.00     0.202 C 
HETATM   16  C   UNL     1       8.663  20.499  53.164  1.00  0.00     0.202 C 
HETATM   17  C   UNL     1       7.866  24.648  55.679  1.00  0.00     0.016 A 
ENDBRANCH   6   8
BRANCH   3  18
HETATM   18  N   UNL     1       6.545  29.409  55.421  1.00  0.00    -0.372 N 
HETATM   19  H   UNL     1       7.376  29.830  54.997  1.00  0.00     0.161 HD
BRANCH  18  20
HETATM   20  C   UNL     1       6.612  29.489  56.880  1.00  0.00     0.162 C 
BRANCH  20  21
HETATM   21  C   UNL     1       5.616  30.449  57.446  1.00  0.00    -0.005 A 
HETATM   22  C   UNL     1       6.001  31.657  57.995  1.00  0.00     0.128 A 
HETATM   23  N   UNL     1       5.143  32.526  58.557  1.00  0.00    -0.254 NA
HETATM   24  C   UNL     1       3.844  32.198  58.502  1.00  0.00     0.232 A 
HETATM   25  N   UNL     1       3.356  31.068  57.976  1.00  0.00    -0.254 NA
HETATM   26  C   UNL     1       4.253  30.227  57.430  1.00  0.00     0.128 A 
ENDBRANCH  20  21
ENDBRANCH  18  20
ENDBRANCH   3  18
TORSDOF 4
ENDMDL
MODEL 9
REMARK VINA RESULT:      -7.8      2.528      3.152
REMARK  4 active torsions:
REMARK  status: ('A' for Active; 'I' for Inactive)
REMARK    1  A    between atoms: C_3  and  N_4 
REMARK    2  A    between atoms: N_4  and  C_5 
REMARK    3  A    between atoms: C_5  and  C_6 
REMARK    4  A    between atoms: C_14  and  C_15 
ROOT
HETATM    1  C   UNL     1       5.508  26.574  50.893  1.00  0.00     0.006 A 
HETATM    2  C   UNL     1       4.652  27.398  51.620  1.00  0.00     0.048 A 
HETATM    3  C   UNL     1       4.502  27.225  53.004  1.00  0.00     0.101 A 
HETATM    4  N   UNL     1       5.166  26.211  53.582  1.00  0.00    -0.342 N 
HETATM    5  H   UNL     1       5.039  26.046  54.572  1.00  0.00     0.167 HD
HETATM    6  C   UNL     1       5.994  25.383  52.918  1.00  0.00     0.044 A 
HETATM    7  C   UNL     1       6.192  25.560  51.549  1.00  0.00     0.030 A 
ENDROOT
BRANCH   6   8
HETATM    8  C   UNL     1       6.646  24.361  53.735  1.00  0.00    -0.007 A 
HETATM    9  C   UNL     1       7.081  23.156  53.156  1.00  0.00     0.053 A 
HETATM   10  C   UNL     1       7.707  22.172  53.925  1.00  0.00     0.103 A 
HETATM   11  C   UNL     1       7.886  22.364  55.294  1.00  0.00     0.102 A 
HETATM   12  O   UNL     1       8.105  21.041  53.264  1.00  0.00    -0.346 OA
HETATM   13  O   UNL     1       8.456  21.428  56.114  1.00  0.00    -0.346 OA
HETATM   14  C   UNL     1       7.477  23.555  55.886  1.00  0.00     0.040 A 
HETATM   15  C   UNL     1       8.485  20.136  55.492  1.00  0.00     0.202 C 
HETATM   16  C   UNL     1       8.990  20.242  54.061  1.00  0.00     0.202 C 
HETATM   17  C   UNL     1       6.856  24.545  55.116  1.00  0.00     0.016 A 
ENDBRANCH   6   8
BRANCH   3  18
HETATM   18  N   UNL     1       3.590  28.017  53.691  1.00  0.00    -0.372 N 
HETATM   19  H   UNL     1       2.631  27.810  53.401  1.00  0.00     0.161 HD
BRANCH  18  20
HETATM   20  C   UNL     1       3.757  29.449  53.939  1.00  0.00     0.162 C 
BRANCH  20  21
HETATM   21  C   UNL     1       4.454  29.728  55.232  1.00  0.00    -0.005 A 
HETATM   22  C   UNL     1       4.644  28.744  56.183  1.00  0.00     0.128 A 
HETATM   23  N   UNL     1       5.222  28.965  57.376  1.00  0.00    -0.254 NA
HETATM   24  C   UNL     1       5.687  30.204  57.591  1.00  0.00     0.232 A 
HETATM   25  N   UNL     1       5.578  31.228  56.735  1.00  0.00    -0.254 NA
HETATM   26  C   UNL     1       4.988  30.960  55.556  1.00  0.00     0.128 A 
ENDBRANCH  20  21
ENDBRANCH  18  20
ENDBRANCH   3  18
TORSDOF 4
ENDMDL
MODEL 10
REMARK VINA RESULT:      -7.8      3.709      8.239
REMARK  4 active torsions:
REMARK  status: ('A' for Active; 'I' for Inactive)
REMARK    1  A    between atoms: C_3  and  N_4 
REMARK    2  A    between atoms: N_4  and  C_5 
REMARK    3  A    between atoms: C_5  and  C_6 
REMARK    4  A    between atoms: C_14  and  C_15 
ROOT
HETATM    1  C   UNL     1       6.887  27.720  53.906  1.00  0.00     0.006 A 
HETATM    2  C   UNL     1       7.271  26.446  54.318  1.00  0.00     0.048 A 
HETATM    3  C   UNL     1       7.581  26.196  55.664  1.00  0.00     0.101 A 
HETATM    4  N   UNL     1       7.547  27.234  56.515  1.00  0.00    -0.342 N 
HETATM    5  H   UNL     1       7.806  27.081  57.481  1.00  0.00     0.167 HD
HETATM    6  C   UNL     1       7.193  28.483  56.159  1.00  0.00     0.044 A 
HETATM    7  C   UNL     1       6.840  28.748  54.837  1.00  0.00     0.030 A 
ENDROOT
BRANCH   6   8
HETATM    8  C   UNL     1       7.189  29.465  57.242  1.00  0.00    -0.007 A 
HETATM    9  C   UNL     1       8.105  29.358  58.304  1.00  0.00     0.053 A 
HETATM   10  C   UNL     1       8.115  30.290  59.344  1.00  0.00     0.103 A 
HETATM   11  C   UNL     1       7.191  31.333  59.356  1.00  0.00     0.102 A 
HETATM   12  O   UNL     1       9.055  30.105  60.322  1.00  0.00    -0.346 OA
HETATM   13  O   UNL     1       7.118  32.259  60.361  1.00  0.00    -0.346 OA
HETATM   14  C   UNL     1       6.285  31.467  58.308  1.00  0.00     0.040 A 
HETATM   15  C   UNL     1       7.814  31.814  61.533  1.00  0.00     0.202 C 
HETATM   16  C   UNL     1       9.181  31.259  61.165  1.00  0.00     0.202 C 
HETATM   17  C   UNL     1       6.278  30.539  57.261  1.00  0.00     0.016 A 
ENDBRANCH   6   8
BRANCH   3  18
HETATM   18  N   UNL     1       8.027  24.933  56.033  1.00  0.00    -0.372 N 
HETATM   19  H   UNL     1       8.883  24.683  55.531  1.00  0.00     0.161 HD
BRANCH  18  20
HETATM   20  C   UNL     1       7.164  23.763  56.195  1.00  0.00     0.162 C 
BRANCH  20  21
HETATM   21  C   UNL     1       7.497  22.669  55.233  1.00  0.00    -0.005 A 
HETATM   22  C   UNL     1       7.769  21.384  55.659  1.00  0.00     0.128 A 
HETATM   23  N   UNL     1       8.121  20.384  54.832  1.00  0.00    -0.254 NA
HETATM   24  C   UNL     1       8.130  20.672  53.522  1.00  0.00     0.232 A 
HETATM   25  N   UNL     1       7.863  21.873  52.995  1.00  0.00    -0.254 NA
HETATM   26  C   UNL     1       7.522  22.843  53.862  1.00  0.00     0.128 A 
ENDBRANCH  20  21
ENDBRANCH  18  20
ENDBRANCH   3  18
TORSDOF 4
ENDMDL
