MODEL 1
REMARK VINA RESULT:     -11.6      0.000      0.000
REMARK  5 active torsions:
REMARK  status: ('A' for Active; 'I' for Inactive)
REMARK    1  A    between atoms: C_4  and  O_5 
REMARK    2  A    between atoms: O_5  and  C_6 
REMARK    3  A    between atoms: C_6  and  C_7 
REMARK       I    between atoms: C_7  and  N_8 
REMARK    4  A    between atoms: N_8  and  C_9 
REMARK    5  A    between atoms: C_11  and  C_12 
ROOT
HETATM    1  C   UNL     1       8.371  28.668  57.446  1.00  0.00     0.035 A 
HETATM    2  C   UNL     1       7.888  29.452  58.498  1.00  0.00     0.045 A 
HETATM    3  C   UNL     1       8.621  30.549  58.983  1.00  0.00     0.019 A 
HETATM    4  C   UNL     1       9.871  30.829  58.414  1.00  0.00     0.016 A 
HETATM    5  C   UNL     1      10.365  30.051  57.367  1.00  0.00     0.003 A 
HETATM    6  C   UNL     1       9.611  28.984  56.878  1.00  0.00     0.029 A 
ENDROOT
BRANCH   1   7
HETATM    7  N   UNL     1       7.666  27.581  56.893  1.00  0.00    -0.325 N 
HETATM    8  C   UNL     1       7.447  26.338  57.463  1.00  0.00     0.251 C 
HETATM    9  O   UNL     1       7.905  25.938  58.529  1.00  0.00    -0.270 OA
HETATM   10  H   UNL     1       7.250  27.726  55.978  1.00  0.00     0.169 HD
BRANCH   8  11
HETATM   11  C   UNL     1       6.571  25.417  56.597  1.00  0.00     0.217 C 
HETATM   12  C   UNL     1       5.146  25.404  57.140  1.00  0.00     0.050 C 
BRANCH  11  13
HETATM   13  O   UNL     1       7.047  24.066  56.619  1.00  0.00    -0.337 OA
BRANCH  13  14
HETATM   14  C   UNL     1       7.363  23.574  55.379  1.00  0.00     0.070 A 
HETATM   15  C   UNL     1       7.660  22.232  55.136  1.00  0.00     0.043 A 
HETATM   16  C   UNL     1       7.965  21.801  53.838  1.00  0.00    -0.059 A 
HETATM   17  C   UNL     1       8.281  20.361  53.560  1.00  0.00     0.048 C 
HETATM   18  C   UNL     1       7.949  22.729  52.787  1.00  0.00     0.013 A 
HETATM   19  C   UNL     1       7.633  24.075  53.021  1.00  0.00    -0.059 A 
HETATM   20  C   UNL     1       7.321  24.484  54.323  1.00  0.00     0.043 A 
HETATM   21  C   UNL     1       7.599  25.046  51.879  1.00  0.00     0.048 C 
ENDBRANCH  13  14
ENDBRANCH  11  13
ENDBRANCH   8  11
ENDBRANCH   1   7
BRANCH   3  22
HETATM   22  C   UNL     1       8.101  31.417  60.039  1.00  0.00     0.181 A 
HETATM   23  O   UNL     1       8.668  31.279  61.282  1.00  0.00    -0.289 OA
HETATM   24  C   UNL     1       7.968  32.148  62.065  1.00  0.00     0.106 A 
HETATM   25  C   UNL     1       7.023  32.769  61.266  1.00  0.00     0.093 A 
HETATM   26  C   UNL     1       8.140  32.384  63.423  1.00  0.00     0.040 A 
HETATM   27  N   UNL     1       7.117  32.300  59.980  1.00  0.00    -0.221 NA
HETATM   28  C   UNL     1       6.165  33.714  61.845  1.00  0.00     0.034 A 
HETATM   29  C   UNL     1       6.304  33.981  63.216  1.00  0.00     0.002 A 
HETATM   30  C   UNL     1       7.274  33.328  63.987  1.00  0.00     0.003 A 
ENDBRANCH   3  22
TORSDOF 5
ENDMDL
MODEL 2
REMARK VINA RESULT:     -11.5      0.138      1.602
REMARK  5 active torsions:
REMARK  status: ('A' for Active; 'I' for Inactive)
REMARK    1  A    between atoms: C_4  and  O_5 
REMARK    2  A    between atoms: O_5  and  C_6 
REMARK    3  A    between atoms: C_6  and  C_7 
REMARK       I    between atoms: C_7  and  N_8 
REMARK    4  A    between atoms: N_8  and  C_9 
REMARK    5  A    between atoms: C_11  and  C_12 
ROOT
HETATM    1  C   UNL     1       8.267  28.713  57.550  1.00  0.00     0.035 A 
HETATM    2  C   UNL     1       7.798  29.512  58.598  1.00  0.00     0.045 A 
HETATM    3  C   UNL     1       8.557  30.591  59.084  1.00  0.00     0.019 A 
HETATM    4  C   UNL     1       9.816  30.837  58.522  1.00  0.00     0.016 A 
HETATM    5  C   UNL     1      10.297  30.043  57.480  1.00  0.00     0.003 A 
HETATM    6  C   UNL     1       9.519  28.994  56.990  1.00  0.00     0.029 A 
ENDROOT
BRANCH   1   7
HETATM    7  N   UNL     1       7.538  27.643  56.996  1.00  0.00    -0.325 N 
HETATM    8  C   UNL     1       7.399  26.362  57.503  1.00  0.00     0.251 C 
HETATM    9  O   UNL     1       7.964  25.909  58.496  1.00  0.00    -0.270 OA
HETATM   10  H   UNL     1       7.036  27.832  56.134  1.00  0.00     0.169 HD
BRANCH   8  11
HETATM   11  C   UNL     1       6.468  25.472  56.664  1.00  0.00     0.217 C 
HETATM   12  C   UNL     1       5.077  25.448  57.292  1.00  0.00     0.050 C 
BRANCH  11  13
HETATM   13  O   UNL     1       6.935  24.118  56.617  1.00  0.00    -0.337 OA
BRANCH  13  14
HETATM   14  C   UNL     1       7.245  23.689  55.352  1.00  0.00     0.070 A 
HETATM   15  C   UNL     1       7.278  24.532  54.239  1.00  0.00     0.043 A 
HETATM   16  C   UNL     1       7.611  24.022  52.978  1.00  0.00    -0.059 A 
HETATM   17  C   UNL     1       7.657  24.917  51.774  1.00  0.00     0.048 C 
HETATM   18  C   UNL     1       7.930  22.663  52.852  1.00  0.00     0.013 A 
HETATM   19  C   UNL     1       7.917  21.815  53.968  1.00  0.00    -0.059 A 
HETATM   20  C   UNL     1       7.591  22.344  55.222  1.00  0.00     0.043 A 
HETATM   21  C   UNL     1       8.284  20.369  53.813  1.00  0.00     0.048 C 
ENDBRANCH  13  14
ENDBRANCH  11  13
ENDBRANCH   8  11
ENDBRANCH   1   7
BRANCH   3  22
HETATM   22  C   UNL     1       8.052  31.475  60.134  1.00  0.00     0.181 A 
HETATM   23  O   UNL     1       8.613  31.332  61.379  1.00  0.00    -0.289 OA
HETATM   24  C   UNL     1       7.930  32.220  62.156  1.00  0.00     0.106 A 
HETATM   25  C   UNL     1       7.001  32.857  61.352  1.00  0.00     0.093 A 
HETATM   26  C   UNL     1       8.105  32.460  63.513  1.00  0.00     0.040 A 
HETATM   27  N   UNL     1       7.087  32.378  60.068  1.00  0.00    -0.221 NA
HETATM   28  C   UNL     1       6.161  33.822  61.924  1.00  0.00     0.034 A 
HETATM   29  C   UNL     1       6.303  34.094  63.294  1.00  0.00     0.002 A 
HETATM   30  C   UNL     1       7.257  33.425  64.070  1.00  0.00     0.003 A 
ENDBRANCH   3  22
TORSDOF 5
ENDMDL
MODEL 3
REMARK VINA RESULT:     -10.6      1.902     10.213
REMARK  5 active torsions:
REMARK  status: ('A' for Active; 'I' for Inactive)
REMARK    1  A    between atoms: C_4  and  O_5 
REMARK    2  A    between atoms: O_5  and  C_6 
REMARK    3  A    between atoms: C_6  and  C_7 
REMARK       I    between atoms: C_7  and  N_8 
REMARK    4  A    between atoms: N_8  and  C_9 
REMARK    5  A    between atoms: C_11  and  C_12 
ROOT
HETATM    1  C   UNL     1       6.898  27.835  55.453  1.00  0.00     0.035 A 
HETATM    2  C   UNL     1       7.305  26.500  55.360  1.00  0.00     0.045 A 
HETATM    3  C   UNL     1       6.588  25.574  54.583  1.00  0.00     0.019 A 
HETATM    4  C   UNL     1       5.429  26.004  53.923  1.00  0.00     0.016 A 
HETATM    5  C   UNL     1       5.011  27.331  54.012  1.00  0.00     0.003 A 
HETATM    6  C   UNL     1       5.751  28.244  54.764  1.00  0.00     0.029 A 
ENDROOT
BRANCH   1   7
HETATM    7  N   UNL     1       7.596  28.816  56.185  1.00  0.00    -0.325 N 
HETATM    8  C   UNL     1       8.037  28.739  57.495  1.00  0.00     0.251 C 
HETATM    9  O   UNL     1       7.821  27.820  58.281  1.00  0.00    -0.270 OA
HETATM   10  H   UNL     1       7.823  29.675  55.693  1.00  0.00     0.169 HD
BRANCH   8  11
HETATM   11  C   UNL     1       8.828  29.978  57.945  1.00  0.00     0.217 C 
HETATM   12  C   UNL     1      10.185  30.003  57.247  1.00  0.00     0.050 C 
BRANCH  11  13
HETATM   13  O   UNL     1       9.077  29.959  59.357  1.00  0.00    -0.337 OA
BRANCH  13  14
HETATM   14  C   UNL     1       8.325  30.866  60.058  1.00  0.00     0.070 A 
HETATM   15  C   UNL     1       8.600  31.239  61.376  1.00  0.00     0.043 A 
HETATM   16  C   UNL     1       7.791  32.179  62.026  1.00  0.00    -0.059 A 
HETATM   17  C   UNL     1       8.078  32.594  63.439  1.00  0.00     0.048 C 
HETATM   18  C   UNL     1       6.715  32.752  61.334  1.00  0.00     0.013 A 
HETATM   19  C   UNL     1       6.444  32.395  60.005  1.00  0.00    -0.059 A 
HETATM   20  C   UNL     1       7.270  31.462  59.368  1.00  0.00     0.043 A 
HETATM   21  C   UNL     1       5.302  33.039  59.276  1.00  0.00     0.048 C 
ENDBRANCH  13  14
ENDBRANCH  11  13
ENDBRANCH   8  11
ENDBRANCH   1   7
BRANCH   3  22
HETATM   22  C   UNL     1       7.037  24.191  54.424  1.00  0.00     0.181 A 
HETATM   23  O   UNL     1       7.215  23.467  55.577  1.00  0.00    -0.289 OA
HETATM   24  C   UNL     1       7.680  22.262  55.144  1.00  0.00     0.106 A 
HETATM   25  C   UNL     1       7.756  22.309  53.763  1.00  0.00     0.093 A 
HETATM   26  C   UNL     1       8.032  21.166  55.922  1.00  0.00     0.040 A 
HETATM   27  N   UNL     1       7.342  23.539  53.314  1.00  0.00    -0.221 NA
HETATM   28  C   UNL     1       8.217  21.181  53.072  1.00  0.00     0.034 A 
HETATM   29  C   UNL     1       8.585  20.052  53.820  1.00  0.00     0.002 A 
HETATM   30  C   UNL     1       8.493  20.047  55.218  1.00  0.00     0.003 A 
ENDBRANCH   3  22
TORSDOF 5
ENDMDL
MODEL 4
REMARK VINA RESULT:     -10.5      1.912     10.264
REMARK  5 active torsions:
REMARK  status: ('A' for Active; 'I' for Inactive)
REMARK    1  A    between atoms: C_4  and  O_5 
REMARK    2  A    between atoms: O_5  and  C_6 
REMARK    3  A    between atoms: C_6  and  C_7 
REMARK       I    between atoms: C_7  and  N_8 
REMARK    4  A    between atoms: N_8  and  C_9 
REMARK    5  A    between atoms: C_11  and  C_12 
ROOT
HETATM    1  C   UNL     1       6.940  28.083  55.487  1.00  0.00     0.035 A 
HETATM    2  C   UNL     1       7.300  26.736  55.375  1.00  0.00     0.045 A 
HETATM    3  C   UNL     1       6.587  25.861  54.536  1.00  0.00     0.019 A 
HETATM    4  C   UNL     1       5.480  26.354  53.833  1.00  0.00     0.016 A 
HETATM    5  C   UNL     1       5.109  27.695  53.941  1.00  0.00     0.003 A 
HETATM    6  C   UNL     1       5.845  28.556  54.755  1.00  0.00     0.029 A 
ENDROOT
BRANCH   1   7
HETATM    7  N   UNL     1       7.638  29.015  56.281  1.00  0.00    -0.325 N 
HETATM    8  C   UNL     1       8.079  28.854  57.583  1.00  0.00     0.251 C 
HETATM    9  O   UNL     1       7.862  27.886  58.308  1.00  0.00    -0.270 OA
HETATM   10  H   UNL     1       7.864  29.904  55.845  1.00  0.00     0.169 HD
BRANCH   8  11
HETATM   11  C   UNL     1       8.869  30.061  58.113  1.00  0.00     0.217 C 
HETATM   12  C   UNL     1      10.301  30.009  57.586  1.00  0.00     0.050 C 
BRANCH  11  13
HETATM   13  O   UNL     1       8.943  30.056  59.544  1.00  0.00    -0.337 OA
BRANCH  13  14
HETATM   14  C   UNL     1       8.156  31.009  60.137  1.00  0.00     0.070 A 
HETATM   15  C   UNL     1       7.060  31.603  59.508  1.00  0.00     0.043 A 
HETATM   16  C   UNL     1       6.297  32.565  60.181  1.00  0.00    -0.059 A 
HETATM   17  C   UNL     1       5.112  33.207  59.521  1.00  0.00     0.048 C 
HETATM   18  C   UNL     1       6.635  32.909  61.497  1.00  0.00     0.013 A 
HETATM   19  C   UNL     1       7.723  32.304  62.141  1.00  0.00    -0.059 A 
HETATM   20  C   UNL     1       8.468  31.337  61.456  1.00  0.00     0.043 A 
HETATM   21  C   UNL     1       8.054  32.670  63.557  1.00  0.00     0.048 C 
ENDBRANCH  13  14
ENDBRANCH  11  13
ENDBRANCH   8  11
ENDBRANCH   1   7
BRANCH   3  22
HETATM   22  C   UNL     1       6.990  24.466  54.358  1.00  0.00     0.181 A 
HETATM   23  O   UNL     1       7.134  23.718  55.501  1.00  0.00    -0.289 OA
HETATM   24  C   UNL     1       7.561  22.505  55.052  1.00  0.00     0.106 A 
HETATM   25  C   UNL     1       7.650  22.572  53.673  1.00  0.00     0.093 A 
HETATM   26  C   UNL     1       7.869  21.385  55.815  1.00  0.00     0.040 A 
HETATM   27  N   UNL     1       7.283  23.822  53.240  1.00  0.00    -0.221 NA
HETATM   28  C   UNL     1       8.079  21.439  52.967  1.00  0.00     0.034 A 
HETATM   29  C   UNL     1       8.402  20.287  53.700  1.00  0.00     0.002 A 
HETATM   30  C   UNL     1       8.297  20.263  55.097  1.00  0.00     0.003 A 
ENDBRANCH   3  22
TORSDOF 5
ENDMDL
MODEL 5
REMARK VINA RESULT:      -9.9      2.384     10.332
REMARK  5 active torsions:
REMARK  status: ('A' for Active; 'I' for Inactive)
REMARK    1  A    between atoms: C_4  and  O_5 
REMARK    2  A    between atoms: O_5  and  C_6 
REMARK    3  A    between atoms: C_6  and  C_7 
REMARK       I    between atoms: C_7  and  N_8 
REMARK    4  A    between atoms: N_8  and  C_9 
REMARK    5  A    between atoms: C_11  and  C_12 
ROOT
HETATM    1  C   UNL     1       5.219  27.575  55.418  1.00  0.00     0.035 A 
HETATM    2  C   UNL     1       5.866  26.344  55.562  1.00  0.00     0.045 A 
HETATM    3  C   UNL     1       5.917  25.421  54.503  1.00  0.00     0.019 A 
HETATM    4  C   UNL     1       5.276  25.742  53.298  1.00  0.00     0.016 A 
HETATM    5  C   UNL     1       4.624  26.966  53.144  1.00  0.00     0.003 A 
HETATM    6  C   UNL     1       4.607  27.882  54.197  1.00  0.00     0.029 A 
ENDROOT
BRANCH   1   7
HETATM    7  N   UNL     1       5.166  28.554  56.429  1.00  0.00    -0.325 N 
HETATM    8  C   UNL     1       6.138  29.486  56.755  1.00  0.00     0.251 C 
HETATM    9  O   UNL     1       7.260  29.566  56.263  1.00  0.00    -0.270 OA
HETATM   10  H   UNL     1       4.311  28.601  56.974  1.00  0.00     0.169 HD
BRANCH   8  11
HETATM   11  C   UNL     1       5.708  30.448  57.875  1.00  0.00     0.217 C 
HETATM   12  C   UNL     1       4.378  31.102  57.508  1.00  0.00     0.050 C 
BRANCH  11  13
HETATM   13  O   UNL     1       6.662  31.501  58.058  1.00  0.00    -0.337 OA
BRANCH  13  14
HETATM   14  C   UNL     1       7.064  31.656  59.360  1.00  0.00     0.070 A 
HETATM   15  C   UNL     1       8.062  30.882  59.954  1.00  0.00     0.043 A 
HETATM   16  C   UNL     1       8.426  31.104  61.289  1.00  0.00    -0.059 A 
HETATM   17  C   UNL     1       9.501  30.284  61.939  1.00  0.00     0.048 C 
HETATM   18  C   UNL     1       7.790  32.123  62.011  1.00  0.00     0.013 A 
HETATM   19  C   UNL     1       6.801  32.917  61.414  1.00  0.00    -0.059 A 
HETATM   20  C   UNL     1       6.458  32.687  60.077  1.00  0.00     0.043 A 
HETATM   21  C   UNL     1       6.150  34.018  62.198  1.00  0.00     0.048 C 
ENDBRANCH  13  14
ENDBRANCH  11  13
ENDBRANCH   8  11
ENDBRANCH   1   7
BRANCH   3  22
HETATM   22  C   UNL     1       6.644  24.157  54.617  1.00  0.00     0.181 A 
HETATM   23  O   UNL     1       6.954  23.519  53.441  1.00  0.00    -0.289 OA
HETATM   24  C   UNL     1       7.563  22.367  53.839  1.00  0.00     0.106 A 
HETATM   25  C   UNL     1       7.600  22.364  55.222  1.00  0.00     0.093 A 
HETATM   26  C   UNL     1       8.062  21.355  53.029  1.00  0.00     0.040 A 
HETATM   27  N   UNL     1       7.015  23.507  55.708  1.00  0.00    -0.221 NA
HETATM   28  C   UNL     1       8.179  21.271  55.881  1.00  0.00     0.034 A 
HETATM   29  C   UNL     1       8.693  20.225  55.099  1.00  0.00     0.002 A 
HETATM   30  C   UNL     1       8.635  20.269  53.700  1.00  0.00     0.003 A 
ENDBRANCH   3  22
TORSDOF 5
ENDMDL
MODEL 6
REMARK VINA RESULT:      -9.9      2.188     10.386
REMARK  5 active torsions:
REMARK  status: ('A' for Active; 'I' for Inactive)
REMARK    1  A    between atoms: C_4  and  O_5 
REMARK    2  A    between atoms: O_5  and  C_6 
REMARK    3  A    between atoms: C_6  and  C_7 
REMARK       I    between atoms: C_7  and  N_8 
REMARK    4  A    between atoms: N_8  and  C_9 
REMARK    5  A    between atoms: C_11  and  C_12 
ROOT
HETATM    1  C   UNL     1       9.150  30.007  58.312  1.00  0.00     0.035 A 
HETATM    2  C   UNL     1       8.213  29.276  57.574  1.00  0.00     0.045 A 
HETATM    3  C   UNL     1       8.461  28.917  56.238  1.00  0.00     0.019 A 
HETATM    4  C   UNL     1       9.658  29.332  55.639  1.00  0.00     0.016 A 
HETATM    5  C   UNL     1      10.598  30.065  56.364  1.00  0.00     0.003 A 
HETATM    6  C   UNL     1      10.349  30.389  57.698  1.00  0.00     0.029 A 
ENDROOT
BRANCH   1   7
HETATM    7  N   UNL     1       8.975  30.364  59.663  1.00  0.00    -0.325 N 
HETATM    8  C   UNL     1       8.843  31.637  60.191  1.00  0.00     0.251 C 
HETATM    9  O   UNL     1       8.938  32.693  59.571  1.00  0.00    -0.270 OA
HETATM   10  H   UNL     1       8.918  29.602  60.332  1.00  0.00     0.169 HD
BRANCH   8  11
HETATM   11  C   UNL     1       8.597  31.645  61.709  1.00  0.00     0.217 C 
HETATM   12  C   UNL     1       9.147  30.362  62.325  1.00  0.00     0.050 C 
BRANCH  11  13
HETATM   13  O   UNL     1       7.198  31.698  62.014  1.00  0.00    -0.337 OA
BRANCH  13  14
HETATM   14  C   UNL     1       6.844  32.776  62.784  1.00  0.00     0.070 A 
HETATM   15  C   UNL     1       7.052  32.837  64.164  1.00  0.00     0.043 A 
HETATM   16  C   UNL     1       6.672  33.976  64.884  1.00  0.00    -0.059 A 
HETATM   17  C   UNL     1       6.894  34.059  66.366  1.00  0.00     0.048 C 
HETATM   18  C   UNL     1       6.100  35.059  64.201  1.00  0.00     0.013 A 
HETATM   19  C   UNL     1       5.906  35.011  62.814  1.00  0.00    -0.059 A 
HETATM   20  C   UNL     1       6.301  33.868  62.109  1.00  0.00     0.043 A 
HETATM   21  C   UNL     1       5.314  36.190  62.100  1.00  0.00     0.048 C 
ENDBRANCH  13  14
ENDBRANCH  11  13
ENDBRANCH   8  11
ENDBRANCH   1   7
BRANCH   3  22
HETATM   22  C   UNL     1       7.519  28.099  55.474  1.00  0.00     0.181 A 
HETATM   23  O   UNL     1       7.740  26.743  55.478  1.00  0.00    -0.289 OA
HETATM   24  C   UNL     1       6.771  26.246  54.659  1.00  0.00     0.106 A 
HETATM   25  C   UNL     1       6.013  27.312  54.206  1.00  0.00     0.093 A 
HETATM   26  C   UNL     1       6.559  24.917  54.315  1.00  0.00     0.040 A 
HETATM   27  N   UNL     1       6.495  28.485  54.731  1.00  0.00    -0.221 NA
HETATM   28  C   UNL     1       4.946  27.060  53.334  1.00  0.00     0.034 A 
HETATM   29  C   UNL     1       4.699  25.730  52.958  1.00  0.00     0.002 A 
HETATM   30  C   UNL     1       5.492  24.681  53.441  1.00  0.00     0.003 A 
ENDBRANCH   3  22
TORSDOF 5
ENDMDL
MODEL 7
REMARK VINA RESULT:      -9.8      1.960      2.621
REMARK  5 active torsions:
REMARK  status: ('A' for Active; 'I' for Inactive)
REMARK    1  A    between atoms: C_4  and  O_5 
REMARK    2  A    between atoms: O_5  and  C_6 
REMARK    3  A    between atoms: C_6  and  C_7 
REMARK       I    between atoms: C_7  and  N_8 
REMARK    4  A    between atoms: N_8  and  C_9 
REMARK    5  A    between atoms: C_11  and  C_12 
ROOT
HETATM    1  C   UNL     1       8.463  29.081  56.447  1.00  0.00     0.035 A 
HETATM    2  C   UNL     1       8.045  29.570  57.689  1.00  0.00     0.045 A 
HETATM    3  C   UNL     1       8.873  30.406  58.457  1.00  0.00     0.019 A 
HETATM    4  C   UNL     1      10.150  30.719  57.972  1.00  0.00     0.016 A 
HETATM    5  C   UNL     1      10.579  30.234  56.737  1.00  0.00     0.003 A 
HETATM    6  C   UNL     1       9.733  29.429  55.973  1.00  0.00     0.029 A 
ENDROOT
BRANCH   1   7
HETATM    7  N   UNL     1       7.664  28.271  55.616  1.00  0.00    -0.325 N 
HETATM    8  C   UNL     1       6.374  28.521  55.179  1.00  0.00     0.251 C 
HETATM    9  O   UNL     1       5.665  29.467  55.513  1.00  0.00    -0.270 OA
HETATM   10  H   UNL     1       8.085  27.412  55.277  1.00  0.00     0.169 HD
BRANCH   8  11
HETATM   11  C   UNL     1       5.835  27.445  54.222  1.00  0.00     0.217 C 
HETATM   12  C   UNL     1       4.648  28.001  53.441  1.00  0.00     0.050 C 
BRANCH  11  13
HETATM   13  O   UNL     1       5.372  26.292  54.935  1.00  0.00    -0.337 OA
BRANCH  13  14
HETATM   14  C   UNL     1       6.290  25.274  54.987  1.00  0.00     0.070 A 
HETATM   15  C   UNL     1       6.542  24.410  53.920  1.00  0.00     0.043 A 
HETATM   16  C   UNL     1       7.502  23.397  54.044  1.00  0.00    -0.059 A 
HETATM   17  C   UNL     1       7.788  22.465  52.904  1.00  0.00     0.048 C 
HETATM   18  C   UNL     1       8.217  23.276  55.244  1.00  0.00     0.013 A 
HETATM   19  C   UNL     1       7.982  24.152  56.312  1.00  0.00    -0.059 A 
HETATM   20  C   UNL     1       7.026  25.164  56.166  1.00  0.00     0.043 A 
HETATM   21  C   UNL     1       8.775  24.019  57.578  1.00  0.00     0.048 C 
ENDBRANCH  13  14
ENDBRANCH  11  13
ENDBRANCH   8  11
ENDBRANCH   1   7
BRANCH   3  22
HETATM   22  C   UNL     1       8.426  30.976  59.727  1.00  0.00     0.181 A 
HETATM   23  O   UNL     1       7.217  31.628  59.716  1.00  0.00    -0.289 OA
HETATM   24  C   UNL     1       7.081  32.098  60.987  1.00  0.00     0.106 A 
HETATM   25  C   UNL     1       8.198  31.708  61.704  1.00  0.00     0.093 A 
HETATM   26  C   UNL     1       6.027  32.843  61.501  1.00  0.00     0.040 A 
HETATM   27  N   UNL     1       9.047  30.994  60.895  1.00  0.00    -0.221 NA
HETATM   28  C   UNL     1       8.300  32.079  63.052  1.00  0.00     0.034 A 
HETATM   29  C   UNL     1       7.257  32.835  63.610  1.00  0.00     0.002 A 
HETATM   30  C   UNL     1       6.143  33.208  62.847  1.00  0.00     0.003 A 
ENDBRANCH   3  22
TORSDOF 5
ENDMDL
MODEL 8
REMARK VINA RESULT:      -9.8      2.006     10.405
REMARK  5 active torsions:
REMARK  status: ('A' for Active; 'I' for Inactive)
REMARK    1  A    between atoms: C_4  and  O_5 
REMARK    2  A    between atoms: O_5  and  C_6 
REMARK    3  A    between atoms: C_6  and  C_7 
REMARK       I    between atoms: C_7  and  N_8 
REMARK    4  A    between atoms: N_8  and  C_9 
REMARK    5  A    between atoms: C_11  and  C_12 
ROOT
HETATM    1  C   UNL     1       8.913  30.794  59.214  1.00  0.00     0.035 A 
HETATM    2  C   UNL     1       8.316  29.685  58.606  1.00  0.00     0.045 A 
HETATM    3  C   UNL     1       8.868  29.102  57.452  1.00  0.00     0.019 A 
HETATM    4  C   UNL     1      10.020  29.675  56.894  1.00  0.00     0.016 A 
HETATM    5  C   UNL     1      10.622  30.784  57.489  1.00  0.00     0.003 A 
HETATM    6  C   UNL     1      10.076  31.331  58.651  1.00  0.00     0.029 A 
ENDROOT
BRANCH   1   7
HETATM    7  N   UNL     1       8.427  31.396  60.390  1.00  0.00    -0.325 N 
HETATM    8  C   UNL     1       7.249  32.105  60.553  1.00  0.00     0.251 C 
HETATM    9  O   UNL     1       6.454  32.404  59.666  1.00  0.00    -0.270 OA
HETATM   10  H   UNL     1       8.993  31.284  61.226  1.00  0.00     0.169 HD
BRANCH   8  11
HETATM   11  C   UNL     1       7.008  32.563  62.001  1.00  0.00     0.217 C 
HETATM   12  C   UNL     1       8.228  32.229  62.855  1.00  0.00     0.050 C 
BRANCH  11  13
HETATM   13  O   UNL     1       5.884  31.891  62.584  1.00  0.00    -0.337 OA
BRANCH  13  14
HETATM   14  C   UNL     1       5.025  32.731  63.245  1.00  0.00     0.070 A 
HETATM   15  C   UNL     1       5.228  33.162  64.558  1.00  0.00     0.043 A 
HETATM   16  C   UNL     1       4.310  34.028  65.165  1.00  0.00    -0.059 A 
HETATM   17  C   UNL     1       4.517  34.505  66.572  1.00  0.00     0.048 C 
HETATM   18  C   UNL     1       3.199  34.471  64.433  1.00  0.00     0.013 A 
HETATM   19  C   UNL     1       3.000  34.057  63.109  1.00  0.00    -0.059 A 
HETATM   20  C   UNL     1       3.933  33.199  62.515  1.00  0.00     0.043 A 
HETATM   21  C   UNL     1       1.817  34.561  62.337  1.00  0.00     0.048 C 
ENDBRANCH  13  14
ENDBRANCH  11  13
ENDBRANCH   8  11
ENDBRANCH   1   7
BRANCH   3  22
HETATM   22  C   UNL     1       8.292  27.904  56.842  1.00  0.00     0.181 A 
HETATM   23  O   UNL     1       8.509  26.717  57.497  1.00  0.00    -0.289 OA
HETATM   24  C   UNL     1       7.925  25.784  56.695  1.00  0.00     0.106 A 
HETATM   25  C   UNL     1       7.381  26.442  55.606  1.00  0.00     0.093 A 
HETATM   26  C   UNL     1       7.873  24.411  56.901  1.00  0.00     0.040 A 
HETATM   27  N   UNL     1       7.618  27.791  55.709  1.00  0.00    -0.221 NA
HETATM   28  C   UNL     1       6.723  25.693  54.622  1.00  0.00     0.034 A 
HETATM   29  C   UNL     1       6.649  24.301  54.790  1.00  0.00     0.002 A 
HETATM   30  C   UNL     1       7.214  23.675  55.909  1.00  0.00     0.003 A 
ENDBRANCH   3  22
TORSDOF 5
ENDMDL
MODEL 9
REMARK VINA RESULT:      -9.6      1.641     10.856
REMARK  5 active torsions:
REMARK  status: ('A' for Active; 'I' for Inactive)
REMARK    1  A    between atoms: C_4  and  O_5 
REMARK    2  A    between atoms: O_5  and  C_6 
REMARK    3  A    between atoms: C_6  and  C_7 
REMARK       I    between atoms: C_7  and  N_8 
REMARK    4  A    between atoms: N_8  and  C_9 
REMARK    5  A    between atoms: C_11  and  C_12 
ROOT
HETATM    1  C   UNL     1       8.365  30.393  59.290  1.00  0.00     0.035 A 
HETATM    2  C   UNL     1       7.910  29.249  58.627  1.00  0.00     0.045 A 
HETATM    3  C   UNL     1       8.598  28.731  57.516  1.00  0.00     0.019 A 
HETATM    4  C   UNL     1       9.739  29.402  57.057  1.00  0.00     0.016 A 
HETATM    5  C   UNL     1      10.200  30.547  57.708  1.00  0.00     0.003 A 
HETATM    6  C   UNL     1       9.522  31.031  58.827  1.00  0.00     0.029 A 
ENDROOT
BRANCH   1   7
HETATM    7  N   UNL     1       7.741  30.937  60.430  1.00  0.00    -0.325 N 
HETATM    8  C   UNL     1       8.211  30.936  61.732  1.00  0.00     0.251 C 
HETATM    9  O   UNL     1       9.229  30.380  62.136  1.00  0.00    -0.270 OA
HETATM   10  H   UNL     1       6.851  31.404  60.282  1.00  0.00     0.169 HD
BRANCH   8  11
HETATM   11  C   UNL     1       7.292  31.685  62.712  1.00  0.00     0.217 C 
HETATM   12  C   UNL     1       5.839  31.537  62.269  1.00  0.00     0.050 C 
BRANCH  11  13
HETATM   13  O   UNL     1       7.587  33.087  62.740  1.00  0.00    -0.337 OA
BRANCH  13  14
HETATM   14  C   UNL     1       6.804  33.795  63.616  1.00  0.00     0.070 A 
HETATM   15  C   UNL     1       5.757  34.627  63.213  1.00  0.00     0.043 A 
HETATM   16  C   UNL     1       4.994  35.312  64.167  1.00  0.00    -0.059 A 
HETATM   17  C   UNL     1       3.863  36.206  63.750  1.00  0.00     0.048 C 
HETATM   18  C   UNL     1       5.282  35.137  65.528  1.00  0.00     0.013 A 
HETATM   19  C   UNL     1       6.319  34.289  65.940  1.00  0.00    -0.059 A 
HETATM   20  C   UNL     1       7.064  33.604  64.972  1.00  0.00     0.043 A 
HETATM   21  C   UNL     1       6.594  34.098  67.402  1.00  0.00     0.048 C 
ENDBRANCH  13  14
ENDBRANCH  11  13
ENDBRANCH   8  11
ENDBRANCH   1   7
BRANCH   3  22
HETATM   22  C   UNL     1       8.171  27.500  56.851  1.00  0.00     0.181 A 
HETATM   23  O   UNL     1       8.446  26.323  57.504  1.00  0.00    -0.289 OA
HETATM   24  C   UNL     1       8.001  25.359  56.650  1.00  0.00     0.106 A 
HETATM   25  C   UNL     1       7.477  25.989  55.535  1.00  0.00     0.093 A 
HETATM   26  C   UNL     1       8.055  23.983  56.833  1.00  0.00     0.040 A 
HETATM   27  N   UNL     1       7.588  27.351  55.673  1.00  0.00    -0.221 NA
HETATM   28  C   UNL     1       6.955  25.205  54.498  1.00  0.00     0.034 A 
HETATM   29  C   UNL     1       6.992  23.809  54.641  1.00  0.00     0.002 A 
HETATM   30  C   UNL     1       7.532  23.212  55.788  1.00  0.00     0.003 A 
ENDBRANCH   3  22
TORSDOF 5
ENDMDL
MODEL 10
REMARK VINA RESULT:      -9.6      1.999     10.495
REMARK  5 active torsions:
REMARK  status: ('A' for Active; 'I' for Inactive)
REMARK    1  A    between atoms: C_4  and  O_5 
REMARK    2  A    between atoms: O_5  and  C_6 
REMARK    3  A    between atoms: C_6  and  C_7 
REMARK       I    between atoms: C_7  and  N_8 
REMARK    4  A    between atoms: N_8  and  C_9 
REMARK    5  A    between atoms: C_11  and  C_12 
ROOT
HETATM    1  C   UNL     1       7.730  30.377  58.711  1.00  0.00     0.035 A 
HETATM    2  C   UNL     1       7.427  29.143  58.127  1.00  0.00     0.045 A 
HETATM    3  C   UNL     1       8.381  28.445  57.367  1.00  0.00     0.019 A 
HETATM    4  C   UNL     1       9.643  29.023  57.174  1.00  0.00     0.016 A 
HETATM    5  C   UNL     1       9.955  30.256  57.748  1.00  0.00     0.003 A 
HETATM    6  C   UNL     1       9.006  30.922  58.523  1.00  0.00     0.029 A 
ENDROOT
BRANCH   1   7
HETATM    7  N   UNL     1       6.829  31.106  59.513  1.00  0.00    -0.325 N 
HETATM    8  C   UNL     1       5.817  31.952  59.092  1.00  0.00     0.251 C 
HETATM    9  O   UNL     1       5.581  32.281  57.932  1.00  0.00    -0.270 OA
HETATM   10  H   UNL     1       6.913  30.984  60.517  1.00  0.00     0.169 HD
BRANCH   8  11
HETATM   11  C   UNL     1       4.982  32.526  60.249  1.00  0.00     0.217 C 
HETATM   12  C   UNL     1       3.500  32.277  59.985  1.00  0.00     0.050 C 
BRANCH  11  13
HETATM   13  O   UNL     1       5.160  33.943  60.373  1.00  0.00    -0.337 OA
BRANCH  13  14
HETATM   14  C   UNL     1       5.493  34.345  61.641  1.00  0.00     0.070 A 
HETATM   15  C   UNL     1       6.249  33.567  62.521  1.00  0.00     0.043 A 
HETATM   16  C   UNL     1       6.558  34.048  63.799  1.00  0.00    -0.059 A 
HETATM   17  C   UNL     1       7.374  33.227  64.754  1.00  0.00     0.048 C 
HETATM   18  C   UNL     1       6.116  35.324  64.175  1.00  0.00     0.013 A 
HETATM   19  C   UNL     1       5.373  36.118  63.290  1.00  0.00    -0.059 A 
HETATM   20  C   UNL     1       5.083  35.624  62.013  1.00  0.00     0.043 A 
HETATM   21  C   UNL     1       4.931  37.490  63.705  1.00  0.00     0.048 C 
ENDBRANCH  13  14
ENDBRANCH  11  13
ENDBRANCH   8  11
ENDBRANCH   1   7
BRANCH   3  22
HETATM   22  C   UNL     1       8.101  27.124  56.804  1.00  0.00     0.181 A 
HETATM   23  O   UNL     1       8.594  26.045  57.496  1.00  0.00    -0.289 OA
HETATM   24  C   UNL     1       8.242  24.973  56.732  1.00  0.00     0.106 A 
HETATM   25  C   UNL     1       7.554  25.447  55.628  1.00  0.00     0.093 A 
HETATM   26  C   UNL     1       8.515  23.634  56.983  1.00  0.00     0.040 A 
HETATM   27  N   UNL     1       7.467  26.816  55.684  1.00  0.00    -0.221 NA
HETATM   28  C   UNL     1       7.086  24.530  54.678  1.00  0.00     0.034 A 
HETATM   29  C   UNL     1       7.343  23.166  54.892  1.00  0.00     0.002 A 
HETATM   30  C   UNL     1       8.044  22.730  56.024  1.00  0.00     0.003 A 
ENDBRANCH   3  22
TORSDOF 5
ENDMDL
