MODEL 1
REMARK VINA RESULT:      -9.5      0.000      0.000
REMARK  7 active torsions:
REMARK  status: ('A' for Active; 'I' for Inactive)
REMARK    1  A    between atoms: C_2  and  O_3 
REMARK    2  A    between atoms: O_3  and  C_4 
REMARK       I    between atoms: C_4  and  N_5 
REMARK    3  A    between atoms: C_8  and  N_9 
REMARK    4  A    between atoms: C_18  and  C_19 
REMARK    5  A    between atoms: C_19  and  N_20 
REMARK    6  A    between atoms: C_22  and  C_23 
REMARK    7  A    between atoms: C_23  and  O_24 
ROOT
HETATM    1  N   UNL     1       6.663  29.085  54.899  1.00  0.00    -0.061 N 
HETATM    2  H   UNL     1       7.185  29.970  54.947  1.00  0.00     0.280 HD
HETATM    3  C   UNL     1       7.103  28.451  53.572  1.00  0.00     0.276 C 
HETATM    4  C   UNL     1       6.592  27.055  53.332  1.00  0.00     0.002 A 
HETATM    5  C   UNL     1       5.222  26.830  53.203  1.00  0.00     0.076 A 
HETATM    6  O   UNL     1       4.324  27.856  53.269  1.00  0.00    -0.349 OA
HETATM    7  C   UNL     1       4.221  28.382  54.600  1.00  0.00     0.203 C 
HETATM    8  C   UNL     1       5.199  29.539  54.802  1.00  0.00     0.262 C 
HETATM    9  C   UNL     1       7.461  25.949  53.231  1.00  0.00     0.020 A 
HETATM   10  C   UNL     1       6.977  24.634  53.026  1.00  0.00    -0.032 A 
HETATM   11  C   UNL     1       5.591  24.463  52.906  1.00  0.00     0.011 A 
HETATM   12  C   UNL     1       4.723  25.555  52.962  1.00  0.00     0.038 A 
ENDROOT
BRANCH   1  13
HETATM   13  C   UNL     1       7.044  28.272  56.151  1.00  0.00     0.191 C 
HETATM   14  C   UNL     1       8.565  28.117  56.276  1.00  0.00     0.053 C 
HETATM   15  C   UNL     1       9.258  29.440  56.565  1.00  0.00     0.130 C 
HETATM   16  N   UNL     1       8.658  30.155  57.679  1.00  0.00    -0.328 N 
HETATM   17  C   UNL     1       9.450  31.147  58.269  1.00  0.00     0.362 C 
HETATM   18  C   UNL     1       7.205  30.220  57.788  1.00  0.00     0.130 C 
HETATM   19  O   UNL     1      10.613  31.348  57.943  1.00  0.00    -0.238 OA
HETATM   20  C   UNL     1       6.529  28.897  57.454  1.00  0.00     0.053 C 
BRANCH  17  21
HETATM   21  O   UNL     1       8.780  31.857  59.213  1.00  0.00    -0.304 OA
BRANCH  21  22
HETATM   22  C   UNL     1       9.484  32.091  60.445  1.00  0.00     0.176 C 
HETATM   23  C   UNL     1       9.300  30.933  61.410  1.00  0.00     0.034 C 
ENDBRANCH  21  22
ENDBRANCH  17  21
ENDBRANCH   1  13
BRANCH  10  24
HETATM   24  C   UNL     1       7.925  23.453  53.095  1.00  0.00     0.274 C 
BRANCH  24  25
HETATM   25  N   UNL     1       7.512  22.151  53.752  1.00  0.00    -0.054 N 
HETATM   26  H   UNL     1       6.491  22.138  53.624  1.00  0.00     0.281 HD
HETATM   27  C   UNL     1       7.732  21.937  55.261  1.00  0.00     0.287 C 
HETATM   28  C   UNL     1       9.085  21.260  55.308  1.00  0.00     0.045 C 
HETATM   29  C   UNL     1       9.095  20.354  54.083  1.00  0.00     0.030 C 
HETATM   30  C   UNL     1       8.043  20.890  53.118  1.00  0.00     0.236 C 
BRANCH  27  31
HETATM   31  C   UNL     1       7.578  23.131  56.198  1.00  0.00     0.289 C 
HETATM   32  O   UNL     1       6.610  23.879  56.223  1.00  0.00    -0.263 OA
BRANCH  31  33
HETATM   33  O   UNL     1       8.649  23.191  57.031  1.00  0.00    -0.325 OA
HETATM   34  C   UNL     1       9.098  24.507  57.380  1.00  0.00     0.213 C 
ENDBRANCH  31  33
ENDBRANCH  27  31
ENDBRANCH  24  25
ENDBRANCH  10  24
TORSDOF 7
ENDMDL
MODEL 2
REMARK VINA RESULT:      -8.8      2.787      5.610
REMARK  7 active torsions:
REMARK  status: ('A' for Active; 'I' for Inactive)
REMARK    1  A    between atoms: C_2  and  O_3 
REMARK    2  A    between atoms: O_3  and  C_4 
REMARK       I    between atoms: C_4  and  N_5 
REMARK    3  A    between atoms: C_8  and  N_9 
REMARK    4  A    between atoms: C_18  and  C_19 
REMARK    5  A    between atoms: C_19  and  N_20 
REMARK    6  A    between atoms: C_22  and  C_23 
REMARK    7  A    between atoms: C_23  and  O_24 
ROOT
HETATM    1  N   UNL     1       6.733  26.965  57.019  1.00  0.00    -0.061 N 
HETATM    2  H   UNL     1       6.279  27.537  57.744  1.00  0.00     0.280 HD
HETATM    3  C   UNL     1       5.569  26.364  56.220  1.00  0.00     0.276 C 
HETATM    4  C   UNL     1       5.971  25.595  54.988  1.00  0.00     0.002 A 
HETATM    5  C   UNL     1       6.735  24.436  55.112  1.00  0.00     0.076 A 
HETATM    6  O   UNL     1       7.114  23.961  56.334  1.00  0.00    -0.349 OA
HETATM    7  C   UNL     1       8.102  24.805  56.943  1.00  0.00     0.203 C 
HETATM    8  C   UNL     1       7.440  25.864  57.824  1.00  0.00     0.262 C 
HETATM    9  C   UNL     1       5.598  26.013  53.693  1.00  0.00     0.020 A 
HETATM   10  C   UNL     1       5.994  25.302  52.535  1.00  0.00    -0.032 A 
HETATM   11  C   UNL     1       6.764  24.145  52.715  1.00  0.00     0.011 A 
HETATM   12  C   UNL     1       7.105  23.697  53.993  1.00  0.00     0.038 A 
ENDROOT
BRANCH   1  13
HETATM   13  C   UNL     1       7.641  27.909  56.209  1.00  0.00     0.191 C 
HETATM   14  C   UNL     1       6.875  29.147  55.727  1.00  0.00     0.053 C 
HETATM   15  C   UNL     1       6.462  30.054  56.876  1.00  0.00     0.130 C 
HETATM   16  N   UNL     1       7.568  30.371  57.764  1.00  0.00    -0.328 N 
HETATM   17  C   UNL     1       7.394  31.492  58.585  1.00  0.00     0.362 C 
HETATM   18  C   UNL     1       8.496  29.317  58.156  1.00  0.00     0.130 C 
HETATM   19  O   UNL     1       6.417  32.226  58.505  1.00  0.00    -0.238 OA
HETATM   20  C   UNL     1       8.862  28.395  57.000  1.00  0.00     0.053 C 
BRANCH  17  21
HETATM   21  O   UNL     1       8.407  31.650  59.474  1.00  0.00    -0.304 OA
BRANCH  21  22
HETATM   22  C   UNL     1       8.057  32.261  60.728  1.00  0.00     0.176 C 
HETATM   23  C   UNL     1       9.043  31.879  61.818  1.00  0.00     0.034 C 
ENDBRANCH  21  22
ENDBRANCH  17  21
ENDBRANCH   1  13
BRANCH  10  24
HETATM   24  C   UNL     1       5.722  25.874  51.158  1.00  0.00     0.274 C 
BRANCH  24  25
HETATM   25  N   UNL     1       4.724  26.997  50.957  1.00  0.00    -0.054 N 
HETATM   26  H   UNL     1       3.848  26.601  51.324  1.00  0.00     0.281 HD
HETATM   27  C   UNL     1       4.381  27.487  49.537  1.00  0.00     0.287 C 
HETATM   28  C   UNL     1       5.353  28.629  49.335  1.00  0.00     0.045 C 
HETATM   29  C   UNL     1       5.448  29.290  50.704  1.00  0.00     0.030 C 
HETATM   30  C   UNL     1       4.985  28.264  51.731  1.00  0.00     0.236 C 
BRANCH  27  31
HETATM   31  C   UNL     1       4.340  26.468  48.403  1.00  0.00     0.289 C 
HETATM   32  O   UNL     1       5.042  26.508  47.402  1.00  0.00    -0.263 OA
BRANCH  31  33
HETATM   33  O   UNL     1       3.451  25.487  48.710  1.00  0.00    -0.325 OA
HETATM   34  C   UNL     1       2.897  24.774  47.598  1.00  0.00     0.213 C 
ENDBRANCH  31  33
ENDBRANCH  27  31
ENDBRANCH  24  25
ENDBRANCH  10  24
TORSDOF 7
ENDMDL
MODEL 3
REMARK VINA RESULT:      -8.4      2.118      8.347
REMARK  7 active torsions:
REMARK  status: ('A' for Active; 'I' for Inactive)
REMARK    1  A    between atoms: C_2  and  O_3 
REMARK    2  A    between atoms: O_3  and  C_4 
REMARK       I    between atoms: C_4  and  N_5 
REMARK    3  A    between atoms: C_8  and  N_9 
REMARK    4  A    between atoms: C_18  and  C_19 
REMARK    5  A    between atoms: C_19  and  N_20 
REMARK    6  A    between atoms: C_22  and  C_23 
REMARK    7  A    between atoms: C_23  and  O_24 
ROOT
HETATM    1  N   UNL     1       5.064  27.348  54.800  1.00  0.00    -0.061 N 
HETATM    2  H   UNL     1       4.833  26.347  54.853  1.00  0.00     0.280 HD
HETATM    3  C   UNL     1       4.266  27.987  55.946  1.00  0.00     0.276 C 
HETATM    4  C   UNL     1       4.551  29.447  56.185  1.00  0.00     0.002 A 
HETATM    5  C   UNL     1       4.248  30.384  55.198  1.00  0.00     0.076 A 
HETATM    6  O   UNL     1       3.674  30.012  54.017  1.00  0.00    -0.349 OA
HETATM    7  C   UNL     1       4.593  29.282  53.191  1.00  0.00     0.203 C 
HETATM    8  C   UNL     1       4.475  27.780  53.448  1.00  0.00     0.262 C 
HETATM    9  C   UNL     1       5.123  29.908  57.389  1.00  0.00     0.020 A 
HETATM   10  C   UNL     1       5.411  31.277  57.604  1.00  0.00    -0.032 A 
HETATM   11  C   UNL     1       5.089  32.177  56.579  1.00  0.00     0.011 A 
HETATM   12  C   UNL     1       4.484  31.740  55.399  1.00  0.00     0.038 A 
ENDROOT
BRANCH   1  13
HETATM   13  C   UNL     1       6.592  27.463  54.947  1.00  0.00     0.191 C 
HETATM   14  C   UNL     1       7.089  26.747  56.209  1.00  0.00     0.053 C 
HETATM   15  C   UNL     1       6.916  25.238  56.123  1.00  0.00     0.130 C 
HETATM   16  N   UNL     1       7.458  24.682  54.895  1.00  0.00    -0.328 N 
HETATM   17  C   UNL     1       7.714  23.306  54.905  1.00  0.00     0.362 C 
HETATM   18  C   UNL     1       7.221  25.371  53.632  1.00  0.00     0.130 C 
HETATM   19  O   UNL     1       7.585  22.616  55.908  1.00  0.00    -0.238 OA
HETATM   20  C   UNL     1       7.357  26.883  53.750  1.00  0.00     0.053 C 
BRANCH  17  21
HETATM   21  O   UNL     1       8.093  22.836  53.690  1.00  0.00    -0.304 OA
BRANCH  21  22
HETATM   22  C   UNL     1       8.904  21.648  53.696  1.00  0.00     0.176 C 
HETATM   23  C   UNL     1       8.252  20.535  52.895  1.00  0.00     0.034 C 
ENDBRANCH  21  22
ENDBRANCH  17  21
ENDBRANCH   1  13
BRANCH  10  24
HETATM   24  C   UNL     1       6.180  31.711  58.835  1.00  0.00     0.274 C 
BRANCH  24  25
HETATM   25  N   UNL     1       7.333  30.887  59.373  1.00  0.00    -0.054 N 
HETATM   26  H   UNL     1       6.896  29.977  59.576  1.00  0.00     0.281 HD
HETATM   27  C   UNL     1       8.037  31.295  60.681  1.00  0.00     0.287 C 
HETATM   28  C   UNL     1       9.185  32.148  60.189  1.00  0.00     0.045 C 
HETATM   29  C   UNL     1       9.629  31.474  58.896  1.00  0.00     0.030 C 
HETATM   30  C   UNL     1       8.464  30.619  58.413  1.00  0.00     0.236 C 
BRANCH  27  31
HETATM   31  C   UNL     1       7.203  31.918  61.796  1.00  0.00     0.289 C 
HETATM   32  O   UNL     1       6.573  31.287  62.633  1.00  0.00    -0.263 OA
BRANCH  31  33
HETATM   33  O   UNL     1       7.323  33.271  61.745  1.00  0.00    -0.325 OA
HETATM   34  C   UNL     1       6.220  34.017  62.275  1.00  0.00     0.213 C 
ENDBRANCH  31  33
ENDBRANCH  27  31
ENDBRANCH  24  25
ENDBRANCH  10  24
TORSDOF 7
ENDMDL
MODEL 4
REMARK VINA RESULT:      -8.2      2.796      7.681
REMARK  7 active torsions:
REMARK  status: ('A' for Active; 'I' for Inactive)
REMARK    1  A    between atoms: C_2  and  O_3 
REMARK    2  A    between atoms: O_3  and  C_4 
REMARK       I    between atoms: C_4  and  N_5 
REMARK    3  A    between atoms: C_8  and  N_9 
REMARK    4  A    between atoms: C_18  and  C_19 
REMARK    5  A    between atoms: C_19  and  N_20 
REMARK    6  A    between atoms: C_22  and  C_23 
REMARK    7  A    between atoms: C_23  and  O_24 
ROOT
HETATM    1  N   UNL     1       7.591  26.948  55.648  1.00  0.00    -0.061 N 
HETATM    2  H   UNL     1       8.503  26.499  55.487  1.00  0.00     0.280 HD
HETATM    3  C   UNL     1       7.492  28.019  54.554  1.00  0.00     0.276 C 
HETATM    4  C   UNL     1       6.166  28.728  54.473  1.00  0.00     0.002 A 
HETATM    5  C   UNL     1       5.730  29.510  55.542  1.00  0.00     0.076 A 
HETATM    6  O   UNL     1       6.492  29.668  56.663  1.00  0.00    -0.349 OA
HETATM    7  C   UNL     1       6.554  28.460  57.434  1.00  0.00     0.203 C 
HETATM    8  C   UNL     1       7.760  27.616  57.021  1.00  0.00     0.262 C 
HETATM    9  C   UNL     1       5.334  28.628  53.338  1.00  0.00     0.020 A 
HETATM   10  C   UNL     1       4.078  29.278  53.272  1.00  0.00    -0.032 A 
HETATM   11  C   UNL     1       3.686  30.049  54.375  1.00  0.00     0.011 A 
HETATM   12  C   UNL     1       4.518  30.190  55.488  1.00  0.00     0.038 A 
ENDROOT
BRANCH   1  13
HETATM   13  C   UNL     1       6.524  25.841  55.555  1.00  0.00     0.191 C 
HETATM   14  C   UNL     1       6.563  25.140  54.191  1.00  0.00     0.053 C 
HETATM   15  C   UNL     1       7.838  24.334  53.993  1.00  0.00     0.130 C 
HETATM   16  N   UNL     1       8.117  23.443  55.108  1.00  0.00    -0.328 N 
HETATM   17  C   UNL     1       9.007  22.395  54.848  1.00  0.00     0.362 C 
HETATM   18  C   UNL     1       7.935  23.926  56.472  1.00  0.00     0.130 C 
HETATM   19  O   UNL     1       9.458  22.170  53.732  1.00  0.00    -0.238 OA
HETATM   20  C   UNL     1       6.676  24.766  56.638  1.00  0.00     0.053 C 
BRANCH  17  21
HETATM   21  O   UNL     1       9.318  21.686  55.962  1.00  0.00    -0.304 OA
BRANCH  21  22
HETATM   22  C   UNL     1       8.936  20.299  55.956  1.00  0.00     0.176 C 
HETATM   23  C   UNL     1       7.426  20.145  56.008  1.00  0.00     0.034 C 
ENDBRANCH  21  22
ENDBRANCH  17  21
ENDBRANCH   1  13
BRANCH  10  24
HETATM   24  C   UNL     1       3.140  29.009  52.112  1.00  0.00     0.274 C 
BRANCH  24  25
HETATM   25  N   UNL     1       3.263  29.770  50.808  1.00  0.00    -0.054 N 
HETATM   26  H   UNL     1       2.294  29.804  50.463  1.00  0.00     0.281 HD
HETATM   27  C   UNL     1       4.084  29.188  49.642  1.00  0.00     0.287 C 
HETATM   28  C   UNL     1       5.451  29.801  49.857  1.00  0.00     0.045 C 
HETATM   29  C   UNL     1       5.157  31.208  50.365  1.00  0.00     0.030 C 
HETATM   30  C   UNL     1       3.735  31.199  50.914  1.00  0.00     0.236 C 
BRANCH  27  31
HETATM   31  C   UNL     1       4.083  27.677  49.430  1.00  0.00     0.289 C 
HETATM   32  O   UNL     1       3.193  27.051  48.872  1.00  0.00    -0.263 OA
BRANCH  31  33
HETATM   33  O   UNL     1       5.245  27.156  49.903  1.00  0.00    -0.325 OA
HETATM   34  C   UNL     1       5.115  26.036  50.788  1.00  0.00     0.213 C 
ENDBRANCH  31  33
ENDBRANCH  27  31
ENDBRANCH  24  25
ENDBRANCH  10  24
TORSDOF 7
ENDMDL
MODEL 5
REMARK VINA RESULT:      -8.1      3.036      5.922
REMARK  7 active torsions:
REMARK  status: ('A' for Active; 'I' for Inactive)
REMARK    1  A    between atoms: C_2  and  O_3 
REMARK    2  A    between atoms: O_3  and  C_4 
REMARK       I    between atoms: C_4  and  N_5 
REMARK    3  A    between atoms: C_8  and  N_9 
REMARK    4  A    between atoms: C_18  and  C_19 
REMARK    5  A    between atoms: C_19  and  N_20 
REMARK    6  A    between atoms: C_22  and  C_23 
REMARK    7  A    between atoms: C_23  and  O_24 
ROOT
HETATM    1  N   UNL     1       6.668  26.822  56.562  1.00  0.00    -0.061 N 
HETATM    2  H   UNL     1       6.389  27.160  57.492  1.00  0.00     0.280 HD
HETATM    3  C   UNL     1       5.342  26.520  55.850  1.00  0.00     0.276 C 
HETATM    4  C   UNL     1       5.469  26.149  54.395  1.00  0.00     0.002 A 
HETATM    5  C   UNL     1       6.147  24.986  54.033  1.00  0.00     0.076 A 
HETATM    6  O   UNL     1       6.686  24.155  54.972  1.00  0.00    -0.349 OA
HETATM    7  C   UNL     1       7.827  24.749  55.608  1.00  0.00     0.203 C 
HETATM    8  C   UNL     1       7.409  25.511  56.866  1.00  0.00     0.262 C 
HETATM    9  C   UNL     1       4.919  26.948  53.370  1.00  0.00     0.020 A 
HETATM   10  C   UNL     1       5.058  26.609  52.003  1.00  0.00    -0.032 A 
HETATM   11  C   UNL     1       5.751  25.431  51.692  1.00  0.00     0.011 A 
HETATM   12  C   UNL     1       6.264  24.610  52.699  1.00  0.00     0.038 A 
ENDROOT
BRANCH   1  13
HETATM   13  C   UNL     1       7.501  27.941  55.910  1.00  0.00     0.191 C 
HETATM   14  C   UNL     1       6.664  29.208  55.693  1.00  0.00     0.053 C 
HETATM   15  C   UNL     1       6.265  29.867  57.005  1.00  0.00     0.130 C 
HETATM   16  N   UNL     1       7.394  30.068  57.897  1.00  0.00    -0.328 N 
HETATM   17  C   UNL     1       7.210  31.009  58.917  1.00  0.00     0.362 C 
HETATM   18  C   UNL     1       8.381  29.006  58.053  1.00  0.00     0.130 C 
HETATM   19  O   UNL     1       6.202  31.698  59.009  1.00  0.00    -0.238 OA
HETATM   20  C   UNL     1       8.734  28.331  56.734  1.00  0.00     0.053 C 
BRANCH  17  21
HETATM   21  O   UNL     1       8.253  31.049  59.784  1.00  0.00    -0.304 OA
BRANCH  21  22
HETATM   22  C   UNL     1       8.409  32.270  60.529  1.00  0.00     0.176 C 
HETATM   23  C   UNL     1       9.134  32.023  61.841  1.00  0.00     0.034 C 
ENDBRANCH  21  22
ENDBRANCH  17  21
ENDBRANCH   1  13
BRANCH  10  24
HETATM   24  C   UNL     1       4.606  27.576  50.928  1.00  0.00     0.274 C 
BRANCH  24  25
HETATM   25  N   UNL     1       5.237  27.571  49.550  1.00  0.00    -0.054 N 
HETATM   26  H   UNL     1       6.219  27.332  49.742  1.00  0.00     0.281 HD
HETATM   27  C   UNL     1       5.293  28.865  48.715  1.00  0.00     0.287 C 
HETATM   28  C   UNL     1       4.033  28.779  47.882  1.00  0.00     0.045 C 
HETATM   29  C   UNL     1       3.897  27.296  47.555  1.00  0.00     0.030 C 
HETATM   30  C   UNL     1       4.720  26.533  48.586  1.00  0.00     0.236 C 
BRANCH  27  31
HETATM   31  C   UNL     1       5.497  30.192  49.439  1.00  0.00     0.289 C 
HETATM   32  O   UNL     1       6.539  30.542  49.974  1.00  0.00    -0.263 OA
BRANCH  31  33
HETATM   33  O   UNL     1       4.366  30.938  49.339  1.00  0.00    -0.325 OA
HETATM   34  C   UNL     1       3.781  31.356  50.579  1.00  0.00     0.213 C 
ENDBRANCH  31  33
ENDBRANCH  27  31
ENDBRANCH  24  25
ENDBRANCH  10  24
TORSDOF 7
ENDMDL
MODEL 6
REMARK VINA RESULT:      -7.8      3.675      7.868
REMARK  7 active torsions:
REMARK  status: ('A' for Active; 'I' for Inactive)
REMARK    1  A    between atoms: C_2  and  O_3 
REMARK    2  A    between atoms: O_3  and  C_4 
REMARK       I    between atoms: C_4  and  N_5 
REMARK    3  A    between atoms: C_8  and  N_9 
REMARK    4  A    between atoms: C_18  and  C_19 
REMARK    5  A    between atoms: C_19  and  N_20 
REMARK    6  A    between atoms: C_22  and  C_23 
REMARK    7  A    between atoms: C_23  and  O_24 
ROOT
HETATM    1  N   UNL     1       6.890  27.075  54.804  1.00  0.00    -0.061 N 
HETATM    2  H   UNL     1       7.848  26.718  54.917  1.00  0.00     0.280 HD
HETATM    3  C   UNL     1       6.969  28.010  53.589  1.00  0.00     0.276 C 
HETATM    4  C   UNL     1       5.646  28.552  53.114  1.00  0.00     0.002 A 
HETATM    5  C   UNL     1       4.898  29.384  53.945  1.00  0.00     0.076 A 
HETATM    6  O   UNL     1       5.348  29.743  55.183  1.00  0.00    -0.349 OA
HETATM    7  C   UNL     1       5.323  28.635  56.094  1.00  0.00     0.203 C 
HETATM    8  C   UNL     1       6.661  27.896  56.083  1.00  0.00     0.262 C 
HETATM    9  C   UNL     1       5.128  28.242  51.839  1.00  0.00     0.020 A 
HETATM   10  C   UNL     1       3.875  28.734  51.402  1.00  0.00    -0.032 A 
HETATM   11  C   UNL     1       3.162  29.565  52.277  1.00  0.00     0.011 A 
HETATM   12  C   UNL     1       3.683  29.913  53.525  1.00  0.00     0.038 A 
ENDROOT
BRANCH   1  13
HETATM   13  C   UNL     1       5.977  25.851  54.607  1.00  0.00     0.191 C 
HETATM   14  C   UNL     1       6.453  24.979  53.439  1.00  0.00     0.053 C 
HETATM   15  C   UNL     1       7.787  24.305  53.728  1.00  0.00     0.130 C 
HETATM   16  N   UNL     1       7.799  23.613  55.006  1.00  0.00    -0.328 N 
HETATM   17  C   UNL     1       8.799  22.649  55.172  1.00  0.00     0.362 C 
HETATM   18  C   UNL     1       7.202  24.254  56.172  1.00  0.00     0.130 C 
HETATM   19  O   UNL     1       9.565  22.327  54.272  1.00  0.00    -0.238 OA
HETATM   20  C   UNL     1       5.890  24.958  55.851  1.00  0.00     0.053 C 
BRANCH  17  21
HETATM   21  O   UNL     1       8.830  22.139  56.429  1.00  0.00    -0.304 OA
BRANCH  21  22
HETATM   22  C   UNL     1       8.787  20.704  56.531  1.00  0.00     0.176 C 
HETATM   23  C   UNL     1       7.453  20.160  56.051  1.00  0.00     0.034 C 
ENDBRANCH  21  22
ENDBRANCH  17  21
ENDBRANCH   1  13
BRANCH  10  24
HETATM   24  C   UNL     1       3.274  28.242  50.100  1.00  0.00     0.274 C 
BRANCH  24  25
HETATM   25  N   UNL     1       4.119  27.528  49.064  1.00  0.00    -0.054 N 
HETATM   26  H   UNL     1       5.076  27.827  49.296  1.00  0.00     0.281 HD
HETATM   27  C   UNL     1       3.949  27.848  47.567  1.00  0.00     0.287 C 
HETATM   28  C   UNL     1       2.941  26.812  47.117  1.00  0.00     0.045 C 
HETATM   29  C   UNL     1       3.303  25.564  47.914  1.00  0.00     0.030 C 
HETATM   30  C   UNL     1       4.109  26.022  49.123  1.00  0.00     0.236 C 
BRANCH  27  31
HETATM   31  C   UNL     1       3.624  29.281  47.159  1.00  0.00     0.289 C 
HETATM   32  O   UNL     1       2.582  29.636  46.625  1.00  0.00    -0.263 OA
BRANCH  31  33
HETATM   33  O   UNL     1       4.642  30.098  47.535  1.00  0.00    -0.325 OA
HETATM   34  C   UNL     1       4.257  31.359  48.097  1.00  0.00     0.213 C 
ENDBRANCH  31  33
ENDBRANCH  27  31
ENDBRANCH  24  25
ENDBRANCH  10  24
TORSDOF 7
ENDMDL
MODEL 7
REMARK VINA RESULT:      -7.6      2.423      7.995
REMARK  7 active torsions:
REMARK  status: ('A' for Active; 'I' for Inactive)
REMARK    1  A    between atoms: C_2  and  O_3 
REMARK    2  A    between atoms: O_3  and  C_4 
REMARK       I    between atoms: C_4  and  N_5 
REMARK    3  A    between atoms: C_8  and  N_9 
REMARK    4  A    between atoms: C_18  and  C_19 
REMARK    5  A    between atoms: C_19  and  N_20 
REMARK    6  A    between atoms: C_22  and  C_23 
REMARK    7  A    between atoms: C_23  and  O_24 
ROOT
HETATM    1  N   UNL     1       5.532  25.854  52.620  1.00  0.00    -0.061 N 
HETATM    2  H   UNL     1       5.477  24.856  52.864  1.00  0.00     0.280 HD
HETATM    3  C   UNL     1       4.356  26.496  53.369  1.00  0.00     0.276 C 
HETATM    4  C   UNL     1       4.302  28.000  53.301  1.00  0.00     0.002 A 
HETATM    5  C   UNL     1       4.112  28.633  52.073  1.00  0.00     0.076 A 
HETATM    6  O   UNL     1       3.952  27.917  50.922  1.00  0.00    -0.349 OA
HETATM    7  C   UNL     1       5.173  27.278  50.524  1.00  0.00     0.203 C 
HETATM    8  C   UNL     1       5.260  25.868  51.108  1.00  0.00     0.262 C 
HETATM    9  C   UNL     1       4.438  28.805  54.451  1.00  0.00     0.020 A 
HETATM   10  C   UNL     1       4.408  30.218  54.383  1.00  0.00    -0.032 A 
HETATM   11  C   UNL     1       4.219  30.804  53.124  1.00  0.00     0.011 A 
HETATM   12  C   UNL     1       4.040  30.019  51.983  1.00  0.00     0.038 A 
ENDROOT
BRANCH   1  13
HETATM   13  C   UNL     1       6.919  26.349  53.069  1.00  0.00     0.191 C 
HETATM   14  C   UNL     1       7.063  26.305  54.595  1.00  0.00     0.053 C 
HETATM   15  C   UNL     1       7.072  24.882  55.134  1.00  0.00     0.130 C 
HETATM   16  N   UNL     1       8.022  24.028  54.441  1.00  0.00    -0.328 N 
HETATM   17  C   UNL     1       8.393  22.856  55.110  1.00  0.00     0.362 C 
HETATM   18  C   UNL     1       8.126  24.104  52.989  1.00  0.00     0.130 C 
HETATM   19  O   UNL     1       8.024  22.597  56.249  1.00  0.00    -0.238 OA
HETATM   20  C   UNL     1       8.072  25.534  52.468  1.00  0.00     0.053 C 
BRANCH  17  21
HETATM   21  O   UNL     1       9.177  22.048  54.352  1.00  0.00    -0.304 OA
BRANCH  21  22
HETATM   22  C   UNL     1       8.742  20.683  54.225  1.00  0.00     0.176 C 
HETATM   23  C   UNL     1       8.288  20.383  52.807  1.00  0.00     0.034 C 
ENDBRANCH  21  22
ENDBRANCH  17  21
ENDBRANCH   1  13
BRANCH  10  24
HETATM   24  C   UNL     1       4.730  31.048  55.610  1.00  0.00     0.274 C 
BRANCH  24  25
HETATM   25  N   UNL     1       4.904  30.405  56.971  1.00  0.00    -0.054 N 
HETATM   26  H   UNL     1       3.974  30.008  57.163  1.00  0.00     0.281 HD
HETATM   27  C   UNL     1       5.234  31.269  58.203  1.00  0.00     0.287 C 
HETATM   28  C   UNL     1       6.746  31.221  58.248  1.00  0.00     0.045 C 
HETATM   29  C   UNL     1       7.091  29.804  57.807  1.00  0.00     0.030 C 
HETATM   30  C   UNL     1       5.886  29.264  57.046  1.00  0.00     0.236 C 
BRANCH  27  31
HETATM   31  C   UNL     1       4.631  32.667  58.297  1.00  0.00     0.289 C 
HETATM   32  O   UNL     1       5.176  33.690  57.907  1.00  0.00    -0.263 OA
BRANCH  31  33
HETATM   33  O   UNL     1       3.381  32.584  58.823  1.00  0.00    -0.325 OA
HETATM   34  C   UNL     1       3.277  31.921  60.089  1.00  0.00     0.213 C 
ENDBRANCH  31  33
ENDBRANCH  27  31
ENDBRANCH  24  25
ENDBRANCH  10  24
TORSDOF 7
ENDMDL
MODEL 8
REMARK VINA RESULT:      -7.5      3.438      6.361
REMARK  7 active torsions:
REMARK  status: ('A' for Active; 'I' for Inactive)
REMARK    1  A    between atoms: C_2  and  O_3 
REMARK    2  A    between atoms: O_3  and  C_4 
REMARK       I    between atoms: C_4  and  N_5 
REMARK    3  A    between atoms: C_8  and  N_9 
REMARK    4  A    between atoms: C_18  and  C_19 
REMARK    5  A    between atoms: C_19  and  N_20 
REMARK    6  A    between atoms: C_22  and  C_23 
REMARK    7  A    between atoms: C_23  and  O_24 
ROOT
HETATM    1  N   UNL     1       5.957  27.932  56.477  1.00  0.00    -0.061 N 
HETATM    2  H   UNL     1       5.597  28.216  57.398  1.00  0.00     0.280 HD
HETATM    3  C   UNL     1       4.719  27.437  55.716  1.00  0.00     0.276 C 
HETATM    4  C   UNL     1       4.953  27.100  54.267  1.00  0.00     0.002 A 
HETATM    5  C   UNL     1       5.813  26.058  53.926  1.00  0.00     0.076 A 
HETATM    6  O   UNL     1       6.440  25.312  54.882  1.00  0.00    -0.349 OA
HETATM    7  C   UNL     1       7.453  26.068  55.561  1.00  0.00     0.203 C 
HETATM    8  C   UNL     1       6.879  26.747  56.804  1.00  0.00     0.262 C 
HETATM    9  C   UNL     1       4.324  27.814  53.225  1.00  0.00     0.020 A 
HETATM   10  C   UNL     1       4.560  27.511  51.863  1.00  0.00    -0.032 A 
HETATM   11  C   UNL     1       5.437  26.455  51.574  1.00  0.00     0.011 A 
HETATM   12  C   UNL     1       6.034  25.714  52.596  1.00  0.00     0.038 A 
ENDROOT
BRANCH   1  13
HETATM   13  C   UNL     1       6.631  29.170  55.858  1.00  0.00     0.191 C 
HETATM   14  C   UNL     1       5.696  30.386  55.879  1.00  0.00     0.053 C 
HETATM   15  C   UNL     1       5.421  30.878  57.292  1.00  0.00     0.130 C 
HETATM   16  N   UNL     1       6.637  31.074  58.063  1.00  0.00    -0.328 N 
HETATM   17  C   UNL     1       6.521  31.891  59.194  1.00  0.00     0.362 C 
HETATM   18  C   UNL     1       7.700  30.078  57.987  1.00  0.00     0.130 C 
HETATM   19  O   UNL     1       5.491  32.489  59.477  1.00  0.00    -0.238 OA
HETATM   20  C   UNL     1       7.930  29.568  56.571  1.00  0.00     0.053 C 
BRANCH  17  21
HETATM   21  O   UNL     1       7.659  31.922  59.933  1.00  0.00    -0.304 OA
BRANCH  21  22
HETATM   22  C   UNL     1       7.491  31.797  61.357  1.00  0.00     0.176 C 
HETATM   23  C   UNL     1       8.828  31.869  62.074  1.00  0.00     0.034 C 
ENDBRANCH  21  22
ENDBRANCH  17  21
ENDBRANCH   1  13
BRANCH  10  24
HETATM   24  C   UNL     1       4.004  28.406  50.774  1.00  0.00     0.274 C 
BRANCH  24  25
HETATM   25  N   UNL     1       2.595  28.219  50.246  1.00  0.00    -0.054 N 
HETATM   26  H   UNL     1       2.219  27.470  50.842  1.00  0.00     0.281 HD
HETATM   27  C   UNL     1       2.364  27.738  48.801  1.00  0.00     0.287 C 
HETATM   28  C   UNL     1       2.227  29.037  48.035  1.00  0.00     0.045 C 
HETATM   29  C   UNL     1       1.482  29.960  48.991  1.00  0.00     0.030 C 
HETATM   30  C   UNL     1       1.668  29.398  50.395  1.00  0.00     0.236 C 
BRANCH  27  31
HETATM   31  C   UNL     1       3.344  26.736  48.199  1.00  0.00     0.289 C 
HETATM   32  O   UNL     1       3.455  25.570  48.550  1.00  0.00    -0.263 OA
BRANCH  31  33
HETATM   33  O   UNL     1       4.023  27.327  47.180  1.00  0.00    -0.325 OA
HETATM   34  C   UNL     1       5.423  27.538  47.400  1.00  0.00     0.213 C 
ENDBRANCH  31  33
ENDBRANCH  27  31
ENDBRANCH  24  25
ENDBRANCH  10  24
TORSDOF 7
ENDMDL
MODEL 9
REMARK VINA RESULT:      -7.2      2.906      8.865
REMARK  7 active torsions:
REMARK  status: ('A' for Active; 'I' for Inactive)
REMARK    1  A    between atoms: C_2  and  O_3 
REMARK    2  A    between atoms: O_3  and  C_4 
REMARK       I    between atoms: C_4  and  N_5 
REMARK    3  A    between atoms: C_8  and  N_9 
REMARK    4  A    between atoms: C_18  and  C_19 
REMARK    5  A    between atoms: C_19  and  N_20 
REMARK    6  A    between atoms: C_22  and  C_23 
REMARK    7  A    between atoms: C_23  and  O_24 
ROOT
HETATM    1  N   UNL     1       5.100  27.795  55.049  1.00  0.00    -0.061 N 
HETATM    2  H   UNL     1       4.912  26.788  55.139  1.00  0.00     0.280 HD
HETATM    3  C   UNL     1       4.285  28.440  56.179  1.00  0.00     0.276 C 
HETATM    4  C   UNL     1       4.509  29.918  56.364  1.00  0.00     0.002 A 
HETATM    5  C   UNL     1       4.159  30.806  55.348  1.00  0.00     0.076 A 
HETATM    6  O   UNL     1       3.593  30.369  54.185  1.00  0.00    -0.349 OA
HETATM    7  C   UNL     1       4.535  29.649  53.377  1.00  0.00     0.203 C 
HETATM    8  C   UNL     1       4.483  28.154  53.688  1.00  0.00     0.262 C 
HETATM    9  C   UNL     1       5.070  30.445  57.546  1.00  0.00     0.020 A 
HETATM   10  C   UNL     1       5.300  31.832  57.710  1.00  0.00    -0.032 A 
HETATM   11  C   UNL     1       4.934  32.681  56.657  1.00  0.00     0.011 A 
HETATM   12  C   UNL     1       4.339  32.177  55.499  1.00  0.00     0.038 A 
ENDROOT
BRANCH   1  13
HETATM   13  C   UNL     1       6.623  27.979  55.178  1.00  0.00     0.191 C 
HETATM   14  C   UNL     1       7.162  27.312  56.449  1.00  0.00     0.053 C 
HETATM   15  C   UNL     1       7.055  25.796  56.395  1.00  0.00     0.130 C 
HETATM   16  N   UNL     1       7.609  25.238  55.173  1.00  0.00    -0.328 N 
HETATM   17  C   UNL     1       7.925  23.875  55.209  1.00  0.00     0.362 C 
HETATM   18  C   UNL     1       7.330  25.890  53.899  1.00  0.00     0.130 C 
HETATM   19  O   UNL     1       7.836  23.201  56.227  1.00  0.00    -0.238 OA
HETATM   20  C   UNL     1       7.401  27.409  53.985  1.00  0.00     0.053 C 
BRANCH  17  21
HETATM   21  O   UNL     1       8.314  23.398  53.999  1.00  0.00    -0.304 OA
BRANCH  21  22
HETATM   22  C   UNL     1       8.910  22.089  53.998  1.00  0.00     0.176 C 
HETATM   23  C   UNL     1       8.142  21.137  53.097  1.00  0.00     0.034 C 
ENDBRANCH  21  22
ENDBRANCH  17  21
ENDBRANCH   1  13
BRANCH  10  24
HETATM   24  C   UNL     1       6.060  32.341  58.919  1.00  0.00     0.274 C 
BRANCH  24  25
HETATM   25  N   UNL     1       5.394  33.230  59.950  1.00  0.00    -0.054 N 
HETATM   26  H   UNL     1       5.876  34.131  59.830  1.00  0.00     0.281 HD
HETATM   27  C   UNL     1       5.515  32.905  61.451  1.00  0.00     0.287 C 
HETATM   28  C   UNL     1       4.279  32.073  61.713  1.00  0.00     0.045 C 
HETATM   29  C   UNL     1       3.206  32.705  60.835  1.00  0.00     0.030 C 
HETATM   30  C   UNL     1       3.923  33.495  59.747  1.00  0.00     0.236 C 
BRANCH  27  31
HETATM   31  C   UNL     1       6.819  32.302  61.965  1.00  0.00     0.289 C 
HETATM   32  O   UNL     1       7.193  31.158  61.746  1.00  0.00    -0.263 OA
BRANCH  31  33
HETATM   33  O   UNL     1       7.516  33.249  62.645  1.00  0.00    -0.325 OA
HETATM   34  C   UNL     1       7.739  32.984  64.035  1.00  0.00     0.213 C 
ENDBRANCH  31  33
ENDBRANCH  27  31
ENDBRANCH  24  25
ENDBRANCH  10  24
TORSDOF 7
ENDMDL
MODEL 10
REMARK VINA RESULT:      -7.2      3.192      8.231
REMARK  7 active torsions:
REMARK  status: ('A' for Active; 'I' for Inactive)
REMARK    1  A    between atoms: C_2  and  O_3 
REMARK    2  A    between atoms: O_3  and  C_4 
REMARK       I    between atoms: C_4  and  N_5 
REMARK    3  A    between atoms: C_8  and  N_9 
REMARK    4  A    between atoms: C_18  and  C_19 
REMARK    5  A    between atoms: C_19  and  N_20 
REMARK    6  A    between atoms: C_22  and  C_23 
REMARK    7  A    between atoms: C_23  and  O_24 
ROOT
HETATM    1  N   UNL     1       7.704  26.937  55.682  1.00  0.00    -0.061 N 
HETATM    2  H   UNL     1       8.596  26.472  55.468  1.00  0.00     0.280 HD
HETATM    3  C   UNL     1       7.549  27.994  54.579  1.00  0.00     0.276 C 
HETATM    4  C   UNL     1       6.230  28.723  54.575  1.00  0.00     0.002 A 
HETATM    5  C   UNL     1       5.877  29.526  55.658  1.00  0.00     0.076 A 
HETATM    6  O   UNL     1       6.713  29.689  56.725  1.00  0.00    -0.349 OA
HETATM    7  C   UNL     1       6.808  28.490  57.508  1.00  0.00     0.203 C 
HETATM    8  C   UNL     1       7.972  27.622  57.030  1.00  0.00     0.262 C 
HETATM    9  C   UNL     1       5.325  28.619  53.498  1.00  0.00     0.020 A 
HETATM   10  C   UNL     1       4.077  29.287  53.504  1.00  0.00    -0.032 A 
HETATM   11  C   UNL     1       3.769  30.080  54.619  1.00  0.00     0.011 A 
HETATM   12  C   UNL     1       4.674  30.224  55.673  1.00  0.00     0.038 A 
ENDROOT
BRANCH   1  13
HETATM   13  C   UNL     1       6.617  25.846  55.675  1.00  0.00     0.191 C 
HETATM   14  C   UNL     1       6.526  25.156  54.308  1.00  0.00     0.053 C 
HETATM   15  C   UNL     1       7.767  24.334  53.993  1.00  0.00     0.130 C 
HETATM   16  N   UNL     1       8.129  23.430  55.072  1.00  0.00    -0.328 N 
HETATM   17  C   UNL     1       8.978  22.372  54.726  1.00  0.00     0.362 C 
HETATM   18  C   UNL     1       8.076  23.905  56.450  1.00  0.00     0.130 C 
HETATM   19  O   UNL     1       9.326  22.151  53.573  1.00  0.00    -0.238 OA
HETATM   20  C   UNL     1       6.849  24.760  56.732  1.00  0.00     0.053 C 
BRANCH  17  21
HETATM   21  O   UNL     1       9.376  21.650  55.804  1.00  0.00    -0.304 OA
BRANCH  21  22
HETATM   22  C   UNL     1       8.994  20.263  55.811  1.00  0.00     0.176 C 
HETATM   23  C   UNL     1       7.513  20.105  56.110  1.00  0.00     0.034 C 
ENDBRANCH  21  22
ENDBRANCH  17  21
ENDBRANCH   1  13
BRANCH  10  24
HETATM   24  C   UNL     1       3.061  29.016  52.413  1.00  0.00     0.274 C 
BRANCH  24  25
HETATM   25  N   UNL     1       3.291  29.485  50.990  1.00  0.00    -0.054 N 
HETATM   26  H   UNL     1       4.316  29.551  50.928  1.00  0.00     0.281 HD
HETATM   27  C   UNL     1       2.770  30.860  50.530  1.00  0.00     0.287 C 
HETATM   28  C   UNL     1       1.413  30.525  49.951  1.00  0.00     0.045 C 
HETATM   29  C   UNL     1       1.614  29.173  49.277  1.00  0.00     0.030 C 
HETATM   30  C   UNL     1       2.852  28.540  49.900  1.00  0.00     0.236 C 
BRANCH  27  31
HETATM   31  C   UNL     1       2.778  32.014  51.527  1.00  0.00     0.289 C 
HETATM   32  O   UNL     1       1.777  32.531  52.005  1.00  0.00    -0.263 OA
BRANCH  31  33
HETATM   33  O   UNL     1       4.062  32.331  51.839  1.00  0.00    -0.325 OA
HETATM   34  C   UNL     1       4.879  32.779  50.751  1.00  0.00     0.213 C 
ENDBRANCH  31  33
ENDBRANCH  27  31
ENDBRANCH  24  25
ENDBRANCH  10  24
TORSDOF 7
ENDMDL
