MODEL 1
REMARK VINA RESULT:     -10.5      0.000      0.000
REMARK  3 active torsions:
REMARK  status: ('A' for Active; 'I' for Inactive)
REMARK    1  A    between atoms: N_7  and  N_8 
REMARK       I    between atoms: N_8  and  C_9 
REMARK    2  A    between atoms: C_9  and  C_10 
REMARK    3  A    between atoms: C_14  and  C_15 
ROOT
HETATM    1  N   UNL     1       7.850  28.491  56.627  1.00  0.00    -0.241 N 
HETATM    2  C   UNL     1       8.911  29.378  56.694  1.00  0.00     0.289 C 
HETATM    3  O   UNL     1       9.838  29.413  55.889  1.00  0.00    -0.264 OA
HETATM    4  H   UNL     1       7.121  28.506  57.338  1.00  0.00     0.192 HD
ENDROOT
BRANCH   2   5
HETATM    5  C   UNL     1       8.863  30.282  57.817  1.00  0.00     0.121 A 
HETATM    6  N   UNL     1       9.785  31.279  57.967  1.00  0.00    -0.272 N 
HETATM    7  H   UNL     1      10.557  31.490  57.341  1.00  0.00     0.189 HD
HETATM    8  N   UNL     1       9.621  32.018  59.074  1.00  0.00    -0.174 NA
HETATM    9  C   UNL     1       8.532  31.505  59.669  1.00  0.00     0.089 A 
HETATM   10  C   UNL     1       8.028  30.410  58.909  1.00  0.00     0.071 A 
BRANCH   9  11
HETATM   11  C   UNL     1       8.014  32.049  60.928  1.00  0.00    -0.006 A 
HETATM   12  C   UNL     1       8.714  31.881  62.133  1.00  0.00     0.015 A 
HETATM   13  C   UNL     1       8.213  32.411  63.328  1.00  0.00     0.024 A 
HETATM   14  C   UNL     1       7.010  33.112  63.326  1.00  0.00     0.034 A 
HETATM   15 CL   UNL     1       6.399  33.764  64.796  1.00  0.00    -0.084 Cl
HETATM   16  C   UNL     1       6.299  33.286  62.142  1.00  0.00     0.024 A 
HETATM   17  C   UNL     1       6.799  32.754  60.950  1.00  0.00     0.015 A 
ENDBRANCH   9  11
ENDBRANCH   2   5
BRANCH   1  18
HETATM   18  N   UNL     1       7.777  27.555  55.632  1.00  0.00    -0.165 NA
HETATM   19  C   UNL     1       7.713  26.319  56.012  1.00  0.00     0.157 A 
HETATM   20  C   UNL     1       7.639  25.158  55.136  1.00  0.00     0.027 A 
HETATM   21  C   UNL     1       7.710  25.765  57.441  1.00  0.00     0.277 A 
HETATM   22  C   UNL     1       7.611  25.067  53.759  1.00  0.00     0.016 A 
HETATM   23  C   UNL     1       7.597  24.036  55.963  1.00  0.00     0.048 A 
HETATM   24  C   UNL     1       7.539  23.783  53.214  1.00  0.00     0.001 A 
HETATM   25  C   UNL     1       7.498  22.644  54.045  1.00  0.00     0.002 A 
HETATM   26  C   UNL     1       7.527  22.763  55.440  1.00  0.00     0.030 A 
HETATM   27  N   UNL     1       7.640  24.396  57.309  1.00  0.00    -0.321 N 
HETATM   28  H   UNL     1       7.622  23.760  58.092  1.00  0.00     0.169 HD
HETATM   29  O   UNL     1       7.760  26.446  58.445  1.00  0.00    -0.266 OA
ENDBRANCH   1  18
TORSDOF 3
ENDMDL
MODEL 2
REMARK VINA RESULT:     -10.4      1.331      1.673
REMARK  3 active torsions:
REMARK  status: ('A' for Active; 'I' for Inactive)
REMARK    1  A    between atoms: N_7  and  N_8 
REMARK       I    between atoms: N_8  and  C_9 
REMARK    2  A    between atoms: C_9  and  C_10 
REMARK    3  A    between atoms: C_14  and  C_15 
ROOT
HETATM    1  N   UNL     1       6.988  27.632  56.274  1.00  0.00    -0.241 N 
HETATM    2  C   UNL     1       7.770  28.774  56.276  1.00  0.00     0.289 C 
HETATM    3  O   UNL     1       8.673  28.998  55.473  1.00  0.00    -0.264 OA
HETATM    4  H   UNL     1       6.266  27.502  56.980  1.00  0.00     0.192 HD
ENDROOT
BRANCH   2   5
HETATM    5  C   UNL     1       7.455  29.712  57.325  1.00  0.00     0.121 A 
HETATM    6  N   UNL     1       6.520  30.692  57.147  1.00  0.00    -0.272 N 
HETATM    7  H   UNL     1       5.968  30.857  56.310  1.00  0.00     0.189 HD
HETATM    8  N   UNL     1       6.360  31.499  58.205  1.00  0.00    -0.174 NA
HETATM    9  C   UNL     1       7.206  31.020  59.131  1.00  0.00     0.089 A 
HETATM   10  C   UNL     1       7.915  29.898  58.614  1.00  0.00     0.071 A 
BRANCH   9  11
HETATM   11  C   UNL     1       7.328  31.638  60.455  1.00  0.00    -0.006 A 
HETATM   12  C   UNL     1       6.453  32.655  60.865  1.00  0.00     0.015 A 
HETATM   13  C   UNL     1       6.575  33.233  62.135  1.00  0.00     0.024 A 
HETATM   14  C   UNL     1       7.573  32.796  63.002  1.00  0.00     0.034 A 
HETATM   15 CL   UNL     1       7.718  33.506  64.563  1.00  0.00    -0.084 Cl
HETATM   16  C   UNL     1       8.454  31.792  62.612  1.00  0.00     0.024 A 
HETATM   17  C   UNL     1       8.332  31.218  61.344  1.00  0.00     0.015 A 
ENDBRANCH   9  11
ENDBRANCH   2   5
BRANCH   1  18
HETATM   18  N   UNL     1       7.193  26.640  55.354  1.00  0.00    -0.165 NA
HETATM   19  C   UNL     1       7.630  25.513  55.816  1.00  0.00     0.157 A 
HETATM   20  C   UNL     1       7.927  24.324  55.028  1.00  0.00     0.027 A 
HETATM   21  C   UNL     1       7.950  25.142  57.268  1.00  0.00     0.277 A 
HETATM   22  C   UNL     1       7.824  24.092  53.672  1.00  0.00     0.016 A 
HETATM   23  C   UNL     1       8.378  23.354  55.923  1.00  0.00     0.048 A 
HETATM   24  C   UNL     1       8.197  22.824  53.219  1.00  0.00     0.001 A 
HETATM   25  C   UNL     1       8.655  21.839  54.119  1.00  0.00     0.002 A 
HETATM   26  C   UNL     1       8.750  22.100  55.492  1.00  0.00     0.030 A 
HETATM   27  N   UNL     1       8.390  23.837  57.230  1.00  0.00    -0.321 N 
HETATM   28  H   UNL     1       8.677  23.321  58.049  1.00  0.00     0.169 HD
HETATM   29  O   UNL     1       7.822  25.890  58.216  1.00  0.00    -0.266 OA
ENDBRANCH   1  18
TORSDOF 3
ENDMDL
MODEL 3
REMARK VINA RESULT:     -10.0      1.490      2.128
REMARK  3 active torsions:
REMARK  status: ('A' for Active; 'I' for Inactive)
REMARK    1  A    between atoms: N_7  and  N_8 
REMARK       I    between atoms: N_8  and  C_9 
REMARK    2  A    between atoms: C_9  and  C_10 
REMARK    3  A    between atoms: C_14  and  C_15 
ROOT
HETATM    1  N   UNL     1       8.146  28.573  57.188  1.00  0.00    -0.241 N 
HETATM    2  C   UNL     1       9.199  29.464  57.302  1.00  0.00     0.289 C 
HETATM    3  O   UNL     1      10.208  29.440  56.601  1.00  0.00    -0.264 OA
HETATM    4  H   UNL     1       7.345  28.640  57.814  1.00  0.00     0.192 HD
ENDROOT
BRANCH   2   5
HETATM    5  C   UNL     1       9.037  30.452  58.341  1.00  0.00     0.121 A 
HETATM    6  N   UNL     1       9.827  31.564  58.395  1.00  0.00    -0.272 N 
HETATM    7  H   UNL     1      10.569  31.812  57.747  1.00  0.00     0.189 HD
HETATM    8  N   UNL     1       9.570  32.372  59.434  1.00  0.00    -0.174 NA
HETATM    9  C   UNL     1       8.551  31.783  60.080  1.00  0.00     0.089 A 
HETATM   10  C   UNL     1       8.189  30.572  59.424  1.00  0.00     0.071 A 
BRANCH   9  11
HETATM   11  C   UNL     1       7.966  32.368  61.290  1.00  0.00    -0.006 A 
HETATM   12  C   UNL     1       6.815  33.169  61.226  1.00  0.00     0.015 A 
HETATM   13  C   UNL     1       6.262  33.716  62.390  1.00  0.00     0.024 A 
HETATM   14  C   UNL     1       6.855  33.466  63.625  1.00  0.00     0.034 A 
HETATM   15 CL   UNL     1       6.170  34.138  65.053  1.00  0.00    -0.084 Cl
HETATM   16  C   UNL     1       7.999  32.678  63.709  1.00  0.00     0.024 A 
HETATM   17  C   UNL     1       8.552  32.135  62.546  1.00  0.00     0.015 A 
ENDBRANCH   9  11
ENDBRANCH   2   5
BRANCH   1  18
HETATM   18  N   UNL     1       8.175  27.563  56.266  1.00  0.00    -0.165 NA
HETATM   19  C   UNL     1       7.052  27.288  55.682  1.00  0.00     0.157 A 
HETATM   20  C   UNL     1       6.841  26.254  54.679  1.00  0.00     0.027 A 
HETATM   21  C   UNL     1       5.686  27.952  55.892  1.00  0.00     0.277 A 
HETATM   22  C   UNL     1       7.720  25.353  54.113  1.00  0.00     0.016 A 
HETATM   23  C   UNL     1       5.490  26.301  54.335  1.00  0.00     0.048 A 
HETATM   24  C   UNL     1       7.196  24.472  53.164  1.00  0.00     0.001 A 
HETATM   25  C   UNL     1       5.830  24.515  52.812  1.00  0.00     0.002 A 
HETATM   26  C   UNL     1       4.958  25.439  53.402  1.00  0.00     0.030 A 
HETATM   27  N   UNL     1       4.820  27.295  55.047  1.00  0.00    -0.321 N 
HETATM   28  H   UNL     1       3.839  27.518  54.970  1.00  0.00     0.169 HD
HETATM   29  O   UNL     1       5.475  28.867  56.662  1.00  0.00    -0.266 OA
ENDBRANCH   1  18
TORSDOF 3
ENDMDL
MODEL 4
REMARK VINA RESULT:      -9.9      3.903      9.511
REMARK  3 active torsions:
REMARK  status: ('A' for Active; 'I' for Inactive)
REMARK    1  A    between atoms: N_7  and  N_8 
REMARK       I    between atoms: N_8  and  C_9 
REMARK    2  A    between atoms: C_9  and  C_10 
REMARK    3  A    between atoms: C_14  and  C_15 
ROOT
HETATM    1  N   UNL     1       6.940  30.715  58.186  1.00  0.00    -0.241 N 
HETATM    2  C   UNL     1       5.973  29.984  57.517  1.00  0.00     0.289 C 
HETATM    3  O   UNL     1       4.764  30.101  57.701  1.00  0.00    -0.264 OA
HETATM    4  H   UNL     1       7.928  30.557  57.996  1.00  0.00     0.192 HD
ENDROOT
BRANCH   2   5
HETATM    5  C   UNL     1       6.495  29.035  56.565  1.00  0.00     0.121 A 
HETATM    6  N   UNL     1       7.252  29.436  55.501  1.00  0.00    -0.272 N 
HETATM    7  H   UNL     1       7.524  30.389  55.276  1.00  0.00     0.189 HD
HETATM    8  N   UNL     1       7.640  28.438  54.693  1.00  0.00    -0.174 NA
HETATM    9  C   UNL     1       7.139  27.328  55.259  1.00  0.00     0.089 A 
HETATM   10  C   UNL     1       6.411  27.662  56.436  1.00  0.00     0.071 A 
BRANCH   9  11
HETATM   11  C   UNL     1       7.350  26.002  54.669  1.00  0.00    -0.006 A 
HETATM   12  C   UNL     1       7.705  25.856  53.319  1.00  0.00     0.015 A 
HETATM   13  C   UNL     1       7.910  24.585  52.769  1.00  0.00     0.024 A 
HETATM   14  C   UNL     1       7.762  23.452  53.565  1.00  0.00     0.034 A 
HETATM   15 CL   UNL     1       8.019  21.893  52.886  1.00  0.00    -0.084 Cl
HETATM   16  C   UNL     1       7.407  23.576  54.905  1.00  0.00     0.024 A 
HETATM   17  C   UNL     1       7.199  24.845  55.452  1.00  0.00     0.015 A 
ENDBRANCH   9  11
ENDBRANCH   2   5
BRANCH   1  18
HETATM   18  N   UNL     1       6.594  31.633  59.140  1.00  0.00    -0.165 NA
HETATM   19  C   UNL     1       7.265  31.590  60.246  1.00  0.00     0.157 A 
HETATM   20  C   UNL     1       7.069  32.458  61.399  1.00  0.00     0.027 A 
HETATM   21  C   UNL     1       8.405  30.639  60.628  1.00  0.00     0.277 A 
HETATM   22  C   UNL     1       6.180  33.492  61.609  1.00  0.00     0.016 A 
HETATM   23  C   UNL     1       7.995  32.057  62.362  1.00  0.00     0.048 A 
HETATM   24  C   UNL     1       6.242  34.136  62.847  1.00  0.00     0.001 A 
HETATM   25  C   UNL     1       7.176  33.735  63.826  1.00  0.00     0.002 A 
HETATM   26  C   UNL     1       8.068  32.682  63.588  1.00  0.00     0.030 A 
HETATM   27  N   UNL     1       8.773  30.994  61.907  1.00  0.00    -0.321 N 
HETATM   28  H   UNL     1       9.507  30.535  62.424  1.00  0.00     0.169 HD
HETATM   29  O   UNL     1       8.849  29.769  59.906  1.00  0.00    -0.266 OA
ENDBRANCH   1  18
TORSDOF 3
ENDMDL
MODEL 5
REMARK VINA RESULT:      -9.2      4.185      9.876
REMARK  3 active torsions:
REMARK  status: ('A' for Active; 'I' for Inactive)
REMARK    1  A    between atoms: N_7  and  N_8 
REMARK       I    between atoms: N_8  and  C_9 
REMARK    2  A    between atoms: C_9  and  C_10 
REMARK    3  A    between atoms: C_14  and  C_15 
ROOT
HETATM    1  N   UNL     1       7.201  31.168  61.303  1.00  0.00    -0.241 N 
HETATM    2  C   UNL     1       7.840  31.598  60.153  1.00  0.00     0.289 C 
HETATM    3  O   UNL     1       8.609  32.556  60.104  1.00  0.00    -0.264 OA
HETATM    4  H   UNL     1       6.562  30.375  61.270  1.00  0.00     0.192 HD
ENDROOT
BRANCH   2   5
HETATM    5  C   UNL     1       7.527  30.831  58.973  1.00  0.00     0.121 A 
HETATM    6  N   UNL     1       6.633  31.284  58.045  1.00  0.00    -0.272 N 
HETATM    7  H   UNL     1       6.123  32.163  58.075  1.00  0.00     0.189 HD
HETATM    8  N   UNL     1       6.431  30.446  57.019  1.00  0.00    -0.174 NA
HETATM    9  C   UNL     1       7.243  29.405  57.264  1.00  0.00     0.089 A 
HETATM   10  C   UNL     1       7.948  29.609  58.485  1.00  0.00     0.071 A 
BRANCH   9  11
HETATM   11  C   UNL     1       7.318  28.257  56.356  1.00  0.00    -0.006 A 
HETATM   12  C   UNL     1       7.241  26.942  56.841  1.00  0.00     0.015 A 
HETATM   13  C   UNL     1       7.307  25.853  55.963  1.00  0.00     0.024 A 
HETATM   14  C   UNL     1       7.449  26.072  54.595  1.00  0.00     0.034 A 
HETATM   15 CL   UNL     1       7.526  24.731  53.520  1.00  0.00    -0.084 Cl
HETATM   16  C   UNL     1       7.531  27.368  54.095  1.00  0.00     0.024 A 
HETATM   17  C   UNL     1       7.468  28.454  54.973  1.00  0.00     0.015 A 
ENDBRANCH   9  11
ENDBRANCH   2   5
BRANCH   1  18
HETATM   18  N   UNL     1       7.379  31.819  62.494  1.00  0.00    -0.165 NA
HETATM   19  C   UNL     1       6.316  32.320  63.036  1.00  0.00     0.157 A 
HETATM   20  C   UNL     1       6.265  33.059  64.291  1.00  0.00     0.027 A 
HETATM   21  C   UNL     1       4.875  32.280  62.516  1.00  0.00     0.277 A 
HETATM   22  C   UNL     1       7.264  33.395  65.181  1.00  0.00     0.016 A 
HETATM   23  C   UNL     1       4.932  33.419  64.488  1.00  0.00     0.048 A 
HETATM   24  C   UNL     1       6.883  34.125  66.310  1.00  0.00     0.001 A 
HETATM   25  C   UNL     1       5.536  34.493  66.515  1.00  0.00     0.002 A 
HETATM   26  C   UNL     1       4.541  34.138  65.595  1.00  0.00     0.030 A 
HETATM   27  N   UNL     1       4.124  32.962  63.448  1.00  0.00    -0.321 N 
HETATM   28  H   UNL     1       3.128  33.099  63.369  1.00  0.00     0.169 HD
HETATM   29  O   UNL     1       4.529  31.741  61.485  1.00  0.00    -0.266 OA
ENDBRANCH   1  18
TORSDOF 3
ENDMDL
MODEL 6
REMARK VINA RESULT:      -9.1      3.671      9.465
REMARK  3 active torsions:
REMARK  status: ('A' for Active; 'I' for Inactive)
REMARK    1  A    between atoms: N_7  and  N_8 
REMARK       I    between atoms: N_8  and  C_9 
REMARK    2  A    between atoms: C_9  and  C_10 
REMARK    3  A    between atoms: C_14  and  C_15 
ROOT
HETATM    1  N   UNL     1       6.868  31.297  59.749  1.00  0.00    -0.241 N 
HETATM    2  C   UNL     1       8.023  31.339  58.986  1.00  0.00     0.289 C 
HETATM    3  O   UNL     1       8.754  32.321  58.888  1.00  0.00    -0.264 OA
HETATM    4  H   UNL     1       6.298  30.453  59.772  1.00  0.00     0.192 HD
ENDROOT
BRANCH   2   5
HETATM    5  C   UNL     1       8.317  30.117  58.279  1.00  0.00     0.121 A 
HETATM    6  N   UNL     1       9.528  29.914  57.681  1.00  0.00    -0.272 N 
HETATM    7  H   UNL     1      10.314  30.557  57.672  1.00  0.00     0.189 HD
HETATM    8  N   UNL     1       9.637  28.740  57.042  1.00  0.00    -0.174 NA
HETATM    9  C   UNL     1       8.459  28.130  57.246  1.00  0.00     0.089 A 
HETATM   10  C   UNL     1       7.601  28.965  58.018  1.00  0.00     0.071 A 
BRANCH   9  11
HETATM   11  C   UNL     1       8.177  26.798  56.701  1.00  0.00    -0.006 A 
HETATM   12  C   UNL     1       8.517  25.636  57.411  1.00  0.00     0.015 A 
HETATM   13  C   UNL     1       8.236  24.370  56.884  1.00  0.00     0.024 A 
HETATM   14  C   UNL     1       7.614  24.258  55.643  1.00  0.00     0.034 A 
HETATM   15 CL   UNL     1       7.267  22.700  55.000  1.00  0.00    -0.084 Cl
HETATM   16  C   UNL     1       7.273  25.398  54.922  1.00  0.00     0.024 A 
HETATM   17  C   UNL     1       7.556  26.661  55.448  1.00  0.00     0.015 A 
ENDBRANCH   9  11
ENDBRANCH   2   5
BRANCH   1  18
HETATM   18  N   UNL     1       6.448  32.393  60.451  1.00  0.00    -0.165 NA
HETATM   19  C   UNL     1       6.855  32.478  61.677  1.00  0.00     0.157 A 
HETATM   20  C   UNL     1       6.529  33.545  62.614  1.00  0.00     0.027 A 
HETATM   21  C   UNL     1       7.752  31.504  62.449  1.00  0.00     0.277 A 
HETATM   22  C   UNL     1       5.758  34.678  62.457  1.00  0.00     0.016 A 
HETATM   23  C   UNL     1       7.167  33.231  63.814  1.00  0.00     0.048 A 
HETATM   24  C   UNL     1       5.636  35.517  63.568  1.00  0.00     0.001 A 
HETATM   25  C   UNL     1       6.277  35.204  64.785  1.00  0.00     0.002 A 
HETATM   26  C   UNL     1       7.055  34.047  64.918  1.00  0.00     0.030 A 
HETATM   27  N   UNL     1       7.879  32.037  63.712  1.00  0.00    -0.321 N 
HETATM   28  H   UNL     1       8.419  31.607  64.448  1.00  0.00     0.169 HD
HETATM   29  O   UNL     1       8.224  30.486  61.986  1.00  0.00    -0.266 OA
ENDBRANCH   1  18
TORSDOF 3
ENDMDL
MODEL 7
REMARK VINA RESULT:      -9.1      3.317      4.344
REMARK  3 active torsions:
REMARK  status: ('A' for Active; 'I' for Inactive)
REMARK    1  A    between atoms: N_7  and  N_8 
REMARK       I    between atoms: N_8  and  C_9 
REMARK    2  A    between atoms: C_9  and  C_10 
REMARK    3  A    between atoms: C_14  and  C_15 
ROOT
HETATM    1  N   UNL     1       6.132  25.736  54.917  1.00  0.00    -0.241 N 
HETATM    2  C   UNL     1       5.295  26.647  54.296  1.00  0.00     0.289 C 
HETATM    3  O   UNL     1       4.834  26.506  53.166  1.00  0.00    -0.264 OA
HETATM    4  H   UNL     1       6.493  25.923  55.851  1.00  0.00     0.192 HD
ENDROOT
BRANCH   2   5
HETATM    5  C   UNL     1       4.999  27.819  55.082  1.00  0.00     0.121 A 
HETATM    6  N   UNL     1       3.995  28.676  54.731  1.00  0.00    -0.272 N 
HETATM    7  H   UNL     1       3.376  28.589  53.930  1.00  0.00     0.189 HD
HETATM    8  N   UNL     1       3.862  29.731  55.548  1.00  0.00    -0.174 NA
HETATM    9  C   UNL     1       4.799  29.553  56.492  1.00  0.00     0.089 A 
HETATM   10  C   UNL     1       5.536  28.362  56.233  1.00  0.00     0.071 A 
BRANCH   9  11
HETATM   11  C   UNL     1       4.977  30.507  57.591  1.00  0.00    -0.006 A 
HETATM   12  C   UNL     1       3.873  31.069  58.250  1.00  0.00     0.015 A 
HETATM   13  C   UNL     1       4.056  31.974  59.303  1.00  0.00     0.024 A 
HETATM   14  C   UNL     1       5.343  32.323  59.702  1.00  0.00     0.034 A 
HETATM   15 CL   UNL     1       5.564  33.433  60.998  1.00  0.00    -0.084 Cl
HETATM   16  C   UNL     1       6.451  31.780  59.058  1.00  0.00     0.024 A 
HETATM   17  C   UNL     1       6.267  30.878  58.005  1.00  0.00     0.015 A 
ENDBRANCH   9  11
ENDBRANCH   2   5
BRANCH   1  18
HETATM   18  N   UNL     1       6.524  24.590  54.279  1.00  0.00    -0.165 NA
HETATM   19  C   UNL     1       7.182  23.734  54.993  1.00  0.00     0.157 A 
HETATM   20  C   UNL     1       7.705  22.456  54.528  1.00  0.00     0.027 A 
HETATM   21  C   UNL     1       7.583  23.838  56.469  1.00  0.00     0.277 A 
HETATM   22  C   UNL     1       7.639  21.852  53.290  1.00  0.00     0.016 A 
HETATM   23  C   UNL     1       8.349  21.869  55.617  1.00  0.00     0.048 A 
HETATM   24  C   UNL     1       8.255  20.604  53.163  1.00  0.00     0.001 A 
HETATM   25  C   UNL     1       8.909  20.005  54.261  1.00  0.00     0.002 A 
HETATM   26  C   UNL     1       8.961  20.640  55.508  1.00  0.00     0.030 A 
HETATM   27  N   UNL     1       8.275  22.680  56.748  1.00  0.00    -0.321 N 
HETATM   28  H   UNL     1       8.667  22.469  57.654  1.00  0.00     0.169 HD
HETATM   29  O   UNL     1       7.315  24.775  57.192  1.00  0.00    -0.266 OA
ENDBRANCH   1  18
TORSDOF 3
ENDMDL
MODEL 8
REMARK VINA RESULT:      -8.9      4.364      9.500
REMARK  3 active torsions:
REMARK  status: ('A' for Active; 'I' for Inactive)
REMARK    1  A    between atoms: N_7  and  N_8 
REMARK       I    between atoms: N_8  and  C_9 
REMARK    2  A    between atoms: C_9  and  C_10 
REMARK    3  A    between atoms: C_14  and  C_15 
ROOT
HETATM    1  N   UNL     1       8.089  28.718  57.194  1.00  0.00    -0.241 N 
HETATM    2  C   UNL     1       7.781  27.376  57.052  1.00  0.00     0.289 C 
HETATM    3  O   UNL     1       7.886  26.542  57.948  1.00  0.00    -0.264 OA
HETATM    4  H   UNL     1       7.994  29.354  56.404  1.00  0.00     0.192 HD
ENDROOT
BRANCH   2   5
HETATM    5  C   UNL     1       7.324  27.004  55.736  1.00  0.00     0.121 A 
HETATM    6  N   UNL     1       7.499  25.738  55.253  1.00  0.00    -0.272 N 
HETATM    7  H   UNL     1       7.936  24.960  55.738  1.00  0.00     0.189 HD
HETATM    8  N   UNL     1       7.043  25.557  54.005  1.00  0.00    -0.174 NA
HETATM    9  C   UNL     1       6.525  26.745  53.655  1.00  0.00     0.089 A 
HETATM   10  C   UNL     1       6.684  27.682  54.716  1.00  0.00     0.071 A 
BRANCH   9  11
HETATM   11  C   UNL     1       5.914  26.961  52.340  1.00  0.00    -0.006 A 
HETATM   12  C   UNL     1       5.677  28.257  51.854  1.00  0.00     0.015 A 
HETATM   13  C   UNL     1       5.100  28.451  50.593  1.00  0.00     0.024 A 
HETATM   14  C   UNL     1       4.756  27.352  49.811  1.00  0.00     0.034 A 
HETATM   15 CL   UNL     1       4.050  27.594  48.261  1.00  0.00    -0.084 Cl
HETATM   16  C   UNL     1       4.978  26.059  50.277  1.00  0.00     0.024 A 
HETATM   17  C   UNL     1       5.553  25.867  51.537  1.00  0.00     0.015 A 
ENDBRANCH   9  11
ENDBRANCH   2   5
BRANCH   1  18
HETATM   18  N   UNL     1       8.563  29.210  58.380  1.00  0.00    -0.165 NA
HETATM   19  C   UNL     1       7.866  30.155  58.926  1.00  0.00     0.157 A 
HETATM   20  C   UNL     1       8.180  30.833  60.177  1.00  0.00     0.027 A 
HETATM   21  C   UNL     1       6.572  30.798  58.415  1.00  0.00     0.277 A 
HETATM   22  C   UNL     1       9.226  30.661  61.059  1.00  0.00     0.016 A 
HETATM   23  C   UNL     1       7.175  31.780  60.380  1.00  0.00     0.048 A 
HETATM   24  C   UNL     1       9.244  31.486  62.186  1.00  0.00     0.001 A 
HETATM   25  C   UNL     1       8.232  32.446  62.396  1.00  0.00     0.002 A 
HETATM   26  C   UNL     1       7.179  32.602  61.485  1.00  0.00     0.030 A 
HETATM   27  N   UNL     1       6.239  31.755  59.348  1.00  0.00    -0.321 N 
HETATM   28  H   UNL     1       5.425  32.346  59.274  1.00  0.00     0.169 HD
HETATM   29  O   UNL     1       6.004  30.484  57.389  1.00  0.00    -0.266 OA
ENDBRANCH   1  18
TORSDOF 3
ENDMDL
MODEL 9
REMARK VINA RESULT:      -8.9      4.158      5.174
REMARK  3 active torsions:
REMARK  status: ('A' for Active; 'I' for Inactive)
REMARK    1  A    between atoms: N_7  and  N_8 
REMARK       I    between atoms: N_8  and  C_9 
REMARK    2  A    between atoms: C_9  and  C_10 
REMARK    3  A    between atoms: C_14  and  C_15 
ROOT
HETATM    1  N   UNL     1       6.623  25.656  56.171  1.00  0.00    -0.241 N 
HETATM    2  C   UNL     1       5.413  26.031  56.730  1.00  0.00     0.289 C 
HETATM    3  O   UNL     1       4.685  25.281  57.374  1.00  0.00    -0.264 OA
HETATM    4  H   UNL     1       7.171  26.326  55.633  1.00  0.00     0.192 HD
ENDROOT
BRANCH   2   5
HETATM    5  C   UNL     1       5.044  27.404  56.488  1.00  0.00     0.121 A 
HETATM    6  N   UNL     1       4.229  27.750  55.448  1.00  0.00    -0.272 N 
HETATM    7  H   UNL     1       3.810  27.119  54.771  1.00  0.00     0.189 HD
HETATM    8  N   UNL     1       4.000  29.067  55.342  1.00  0.00    -0.174 NA
HETATM    9  C   UNL     1       4.671  29.614  56.368  1.00  0.00     0.089 A 
HETATM   10  C   UNL     1       5.342  28.600  57.111  1.00  0.00     0.071 A 
BRANCH   9  11
HETATM   11  C   UNL     1       4.669  31.060  56.606  1.00  0.00    -0.006 A 
HETATM   12  C   UNL     1       4.861  31.584  57.894  1.00  0.00     0.015 A 
HETATM   13  C   UNL     1       4.864  32.968  58.107  1.00  0.00     0.024 A 
HETATM   14  C   UNL     1       4.677  33.836  57.034  1.00  0.00     0.034 A 
HETATM   15 CL   UNL     1       4.685  35.536  57.300  1.00  0.00    -0.084 Cl
HETATM   16  C   UNL     1       4.481  33.336  55.750  1.00  0.00     0.024 A 
HETATM   17  C   UNL     1       4.475  31.954  55.539  1.00  0.00     0.015 A 
ENDBRANCH   9  11
ENDBRANCH   2   5
BRANCH   1  18
HETATM   18  N   UNL     1       7.089  24.375  56.293  1.00  0.00    -0.165 NA
HETATM   19  C   UNL     1       7.300  23.735  55.188  1.00  0.00     0.157 A 
HETATM   20  C   UNL     1       7.784  22.366  55.072  1.00  0.00     0.027 A 
HETATM   21  C   UNL     1       7.095  24.229  53.751  1.00  0.00     0.277 A 
HETATM   22  C   UNL     1       8.129  21.446  56.041  1.00  0.00     0.016 A 
HETATM   23  C   UNL     1       7.854  22.082  53.709  1.00  0.00     0.048 A 
HETATM   24  C   UNL     1       8.561  20.195  55.598  1.00  0.00     0.001 A 
HETATM   25  C   UNL     1       8.634  19.900  54.219  1.00  0.00     0.002 A 
HETATM   26  C   UNL     1       8.277  20.851  53.255  1.00  0.00     0.030 A 
HETATM   27  N   UNL     1       7.451  23.173  52.941  1.00  0.00    -0.321 N 
HETATM   28  H   UNL     1       7.416  23.207  51.933  1.00  0.00     0.169 HD
HETATM   29  O   UNL     1       6.698  25.336  53.452  1.00  0.00    -0.266 OA
ENDBRANCH   1  18
TORSDOF 3
ENDMDL
MODEL 10
REMARK VINA RESULT:      -8.9      2.503      3.277
REMARK  3 active torsions:
REMARK  status: ('A' for Active; 'I' for Inactive)
REMARK    1  A    between atoms: N_7  and  N_8 
REMARK       I    between atoms: N_8  and  C_9 
REMARK    2  A    between atoms: C_9  and  C_10 
REMARK    3  A    between atoms: C_14  and  C_15 
ROOT
HETATM    1  N   UNL     1       7.514  29.304  58.402  1.00  0.00    -0.241 N 
HETATM    2  C   UNL     1       8.563  30.068  58.885  1.00  0.00     0.289 C 
HETATM    3  O   UNL     1       9.637  30.215  58.307  1.00  0.00    -0.264 OA
HETATM    4  H   UNL     1       6.655  29.212  58.941  1.00  0.00     0.192 HD
ENDROOT
BRANCH   2   5
HETATM    5  C   UNL     1       8.310  30.694  60.159  1.00  0.00     0.121 A 
HETATM    6  N   UNL     1       8.914  30.252  61.301  1.00  0.00    -0.272 N 
HETATM    7  H   UNL     1       9.576  29.484  61.379  1.00  0.00     0.189 HD
HETATM    8  N   UNL     1       8.556  30.920  62.408  1.00  0.00    -0.174 NA
HETATM    9  C   UNL     1       7.698  31.858  61.977  1.00  0.00     0.089 A 
HETATM   10  C   UNL     1       7.516  31.747  60.568  1.00  0.00     0.071 A 
BRANCH   9  11
HETATM   11  C   UNL     1       7.074  32.812  62.899  1.00  0.00    -0.006 A 
HETATM   12  C   UNL     1       7.506  32.924  64.229  1.00  0.00     0.015 A 
HETATM   13  C   UNL     1       6.906  33.843  65.099  1.00  0.00     0.024 A 
HETATM   14  C   UNL     1       5.871  34.656  64.643  1.00  0.00     0.034 A 
HETATM   15 CL   UNL     1       5.139  35.786  65.713  1.00  0.00    -0.084 Cl
HETATM   16  C   UNL     1       5.426  34.557  63.328  1.00  0.00     0.024 A 
HETATM   17  C   UNL     1       6.024  33.637  62.462  1.00  0.00     0.015 A 
ENDBRANCH   9  11
ENDBRANCH   2   5
BRANCH   1  18
HETATM   18  N   UNL     1       7.622  28.627  57.218  1.00  0.00    -0.165 NA
HETATM   19  C   UNL     1       6.543  28.539  56.509  1.00  0.00     0.157 A 
HETATM   20  C   UNL     1       6.416  27.862  55.225  1.00  0.00     0.027 A 
HETATM   21  C   UNL     1       5.151  29.098  56.825  1.00  0.00     0.277 A 
HETATM   22  C   UNL     1       7.349  27.185  54.467  1.00  0.00     0.016 A 
HETATM   23  C   UNL     1       5.087  28.005  54.827  1.00  0.00     0.048 A 
HETATM   24  C   UNL     1       6.904  26.636  53.262  1.00  0.00     0.001 A 
HETATM   25  C   UNL     1       5.560  26.776  52.855  1.00  0.00     0.002 A 
HETATM   26  C   UNL     1       4.633  27.469  53.643  1.00  0.00     0.030 A 
HETATM   27  N   UNL     1       4.352  28.727  55.766  1.00  0.00    -0.321 N 
HETATM   28  H   UNL     1       3.372  28.958  55.699  1.00  0.00     0.169 HD
HETATM   29  O   UNL     1       4.871  29.730  57.823  1.00  0.00    -0.266 OA
ENDBRANCH   1  18
TORSDOF 3
ENDMDL
