MODEL 1
REMARK VINA RESULT:      -8.5      0.000      0.000
REMARK  5 active torsions:
REMARK  status: ('A' for Active; 'I' for Inactive)
REMARK    1  A    between atoms: C_2  and  C_3 
REMARK    2  A    between atoms: C_3  and  N_4 
REMARK    3  A    between atoms: C_3  and  C_19 
REMARK       I    between atoms: N_4  and  C_5 
REMARK    4  A    between atoms: C_5  and  C_6 
REMARK    5  A    between atoms: C_7  and  C_8 
ROOT
HETATM    1  N   UNL     1       8.150  27.853  56.476  1.00  0.00    -0.345 N 
HETATM    2  C   UNL     1       7.668  26.652  56.923  1.00  0.00     0.255 C 
HETATM    3  O   UNL     1       7.909  26.202  58.036  1.00  0.00    -0.268 OA
HETATM    4  H   UNL     1       7.943  28.170  55.535  1.00  0.00     0.163 HD
ENDROOT
BRANCH   2   5
HETATM    5  C   UNL     1       6.800  25.994  55.966  1.00  0.00     0.075 A 
HETATM    6  C   UNL     1       7.040  24.942  55.024  1.00  0.00     0.076 A 
HETATM    7  N   UNL     1       5.919  24.675  54.327  1.00  0.00    -0.178 NA
HETATM    8  N   UNL     1       4.991  25.490  54.832  1.00  0.00    -0.288 N 
HETATM    9  H   UNL     1       4.050  25.434  54.457  1.00  0.00     0.188 HD
HETATM   10  C   UNL     1       5.465  26.319  55.793  1.00  0.00     0.128 A 
BRANCH   6  11
HETATM   11  C   UNL     1       8.325  24.232  54.621  1.00  0.00     0.040 C 
HETATM   12  C   UNL     1       8.850  23.176  55.606  1.00  0.00     0.011 C 
HETATM   13  C   UNL     1       7.972  21.928  55.648  1.00  0.00     0.001 C 
HETATM   14  C   UNL     1       7.843  21.298  54.263  1.00  0.00     0.000 C 
HETATM   15  C   UNL     1       7.380  22.309  53.218  1.00  0.00     0.001 C 
HETATM   16  C   UNL     1       8.248  23.569  53.223  1.00  0.00     0.011 C 
ENDBRANCH   6  11
ENDBRANCH   2   5
BRANCH   1  17
HETATM   17  C   UNL     1       8.996  28.712  57.277  1.00  0.00     0.154 C 
BRANCH  17  18
HETATM   18  C   UNL     1      10.133  29.356  56.466  1.00  0.00     0.028 C 
HETATM   19  C   UNL     1      11.279  29.915  57.305  1.00  0.00     0.007 C 
ENDBRANCH  17  18
BRANCH  17  20
HETATM   20  C   UNL     1       8.100  29.738  57.910  1.00  0.00     0.127 A 
HETATM   21  N   UNL     1       8.249  30.287  59.102  1.00  0.00    -0.237 NA
HETATM   22  C   UNL     1       7.196  31.156  59.252  1.00  0.00     0.048 A 
HETATM   23  C   UNL     1       7.028  31.941  60.494  1.00  0.00     0.072 C 
HETATM   24  C   UNL     1       6.407  31.145  58.124  1.00  0.00     0.116 A 
HETATM   25  N   UNL     1       6.994  30.247  57.277  1.00  0.00    -0.351 N 
HETATM   26  H   UNL     1       6.673  29.996  56.351  1.00  0.00     0.166 HD
ENDBRANCH  17  20
ENDBRANCH   1  17
TORSDOF 5
ENDMDL
MODEL 2
REMARK VINA RESULT:      -8.3      1.515      2.146
REMARK  5 active torsions:
REMARK  status: ('A' for Active; 'I' for Inactive)
REMARK    1  A    between atoms: C_2  and  C_3 
REMARK    2  A    between atoms: C_3  and  N_4 
REMARK    3  A    between atoms: C_3  and  C_19 
REMARK       I    between atoms: N_4  and  C_5 
REMARK    4  A    between atoms: C_5  and  C_6 
REMARK    5  A    between atoms: C_7  and  C_8 
ROOT
HETATM    1  N   UNL     1       7.074  27.029  56.184  1.00  0.00    -0.345 N 
HETATM    2  C   UNL     1       6.657  25.727  56.263  1.00  0.00     0.255 C 
HETATM    3  O   UNL     1       6.512  25.130  57.322  1.00  0.00    -0.268 OA
HETATM    4  H   UNL     1       7.204  27.472  55.280  1.00  0.00     0.163 HD
ENDROOT
BRANCH   2   5
HETATM    5  C   UNL     1       6.353  25.146  54.969  1.00  0.00     0.075 A 
HETATM    6  C   UNL     1       7.027  24.157  54.184  1.00  0.00     0.076 A 
HETATM    7  N   UNL     1       6.371  23.952  53.026  1.00  0.00    -0.178 NA
HETATM    8  N   UNL     1       5.298  24.743  53.088  1.00  0.00    -0.288 N 
HETATM    9  H   UNL     1       4.644  24.726  52.312  1.00  0.00     0.188 HD
HETATM   10  C   UNL     1       5.250  25.500  54.212  1.00  0.00     0.128 A 
BRANCH   6  11
HETATM   11  C   UNL     1       8.365  23.458  54.386  1.00  0.00     0.040 C 
HETATM   12  C   UNL     1       8.569  22.773  55.746  1.00  0.00     0.011 C 
HETATM   13  C   UNL     1       7.701  21.527  55.909  1.00  0.00     0.001 C 
HETATM   14  C   UNL     1       7.969  20.518  54.795  1.00  0.00     0.000 C 
HETATM   15  C   UNL     1       7.841  21.148  53.412  1.00  0.00     0.001 C 
HETATM   16  C   UNL     1       8.686  22.417  53.285  1.00  0.00     0.011 C 
ENDBRANCH   6  11
ENDBRANCH   2   5
BRANCH   1  17
HETATM   17  C   UNL     1       7.387  27.830  57.348  1.00  0.00     0.154 C 
BRANCH  17  18
HETATM   18  C   UNL     1       8.805  28.422  57.303  1.00  0.00     0.028 C 
HETATM   19  C   UNL     1       9.149  29.161  56.014  1.00  0.00     0.007 C 
ENDBRANCH  17  18
BRANCH  17  20
HETATM   20  C   UNL     1       6.331  28.895  57.441  1.00  0.00     0.127 A 
HETATM   21  N   UNL     1       5.141  28.878  56.868  1.00  0.00    -0.237 NA
HETATM   22  C   UNL     1       4.532  30.055  57.228  1.00  0.00     0.048 A 
HETATM   23  C   UNL     1       3.174  30.388  56.745  1.00  0.00     0.072 C 
HETATM   24  C   UNL     1       5.361  30.789  58.047  1.00  0.00     0.116 A 
HETATM   25  N   UNL     1       6.497  30.040  58.180  1.00  0.00    -0.351 N 
HETATM   26  H   UNL     1       7.316  30.282  58.721  1.00  0.00     0.166 HD
ENDBRANCH  17  20
ENDBRANCH   1  17
TORSDOF 5
ENDMDL
MODEL 3
REMARK VINA RESULT:      -8.0      3.680      9.350
REMARK  5 active torsions:
REMARK  status: ('A' for Active; 'I' for Inactive)
REMARK    1  A    between atoms: C_2  and  C_3 
REMARK    2  A    between atoms: C_3  and  N_4 
REMARK    3  A    between atoms: C_3  and  C_19 
REMARK       I    between atoms: N_4  and  C_5 
REMARK    4  A    between atoms: C_5  and  C_6 
REMARK    5  A    between atoms: C_7  and  C_8 
ROOT
HETATM    1  N   UNL     1       6.661  31.394  59.729  1.00  0.00    -0.345 N 
HETATM    2  C   UNL     1       5.754  32.414  59.613  1.00  0.00     0.255 C 
HETATM    3  O   UNL     1       5.678  33.136  58.627  1.00  0.00    -0.268 OA
HETATM    4  H   UNL     1       6.702  30.840  60.578  1.00  0.00     0.163 HD
ENDROOT
BRANCH   2   5
HETATM    5  C   UNL     1       4.861  32.517  60.750  1.00  0.00     0.075 A 
HETATM    6  C   UNL     1       4.903  33.331  61.927  1.00  0.00     0.076 A 
HETATM    7  N   UNL     1       3.851  33.058  62.722  1.00  0.00    -0.178 NA
HETATM    8  N   UNL     1       3.143  32.140  62.061  1.00  0.00    -0.288 N 
HETATM    9  H   UNL     1       2.281  31.806  62.480  1.00  0.00     0.188 HD
HETATM   10  C   UNL     1       3.711  31.759  60.891  1.00  0.00     0.128 A 
BRANCH   6  11
HETATM   11  C   UNL     1       5.967  34.289  62.446  1.00  0.00     0.040 C 
HETATM   12  C   UNL     1       5.692  34.924  63.817  1.00  0.00     0.011 C 
HETATM   13  C   UNL     1       5.799  33.917  64.960  1.00  0.00     0.001 C 
HETATM   14  C   UNL     1       7.173  33.253  64.984  1.00  0.00     0.000 C 
HETATM   15  C   UNL     1       7.538  32.649  63.631  1.00  0.00     0.001 C 
HETATM   16  C   UNL     1       7.384  33.663  62.496  1.00  0.00     0.011 C 
ENDBRANCH   6  11
ENDBRANCH   2   5
BRANCH   1  17
HETATM   17  C   UNL     1       7.621  31.068  58.696  1.00  0.00     0.154 C 
BRANCH  17  18
HETATM   18  C   UNL     1       9.076  31.149  59.185  1.00  0.00     0.028 C 
HETATM   19  C   UNL     1       9.257  30.952  60.688  1.00  0.00     0.007 C 
ENDBRANCH  17  18
BRANCH  17  20
HETATM   20  C   UNL     1       7.268  29.699  58.190  1.00  0.00     0.127 A 
HETATM   21  N   UNL     1       8.050  28.634  58.185  1.00  0.00    -0.237 NA
HETATM   22  C   UNL     1       7.306  27.623  57.626  1.00  0.00     0.048 A 
HETATM   23  C   UNL     1       7.878  26.271  57.442  1.00  0.00     0.072 C 
HETATM   24  C   UNL     1       6.048  28.079  57.305  1.00  0.00     0.116 A 
HETATM   25  N   UNL     1       6.033  29.396  57.672  1.00  0.00    -0.351 N 
HETATM   26  H   UNL     1       5.257  30.037  57.579  1.00  0.00     0.166 HD
ENDBRANCH  17  20
ENDBRANCH   1  17
TORSDOF 5
ENDMDL
MODEL 4
REMARK VINA RESULT:      -8.0      2.081      2.877
REMARK  5 active torsions:
REMARK  status: ('A' for Active; 'I' for Inactive)
REMARK    1  A    between atoms: C_2  and  C_3 
REMARK    2  A    between atoms: C_3  and  N_4 
REMARK    3  A    between atoms: C_3  and  C_19 
REMARK       I    between atoms: N_4  and  C_5 
REMARK    4  A    between atoms: C_5  and  C_6 
REMARK    5  A    between atoms: C_7  and  C_8 
ROOT
HETATM    1  N   UNL     1       7.639  29.713  58.025  1.00  0.00    -0.345 N 
HETATM    2  C   UNL     1       7.328  28.416  57.713  1.00  0.00     0.255 C 
HETATM    3  O   UNL     1       7.948  27.453  58.147  1.00  0.00    -0.268 OA
HETATM    4  H   UNL     1       7.112  30.478  57.618  1.00  0.00     0.163 HD
ENDROOT
BRANCH   2   5
HETATM    5  C   UNL     1       6.161  28.298  56.860  1.00  0.00     0.075 A 
HETATM    6  C   UNL     1       5.974  27.694  55.576  1.00  0.00     0.076 A 
HETATM    7  N   UNL     1       4.702  27.855  55.165  1.00  0.00    -0.178 NA
HETATM    8  N   UNL     1       4.091  28.495  56.163  1.00  0.00    -0.288 N 
HETATM    9  H   UNL     1       3.101  28.700  56.067  1.00  0.00     0.188 HD
HETATM   10  C   UNL     1       4.918  28.810  57.189  1.00  0.00     0.128 A 
BRANCH   6  11
HETATM   11  C   UNL     1       6.969  27.068  54.608  1.00  0.00     0.040 C 
HETATM   12  C   UNL     1       7.525  25.693  55.007  1.00  0.00     0.011 C 
HETATM   13  C   UNL     1       6.476  24.588  54.910  1.00  0.00     0.001 C 
HETATM   14  C   UNL     1       5.894  24.501  53.501  1.00  0.00     0.000 C 
HETATM   15  C   UNL     1       5.375  25.851  53.015  1.00  0.00     0.001 C 
HETATM   16  C   UNL     1       6.428  26.951  53.161  1.00  0.00     0.011 C 
ENDBRANCH   6  11
ENDBRANCH   2   5
BRANCH   1  17
HETATM   17  C   UNL     1       8.733  30.074  58.901  1.00  0.00     0.154 C 
BRANCH  17  18
HETATM   18  C   UNL     1       9.853  30.839  58.176  1.00  0.00     0.028 C 
HETATM   19  C   UNL     1      10.691  29.992  57.223  1.00  0.00     0.007 C 
ENDBRANCH  17  18
BRANCH  17  20
HETATM   20  C   UNL     1       8.142  30.870  60.030  1.00  0.00     0.127 A 
HETATM   21  N   UNL     1       8.721  31.156  61.182  1.00  0.00    -0.237 NA
HETATM   22  C   UNL     1       7.806  31.893  61.892  1.00  0.00     0.048 A 
HETATM   23  C   UNL     1       8.112  32.375  63.257  1.00  0.00     0.072 C 
HETATM   24  C   UNL     1       6.660  32.072  61.150  1.00  0.00     0.116 A 
HETATM   25  N   UNL     1       6.887  31.424  59.968  1.00  0.00    -0.351 N 
HETATM   26  H   UNL     1       6.248  31.358  59.187  1.00  0.00     0.166 HD
ENDBRANCH  17  20
ENDBRANCH   1  17
TORSDOF 5
ENDMDL
MODEL 5
REMARK VINA RESULT:      -7.7      2.305      3.579
REMARK  5 active torsions:
REMARK  status: ('A' for Active; 'I' for Inactive)
REMARK    1  A    between atoms: C_2  and  C_3 
REMARK    2  A    between atoms: C_3  and  N_4 
REMARK    3  A    between atoms: C_3  and  C_19 
REMARK       I    between atoms: N_4  and  C_5 
REMARK    4  A    between atoms: C_5  and  C_6 
REMARK    5  A    between atoms: C_7  and  C_8 
ROOT
HETATM    1  N   UNL     1       6.883  27.631  56.177  1.00  0.00    -0.345 N 
HETATM    2  C   UNL     1       5.547  27.367  56.031  1.00  0.00     0.255 C 
HETATM    3  O   UNL     1       4.858  26.878  56.917  1.00  0.00    -0.268 OA
HETATM    4  H   UNL     1       7.417  28.013  55.403  1.00  0.00     0.163 HD
ENDROOT
BRANCH   2   5
HETATM    5  C   UNL     1       5.022  27.774  54.742  1.00  0.00     0.075 A 
HETATM    6  C   UNL     1       4.665  27.024  53.576  1.00  0.00     0.076 A 
HETATM    7  N   UNL     1       4.237  27.849  52.602  1.00  0.00    -0.178 NA
HETATM    8  N   UNL     1       4.276  29.071  53.137  1.00  0.00    -0.288 N 
HETATM    9  H   UNL     1       3.966  29.853  52.570  1.00  0.00     0.188 HD
HETATM   10  C   UNL     1       4.762  29.090  54.402  1.00  0.00     0.128 A 
BRANCH   6  11
HETATM   11  C   UNL     1       4.827  25.546  53.246  1.00  0.00     0.040 C 
HETATM   12  C   UNL     1       5.038  25.204  51.764  1.00  0.00     0.011 C 
HETATM   13  C   UNL     1       6.407  25.643  51.251  1.00  0.00     0.001 C 
HETATM   14  C   UNL     1       7.531  25.015  52.073  1.00  0.00     0.000 C 
HETATM   15  C   UNL     1       7.353  25.266  53.567  1.00  0.00     0.001 C 
HETATM   16  C   UNL     1       5.960  24.858  54.050  1.00  0.00     0.011 C 
ENDBRANCH   6  11
ENDBRANCH   2   5
BRANCH   1  17
HETATM   17  C   UNL     1       7.614  27.358  57.395  1.00  0.00     0.154 C 
BRANCH  17  18
HETATM   18  C   UNL     1       8.480  26.091  57.302  1.00  0.00     0.028 C 
HETATM   19  C   UNL     1       7.697  24.781  57.285  1.00  0.00     0.007 C 
ENDBRANCH  17  18
BRANCH  17  20
HETATM   20  C   UNL     1       8.431  28.582  57.696  1.00  0.00     0.127 A 
HETATM   21  N   UNL     1       8.215  29.456  58.663  1.00  0.00    -0.237 NA
HETATM   22  C   UNL     1       9.207  30.399  58.546  1.00  0.00     0.048 A 
HETATM   23  C   UNL     1       9.268  31.556  59.466  1.00  0.00     0.072 C 
HETATM   24  C   UNL     1      10.047  30.080  57.503  1.00  0.00     0.116 A 
HETATM   25  N   UNL     1       9.549  28.922  56.976  1.00  0.00    -0.351 N 
HETATM   26  H   UNL     1       9.929  28.407  56.193  1.00  0.00     0.166 HD
ENDBRANCH  17  20
ENDBRANCH   1  17
TORSDOF 5
ENDMDL
MODEL 6
REMARK VINA RESULT:      -7.6      2.245      3.449
REMARK  5 active torsions:
REMARK  status: ('A' for Active; 'I' for Inactive)
REMARK    1  A    between atoms: C_2  and  C_3 
REMARK    2  A    between atoms: C_3  and  N_4 
REMARK    3  A    between atoms: C_3  and  C_19 
REMARK       I    between atoms: N_4  and  C_5 
REMARK    4  A    between atoms: C_5  and  C_6 
REMARK    5  A    between atoms: C_7  and  C_8 
ROOT
HETATM    1  N   UNL     1       7.914  26.955  56.210  1.00  0.00    -0.345 N 
HETATM    2  C   UNL     1       7.326  25.752  56.496  1.00  0.00     0.255 C 
HETATM    3  O   UNL     1       6.748  25.520  57.551  1.00  0.00    -0.268 OA
HETATM    4  H   UNL     1       8.405  27.089  55.332  1.00  0.00     0.163 HD
ENDROOT
BRANCH   2   5
HETATM    5  C   UNL     1       7.412  24.801  55.406  1.00  0.00     0.075 A 
HETATM    6  C   UNL     1       6.594  24.597  54.249  1.00  0.00     0.076 A 
HETATM    7  N   UNL     1       7.061  23.565  53.521  1.00  0.00    -0.178 NA
HETATM    8  N   UNL     1       8.158  23.155  54.161  1.00  0.00    -0.288 N 
HETATM    9  H   UNL     1       8.687  22.386  53.762  1.00  0.00     0.188 HD
HETATM   10  C   UNL     1       8.401  23.837  55.307  1.00  0.00     0.128 A 
BRANCH   6  11
HETATM   11  C   UNL     1       5.278  25.237  53.827  1.00  0.00     0.040 C 
HETATM   12  C   UNL     1       5.187  26.762  53.988  1.00  0.00     0.011 C 
HETATM   13  C   UNL     1       6.067  27.509  52.989  1.00  0.00     0.001 C 
HETATM   14  C   UNL     1       5.709  27.137  51.552  1.00  0.00     0.000 C 
HETATM   15  C   UNL     1       5.722  25.627  51.334  1.00  0.00     0.001 C 
HETATM   16  C   UNL     1       4.868  24.896  52.372  1.00  0.00     0.011 C 
ENDBRANCH   6  11
ENDBRANCH   2   5
BRANCH   1  17
HETATM   17  C   UNL     1       7.911  28.075  57.127  1.00  0.00     0.154 C 
BRANCH  17  18
HETATM   18  C   UNL     1       9.226  28.871  57.105  1.00  0.00     0.028 C 
HETATM   19  C   UNL     1       9.315  29.986  58.142  1.00  0.00     0.007 C 
ENDBRANCH  17  18
BRANCH  17  20
HETATM   20  C   UNL     1       6.727  28.927  56.769  1.00  0.00     0.127 A 
HETATM   21  N   UNL     1       5.598  29.034  57.447  1.00  0.00    -0.237 NA
HETATM   22  C   UNL     1       4.816  29.915  56.741  1.00  0.00     0.048 A 
HETATM   23  C   UNL     1       3.454  30.263  57.203  1.00  0.00     0.072 C 
HETATM   24  C   UNL     1       5.489  30.362  55.626  1.00  0.00     0.116 A 
HETATM   25  N   UNL     1       6.703  29.733  55.658  1.00  0.00    -0.351 N 
HETATM   26  H   UNL     1       7.450  29.836  54.985  1.00  0.00     0.166 HD
ENDBRANCH  17  20
ENDBRANCH   1  17
TORSDOF 5
ENDMDL
MODEL 7
REMARK VINA RESULT:      -7.5      1.953      3.228
REMARK  5 active torsions:
REMARK  status: ('A' for Active; 'I' for Inactive)
REMARK    1  A    between atoms: C_2  and  C_3 
REMARK    2  A    between atoms: C_3  and  N_4 
REMARK    3  A    between atoms: C_3  and  C_19 
REMARK       I    between atoms: N_4  and  C_5 
REMARK    4  A    between atoms: C_5  and  C_6 
REMARK    5  A    between atoms: C_7  and  C_8 
ROOT
HETATM    1  N   UNL     1       5.597  28.325  54.691  1.00  0.00    -0.345 N 
HETATM    2  C   UNL     1       5.565  27.006  55.057  1.00  0.00     0.255 C 
HETATM    3  O   UNL     1       5.560  26.631  56.223  1.00  0.00    -0.268 OA
HETATM    4  H   UNL     1       5.627  28.584  53.710  1.00  0.00     0.163 HD
ENDROOT
BRANCH   2   5
HETATM    5  C   UNL     1       5.482  26.102  53.926  1.00  0.00     0.075 A 
HETATM    6  C   UNL     1       6.376  25.093  53.443  1.00  0.00     0.076 A 
HETATM    7  N   UNL     1       5.876  24.519  52.332  1.00  0.00    -0.178 NA
HETATM    8  N   UNL     1       4.692  25.104  52.140  1.00  0.00    -0.288 N 
HETATM    9  H   UNL     1       4.127  24.796  51.355  1.00  0.00     0.188 HD
HETATM   10  C   UNL     1       4.417  26.075  53.044  1.00  0.00     0.128 A 
BRANCH   6  11
HETATM   11  C   UNL     1       7.781  24.703  53.884  1.00  0.00     0.040 C 
HETATM   12  C   UNL     1       7.952  24.370  55.373  1.00  0.00     0.011 C 
HETATM   13  C   UNL     1       7.282  23.054  55.759  1.00  0.00     0.001 C 
HETATM   14  C   UNL     1       7.820  21.895  54.923  1.00  0.00     0.000 C 
HETATM   15  C   UNL     1       7.735  22.183  53.427  1.00  0.00     0.001 C 
HETATM   16  C   UNL     1       8.375  23.527  53.070  1.00  0.00     0.011 C 
ENDBRANCH   6  11
ENDBRANCH   2   5
BRANCH   1  17
HETATM   17  C   UNL     1       5.630  29.410  55.648  1.00  0.00     0.154 C 
BRANCH  17  18
HETATM   18  C   UNL     1       4.421  29.408  56.598  1.00  0.00     0.028 C 
HETATM   19  C   UNL     1       3.590  30.687  56.578  1.00  0.00     0.007 C 
ENDBRANCH  17  18
BRANCH  17  20
HETATM   20  C   UNL     1       6.933  29.299  56.388  1.00  0.00     0.127 A 
HETATM   21  N   UNL     1       8.143  29.466  55.885  1.00  0.00    -0.237 NA
HETATM   22  C   UNL     1       9.016  29.262  56.926  1.00  0.00     0.048 A 
HETATM   23  C   UNL     1      10.478  29.351  56.721  1.00  0.00     0.072 C 
HETATM   24  C   UNL     1       8.321  28.984  58.082  1.00  0.00     0.116 A 
HETATM   25  N   UNL     1       7.000  29.016  57.730  1.00  0.00    -0.351 N 
HETATM   26  H   UNL     1       6.212  28.857  58.342  1.00  0.00     0.166 HD
ENDBRANCH  17  20
ENDBRANCH   1  17
TORSDOF 5
ENDMDL
MODEL 8
REMARK VINA RESULT:      -7.5      1.938      3.294
REMARK  5 active torsions:
REMARK  status: ('A' for Active; 'I' for Inactive)
REMARK    1  A    between atoms: C_2  and  C_3 
REMARK    2  A    between atoms: C_3  and  N_4 
REMARK    3  A    between atoms: C_3  and  C_19 
REMARK       I    between atoms: N_4  and  C_5 
REMARK    4  A    between atoms: C_5  and  C_6 
REMARK    5  A    between atoms: C_7  and  C_8 
ROOT
HETATM    1  N   UNL     1       7.965  30.184  57.696  1.00  0.00    -0.345 N 
HETATM    2  C   UNL     1       7.938  28.821  57.566  1.00  0.00     0.255 C 
HETATM    3  O   UNL     1       7.945  28.055  58.522  1.00  0.00    -0.268 OA
HETATM    4  H   UNL     1       7.985  30.777  56.872  1.00  0.00     0.163 HD
ENDROOT
BRANCH   2   5
HETATM    5  C   UNL     1       7.846  28.380  56.188  1.00  0.00     0.075 A 
HETATM    6  C   UNL     1       7.147  27.289  55.579  1.00  0.00     0.076 A 
HETATM    7  N   UNL     1       7.380  27.267  54.253  1.00  0.00    -0.178 NA
HETATM    8  N   UNL     1       8.159  28.325  54.018  1.00  0.00    -0.288 N 
HETATM    9  H   UNL     1       8.439  28.510  53.060  1.00  0.00     0.188 HD
HETATM   10  C   UNL     1       8.492  29.010  55.138  1.00  0.00     0.128 A 
BRANCH   6  11
HETATM   11  C   UNL     1       6.352  26.142  56.189  1.00  0.00     0.040 C 
HETATM   12  C   UNL     1       5.643  25.210  55.196  1.00  0.00     0.011 C 
HETATM   13  C   UNL     1       6.621  24.339  54.410  1.00  0.00     0.001 C 
HETATM   14  C   UNL     1       7.490  23.503  55.347  1.00  0.00     0.000 C 
HETATM   15  C   UNL     1       8.182  24.362  56.401  1.00  0.00     0.001 C 
HETATM   16  C   UNL     1       7.189  25.257  57.146  1.00  0.00     0.011 C 
ENDBRANCH   6  11
ENDBRANCH   2   5
BRANCH   1  17
HETATM   17  C   UNL     1       8.006  30.856  58.977  1.00  0.00     0.154 C 
BRANCH  17  18
HETATM   18  C   UNL     1       9.269  31.714  59.163  1.00  0.00     0.028 C 
HETATM   19  C   UNL     1       9.637  32.002  60.615  1.00  0.00     0.007 C 
ENDBRANCH  17  18
BRANCH  17  20
HETATM   20  C   UNL     1       6.748  31.669  59.083  1.00  0.00     0.127 A 
HETATM   21  N   UNL     1       6.222  32.435  58.144  1.00  0.00    -0.237 NA
HETATM   22  C   UNL     1       5.087  32.979  58.693  1.00  0.00     0.048 A 
HETATM   23  C   UNL     1       4.243  33.917  57.921  1.00  0.00     0.072 C 
HETATM   24  C   UNL     1       4.913  32.521  59.979  1.00  0.00     0.116 A 
HETATM   25  N   UNL     1       5.970  31.686  60.214  1.00  0.00    -0.351 N 
HETATM   26  H   UNL     1       6.152  31.173  61.066  1.00  0.00     0.166 HD
ENDBRANCH  17  20
ENDBRANCH   1  17
TORSDOF 5
ENDMDL
MODEL 9
REMARK VINA RESULT:      -7.4      4.184      6.630
REMARK  5 active torsions:
REMARK  status: ('A' for Active; 'I' for Inactive)
REMARK    1  A    between atoms: C_2  and  C_3 
REMARK    2  A    between atoms: C_3  and  N_4 
REMARK    3  A    between atoms: C_3  and  C_19 
REMARK       I    between atoms: N_4  and  C_5 
REMARK    4  A    between atoms: C_5  and  C_6 
REMARK    5  A    between atoms: C_7  and  C_8 
ROOT
HETATM    1  N   UNL     1       5.311  28.527  52.978  1.00  0.00    -0.345 N 
HETATM    2  C   UNL     1       5.023  28.229  54.284  1.00  0.00     0.255 C 
HETATM    3  O   UNL     1       3.905  28.345  54.769  1.00  0.00    -0.268 OA
HETATM    4  H   UNL     1       6.260  28.440  52.630  1.00  0.00     0.163 HD
ENDROOT
BRANCH   2   5
HETATM    5  C   UNL     1       6.163  27.714  55.017  1.00  0.00     0.075 A 
HETATM    6  C   UNL     1       6.642  26.381  55.225  1.00  0.00     0.076 A 
HETATM    7  N   UNL     1       7.741  26.395  56.003  1.00  0.00    -0.178 NA
HETATM    8  N   UNL     1       7.981  27.685  56.245  1.00  0.00    -0.288 N 
HETATM    9  H   UNL     1       8.792  27.925  56.805  1.00  0.00     0.188 HD
HETATM   10  C   UNL     1       7.057  28.517  55.705  1.00  0.00     0.128 A 
BRANCH   6  11
HETATM   11  C   UNL     1       6.047  25.032  54.844  1.00  0.00     0.040 C 
HETATM   12  C   UNL     1       5.593  24.883  53.385  1.00  0.00     0.011 C 
HETATM   13  C   UNL     1       6.765  24.833  52.409  1.00  0.00     0.001 C 
HETATM   14  C   UNL     1       7.721  23.692  52.753  1.00  0.00     0.000 C 
HETATM   15  C   UNL     1       8.169  23.744  54.211  1.00  0.00     0.001 C 
HETATM   16  C   UNL     1       6.979  23.837  55.168  1.00  0.00     0.011 C 
ENDBRANCH   6  11
ENDBRANCH   2   5
BRANCH   1  17
HETATM   17  C   UNL     1       4.320  29.009  52.041  1.00  0.00     0.154 C 
BRANCH  17  18
HETATM   18  C   UNL     1       4.389  30.530  51.826  1.00  0.00     0.028 C 
HETATM   19  C   UNL     1       3.477  31.346  52.737  1.00  0.00     0.007 C 
ENDBRANCH  17  18
BRANCH  17  20
HETATM   20  C   UNL     1       4.523  28.246  50.762  1.00  0.00     0.127 A 
HETATM   21  N   UNL     1       4.981  28.727  49.620  1.00  0.00    -0.237 NA
HETATM   22  C   UNL     1       4.987  27.671  48.742  1.00  0.00     0.048 A 
HETATM   23  C   UNL     1       5.429  27.851  47.341  1.00  0.00     0.072 C 
HETATM   24  C   UNL     1       4.543  26.529  49.368  1.00  0.00     0.116 A 
HETATM   25  N   UNL     1       4.257  26.904  50.651  1.00  0.00    -0.351 N 
HETATM   26  H   UNL     1       3.908  26.306  51.388  1.00  0.00     0.166 HD
ENDBRANCH  17  20
ENDBRANCH   1  17
TORSDOF 5
ENDMDL
MODEL 10
REMARK VINA RESULT:      -7.3      9.172     12.091
REMARK  5 active torsions:
REMARK  status: ('A' for Active; 'I' for Inactive)
REMARK    1  A    between atoms: C_2  and  C_3 
REMARK    2  A    between atoms: C_3  and  N_4 
REMARK    3  A    between atoms: C_3  and  C_19 
REMARK       I    between atoms: N_4  and  C_5 
REMARK    4  A    between atoms: C_5  and  C_6 
REMARK    5  A    between atoms: C_7  and  C_8 
ROOT
HETATM    1  N   UNL     1       5.809  33.643  62.727  1.00  0.00    -0.345 N 
HETATM    2  C   UNL     1       4.550  33.518  62.202  1.00  0.00     0.255 C 
HETATM    3  O   UNL     1       3.731  32.701  62.607  1.00  0.00    -0.268 OA
HETATM    4  H   UNL     1       6.460  34.317  62.339  1.00  0.00     0.163 HD
ENDROOT
BRANCH   2   5
HETATM    5  C   UNL     1       4.268  34.484  61.159  1.00  0.00     0.075 A 
HETATM    6  C   UNL     1       3.843  35.850  61.211  1.00  0.00     0.076 A 
HETATM    7  N   UNL     1       3.689  36.340  59.966  1.00  0.00    -0.178 NA
HETATM    8  N   UNL     1       4.043  35.343  59.153  1.00  0.00    -0.288 N 
HETATM    9  H   UNL     1       4.021  35.510  58.152  1.00  0.00     0.188 HD
HETATM   10  C   UNL     1       4.371  34.202  59.807  1.00  0.00     0.128 A 
BRANCH   6  11
HETATM   11  C   UNL     1       3.427  36.726  62.385  1.00  0.00     0.040 C 
HETATM   12  C   UNL     1       4.199  36.510  63.695  1.00  0.00     0.011 C 
HETATM   13  C   UNL     1       5.639  37.008  63.614  1.00  0.00     0.001 C 
HETATM   14  C   UNL     1       5.691  38.489  63.243  1.00  0.00     0.000 C 
HETATM   15  C   UNL     1       4.892  38.787  61.978  1.00  0.00     0.001 C 
HETATM   16  C   UNL     1       3.465  38.241  62.065  1.00  0.00     0.011 C 
ENDBRANCH   6  11
ENDBRANCH   2   5
BRANCH   1  17
HETATM   17  C   UNL     1       6.298  32.821  63.812  1.00  0.00     0.154 C 
BRANCH  17  18
HETATM   18  C   UNL     1       7.828  32.666  63.803  1.00  0.00     0.028 C 
HETATM   19  C   UNL     1       8.405  32.097  62.510  1.00  0.00     0.007 C 
ENDBRANCH  17  18
BRANCH  17  20
HETATM   20  C   UNL     1       5.799  33.440  65.087  1.00  0.00     0.127 A 
HETATM   21  N   UNL     1       6.531  34.005  66.029  1.00  0.00    -0.237 NA
HETATM   22  C   UNL     1       5.648  34.419  66.996  1.00  0.00     0.048 A 
HETATM   23  C   UNL     1       6.126  35.087  68.227  1.00  0.00     0.072 C 
HETATM   24  C   UNL     1       4.358  34.115  66.624  1.00  0.00     0.116 A 
HETATM   25  N   UNL     1       4.465  33.500  65.408  1.00  0.00    -0.351 N 
HETATM   26  H   UNL     1       3.704  33.147  64.844  1.00  0.00     0.166 HD
ENDBRANCH  17  20
ENDBRANCH   1  17
TORSDOF 5
ENDMDL
