MODEL 1
REMARK VINA RESULT:      -8.8      0.000      0.000
REMARK  6 active torsions:
REMARK  status: ('A' for Active; 'I' for Inactive)
REMARK    1  A    between atoms: C_8  and  C_9 
REMARK    2  A    between atoms: C_9  and  C_10 
REMARK       I    between atoms: C_10  and  N_11 
REMARK    3  A    between atoms: N_11  and  C_12 
REMARK    4  A    between atoms: C_12  and  C_13 
REMARK    5  A    between atoms: C_13  and  N_14 
REMARK    6  A    between atoms: C_13  and  C_20 
ROOT
HETATM    1  C   UNL     1       4.963  24.940  53.686  1.00  0.00     0.160 C 
ENDROOT
BRANCH   1   2
HETATM    2  N   UNL     1       4.478  26.077  52.908  1.00  0.00    -0.358 N 
HETATM    3  C   UNL     1       4.952  26.317  51.628  1.00  0.00     0.226 C 
HETATM    4  O   UNL     1       5.961  25.759  51.208  1.00  0.00    -0.273 OA
HETATM    5  H   UNL     1       3.497  26.309  53.039  1.00  0.00     0.162 HD
BRANCH   3   6
HETATM    6  C   UNL     1       4.155  27.368  50.843  1.00  0.00     0.111 C 
HETATM    7  C   UNL     1       4.192  28.714  51.562  1.00  0.00     0.025 C 
BRANCH   6   8
HETATM    8  C   UNL     1       4.635  27.445  49.423  1.00  0.00     0.004 A 
HETATM    9  C   UNL     1       5.453  28.385  48.816  1.00  0.00     0.033 A 
HETATM   10  C   UNL     1       6.135  29.606  49.315  1.00  0.00     0.070 C 
HETATM   11  N   UNL     1       5.574  27.997  47.510  1.00  0.00    -0.282 N 
HETATM   12  H   UNL     1       6.087  28.455  46.763  1.00  0.00     0.189 HD
HETATM   13  N   UNL     1       4.923  26.865  47.228  1.00  0.00    -0.179 NA
HETATM   14  C   UNL     1       4.320  26.532  48.370  1.00  0.00     0.060 A 
HETATM   15  C   UNL     1       3.456  25.324  48.415  1.00  0.00     0.073 C 
ENDBRANCH   6   8
ENDBRANCH   3   6
ENDBRANCH   1   2
BRANCH   1  16
HETATM   16  C   UNL     1       6.420  24.994  54.262  1.00  0.00     0.238 C 
BRANCH  16  17
HETATM   17  N   UNL     1       6.547  25.636  55.651  1.00  0.00    -0.061 N 
HETATM   18  H   UNL     1       7.156  24.982  56.160  1.00  0.00     0.280 HD
HETATM   19  C   UNL     1       5.308  25.784  56.492  1.00  0.00     0.236 C 
HETATM   20  C   UNL     1       5.034  27.272  56.500  1.00  0.00     0.029 C 
HETATM   21  C   UNL     1       6.419  27.883  56.533  1.00  0.00     0.029 C 
HETATM   22  C   UNL     1       7.278  26.963  55.683  1.00  0.00     0.236 C 
ENDBRANCH  16  17
BRANCH  16  23
HETATM   23  C   UNL     1       7.096  23.621  54.265  1.00  0.00    -0.024 A 
HETATM   24  C   UNL     1       7.407  22.932  55.450  1.00  0.00     0.033 A 
HETATM   25  C   UNL     1       8.058  21.696  55.403  1.00  0.00     0.034 A 
HETATM   26 CL   UNL     1       8.434  20.885  56.872  1.00  0.00    -0.084 Cl
HETATM   27  C   UNL     1       8.406  21.123  54.185  1.00  0.00     0.024 A 
HETATM   28  C   UNL     1       8.106  21.793  53.002  1.00  0.00     0.002 A 
HETATM   29  C   UNL     1       7.461  23.032  53.040  1.00  0.00     0.009 A 
ENDBRANCH  16  23
ENDBRANCH   1  16
TORSDOF 6
ENDMDL
MODEL 2
REMARK VINA RESULT:      -8.8      4.515      7.451
REMARK  6 active torsions:
REMARK  status: ('A' for Active; 'I' for Inactive)
REMARK    1  A    between atoms: C_8  and  C_9 
REMARK    2  A    between atoms: C_9  and  C_10 
REMARK       I    between atoms: C_10  and  N_11 
REMARK    3  A    between atoms: N_11  and  C_12 
REMARK    4  A    between atoms: C_12  and  C_13 
REMARK    5  A    between atoms: C_13  and  N_14 
REMARK    6  A    between atoms: C_13  and  C_20 
ROOT
HETATM    1  C   UNL     1       8.084  27.230  57.300  1.00  0.00     0.160 C 
ENDROOT
BRANCH   1   2
HETATM    2  N   UNL     1       7.417  26.225  56.477  1.00  0.00    -0.358 N 
HETATM    3  C   UNL     1       7.835  24.903  56.488  1.00  0.00     0.226 C 
HETATM    4  O   UNL     1       8.918  24.583  56.971  1.00  0.00    -0.273 OA
HETATM    5  H   UNL     1       6.412  26.342  56.373  1.00  0.00     0.162 HD
BRANCH   3   6
HETATM    6  C   UNL     1       6.874  23.928  55.796  1.00  0.00     0.111 C 
HETATM    7  C   UNL     1       5.692  24.680  55.191  1.00  0.00     0.025 C 
BRANCH   6   8
HETATM    8  C   UNL     1       7.608  23.081  54.797  1.00  0.00     0.004 A 
HETATM    9  C   UNL     1       8.049  23.401  53.521  1.00  0.00     0.033 A 
HETATM   10  C   UNL     1       7.974  24.639  52.706  1.00  0.00     0.070 C 
HETATM   11  N   UNL     1       8.650  22.273  53.034  1.00  0.00    -0.282 N 
HETATM   12  H   UNL     1       9.077  22.132  52.123  1.00  0.00     0.189 HD
HETATM   13  N   UNL     1       8.657  21.256  53.900  1.00  0.00    -0.179 NA
HETATM   14  C   UNL     1       8.000  21.718  54.965  1.00  0.00     0.060 A 
HETATM   15  C   UNL     1       7.777  20.824  56.130  1.00  0.00     0.073 C 
ENDBRANCH   6   8
ENDBRANCH   3   6
ENDBRANCH   1   2
BRANCH   1  16
HETATM   16  C   UNL     1       8.720  28.476  56.593  1.00  0.00     0.238 C 
BRANCH  16  17
HETATM   17  N   UNL     1       7.891  29.062  55.441  1.00  0.00    -0.061 N 
HETATM   18  H   UNL     1       8.382  29.937  55.218  1.00  0.00     0.280 HD
HETATM   19  C   UNL     1       6.460  29.447  55.705  1.00  0.00     0.236 C 
HETATM   20  C   UNL     1       5.648  28.415  54.956  1.00  0.00     0.029 C 
HETATM   21  C   UNL     1       6.467  28.163  53.707  1.00  0.00     0.029 C 
HETATM   22  C   UNL     1       7.914  28.257  54.156  1.00  0.00     0.236 C 
ENDBRANCH  16  17
BRANCH  16  23
HETATM   23  C   UNL     1       9.083  29.585  57.583  1.00  0.00    -0.024 A 
HETATM   24  C   UNL     1       8.340  29.830  58.751  1.00  0.00     0.033 A 
HETATM   25  C   UNL     1       8.689  30.879  59.607  1.00  0.00     0.034 A 
HETATM   26 CL   UNL     1       7.752  31.159  61.022  1.00  0.00    -0.084 Cl
HETATM   27  C   UNL     1       9.777  31.696  59.323  1.00  0.00     0.024 A 
HETATM   28  C   UNL     1      10.523  31.466  58.169  1.00  0.00     0.002 A 
HETATM   29  C   UNL     1      10.177  30.424  57.304  1.00  0.00     0.009 A 
ENDBRANCH  16  23
ENDBRANCH   1  16
TORSDOF 6
ENDMDL
MODEL 3
REMARK VINA RESULT:      -8.7      3.492      7.207
REMARK  6 active torsions:
REMARK  status: ('A' for Active; 'I' for Inactive)
REMARK    1  A    between atoms: C_8  and  C_9 
REMARK    2  A    between atoms: C_9  and  C_10 
REMARK       I    between atoms: C_10  and  N_11 
REMARK    3  A    between atoms: N_11  and  C_12 
REMARK    4  A    between atoms: C_12  and  C_13 
REMARK    5  A    between atoms: C_13  and  N_14 
REMARK    6  A    between atoms: C_13  and  C_20 
ROOT
HETATM    1  C   UNL     1       7.431  28.214  54.079  1.00  0.00     0.160 C 
ENDROOT
BRANCH   1   2
HETATM    2  N   UNL     1       7.848  28.436  55.461  1.00  0.00    -0.358 N 
HETATM    3  C   UNL     1       7.146  29.300  56.287  1.00  0.00     0.226 C 
HETATM    4  O   UNL     1       6.327  30.092  55.829  1.00  0.00    -0.273 OA
HETATM    5  H   UNL     1       8.231  27.624  55.938  1.00  0.00     0.162 HD
BRANCH   3   6
HETATM    6  C   UNL     1       7.534  29.217  57.769  1.00  0.00     0.111 C 
HETATM    7  C   UNL     1       8.027  27.815  58.115  1.00  0.00     0.025 C 
BRANCH   6   8
HETATM    8  C   UNL     1       8.521  30.292  58.119  1.00  0.00     0.004 A 
HETATM    9  C   UNL     1       9.856  30.417  57.763  1.00  0.00     0.033 A 
HETATM   10  C   UNL     1      10.764  29.582  56.938  1.00  0.00     0.070 C 
HETATM   11  N   UNL     1      10.299  31.570  58.349  1.00  0.00    -0.282 N 
HETATM   12  H   UNL     1      11.230  31.974  58.318  1.00  0.00     0.189 HD
HETATM   13  N   UNL     1       9.352  32.218  59.035  1.00  0.00    -0.179 NA
HETATM   14  C   UNL     1       8.273  31.440  58.932  1.00  0.00     0.060 A 
HETATM   15  C   UNL     1       7.019  31.837  59.622  1.00  0.00     0.073 C 
ENDBRANCH   6   8
ENDBRANCH   3   6
ENDBRANCH   1   2
BRANCH   1  16
HETATM   16  C   UNL     1       6.280  27.187  53.801  1.00  0.00     0.238 C 
BRANCH  16  17
HETATM   17  N   UNL     1       5.312  27.584  52.677  1.00  0.00    -0.061 N 
HETATM   18  H   UNL     1       5.385  26.802  52.014  1.00  0.00     0.280 HD
HETATM   19  C   UNL     1       5.604  28.827  51.880  1.00  0.00     0.236 C 
HETATM   20  C   UNL     1       4.540  29.811  52.315  1.00  0.00     0.029 C 
HETATM   21  C   UNL     1       3.318  28.940  52.514  1.00  0.00     0.029 C 
HETATM   22  C   UNL     1       3.850  27.632  53.072  1.00  0.00     0.236 C 
ENDBRANCH  16  17
BRANCH  16  23
HETATM   23  C   UNL     1       6.809  25.774  53.550  1.00  0.00    -0.024 A 
HETATM   24  C   UNL     1       6.844  24.789  54.553  1.00  0.00     0.033 A 
HETATM   25  C   UNL     1       7.370  23.521  54.286  1.00  0.00     0.034 A 
HETATM   26 CL   UNL     1       7.409  22.344  55.539  1.00  0.00    -0.084 Cl
HETATM   27  C   UNL     1       7.866  23.209  53.025  1.00  0.00     0.024 A 
HETATM   28  C   UNL     1       7.840  24.175  52.021  1.00  0.00     0.002 A 
HETATM   29  C   UNL     1       7.321  25.446  52.281  1.00  0.00     0.009 A 
ENDBRANCH  16  23
ENDBRANCH   1  16
TORSDOF 6
ENDMDL
MODEL 4
REMARK VINA RESULT:      -8.5      3.238      7.343
REMARK  6 active torsions:
REMARK  status: ('A' for Active; 'I' for Inactive)
REMARK    1  A    between atoms: C_8  and  C_9 
REMARK    2  A    between atoms: C_9  and  C_10 
REMARK       I    between atoms: C_10  and  N_11 
REMARK    3  A    between atoms: N_11  and  C_12 
REMARK    4  A    between atoms: C_12  and  C_13 
REMARK    5  A    between atoms: C_13  and  N_14 
REMARK    6  A    between atoms: C_13  and  C_20 
ROOT
HETATM    1  C   UNL     1       5.049  27.396  52.942  1.00  0.00     0.160 C 
ENDROOT
BRANCH   1   2
HETATM    2  N   UNL     1       5.752  27.988  54.077  1.00  0.00    -0.358 N 
HETATM    3  C   UNL     1       5.071  28.338  55.232  1.00  0.00     0.226 C 
HETATM    4  O   UNL     1       3.845  28.410  55.250  1.00  0.00    -0.273 OA
HETATM    5  H   UNL     1       6.693  27.639  54.239  1.00  0.00     0.162 HD
BRANCH   3   6
HETATM    6  C   UNL     1       5.975  28.684  56.422  1.00  0.00     0.111 C 
HETATM    7  C   UNL     1       5.171  29.372  57.523  1.00  0.00     0.025 C 
BRANCH   6   8
HETATM    8  C   UNL     1       6.708  27.465  56.902  1.00  0.00     0.004 A 
HETATM    9  C   UNL     1       6.225  26.195  57.180  1.00  0.00     0.033 A 
HETATM   10  C   UNL     1       4.872  25.589  57.105  1.00  0.00     0.070 C 
HETATM   11  N   UNL     1       7.303  25.461  57.591  1.00  0.00    -0.282 N 
HETATM   12  H   UNL     1       7.326  24.491  57.890  1.00  0.00     0.189 HD
HETATM   13  N   UNL     1       8.451  26.145  57.576  1.00  0.00    -0.179 NA
HETATM   14  C   UNL     1       8.104  27.374  57.191  1.00  0.00     0.060 A 
HETATM   15  C   UNL     1       9.143  28.432  57.102  1.00  0.00     0.073 C 
ENDBRANCH   6   8
ENDBRANCH   3   6
ENDBRANCH   1   2
BRANCH   1  16
HETATM   16  C   UNL     1       5.896  26.782  51.774  1.00  0.00     0.238 C 
BRANCH  16  17
HETATM   17  N   UNL     1       6.238  25.293  51.933  1.00  0.00    -0.061 N 
HETATM   18  H   UNL     1       5.905  24.879  51.053  1.00  0.00     0.280 HD
HETATM   19  C   UNL     1       5.570  24.514  53.034  1.00  0.00     0.236 C 
HETATM   20  C   UNL     1       6.676  24.248  54.031  1.00  0.00     0.029 C 
HETATM   21  C   UNL     1       7.891  24.022  53.155  1.00  0.00     0.029 C 
HETATM   22  C   UNL     1       7.718  24.974  51.985  1.00  0.00     0.236 C 
ENDBRANCH  16  17
BRANCH  16  23
HETATM   23  C   UNL     1       5.259  27.022  50.404  1.00  0.00    -0.024 A 
HETATM   24  C   UNL     1       4.533  26.030  49.723  1.00  0.00     0.033 A 
HETATM   25  C   UNL     1       3.999  26.285  48.456  1.00  0.00     0.034 A 
HETATM   26 CL   UNL     1       3.125  25.045  47.645  1.00  0.00    -0.084 Cl
HETATM   27  C   UNL     1       4.174  27.522  47.847  1.00  0.00     0.024 A 
HETATM   28  C   UNL     1       4.893  28.515  48.509  1.00  0.00     0.002 A 
HETATM   29  C   UNL     1       5.434  28.267  49.773  1.00  0.00     0.009 A 
ENDBRANCH  16  23
ENDBRANCH   1  16
TORSDOF 6
ENDMDL
MODEL 5
REMARK VINA RESULT:      -8.5      4.474      7.113
REMARK  6 active torsions:
REMARK  status: ('A' for Active; 'I' for Inactive)
REMARK    1  A    between atoms: C_8  and  C_9 
REMARK    2  A    between atoms: C_9  and  C_10 
REMARK       I    between atoms: C_10  and  N_11 
REMARK    3  A    between atoms: N_11  and  C_12 
REMARK    4  A    between atoms: C_12  and  C_13 
REMARK    5  A    between atoms: C_13  and  N_14 
REMARK    6  A    between atoms: C_13  and  C_20 
ROOT
HETATM    1  C   UNL     1       8.456  27.218  57.076  1.00  0.00     0.160 C 
ENDROOT
BRANCH   1   2
HETATM    2  N   UNL     1       7.730  26.200  56.322  1.00  0.00    -0.358 N 
HETATM    3  C   UNL     1       7.975  24.851  56.528  1.00  0.00     0.226 C 
HETATM    4  O   UNL     1       8.969  24.472  57.141  1.00  0.00    -0.273 OA
HETATM    5  H   UNL     1       6.758  26.419  56.115  1.00  0.00     0.162 HD
BRANCH   3   6
HETATM    6  C   UNL     1       6.952  23.913  55.873  1.00  0.00     0.111 C 
HETATM    7  C   UNL     1       5.753  24.705  55.359  1.00  0.00     0.025 C 
BRANCH   6   8
HETATM    8  C   UNL     1       7.605  23.076  54.813  1.00  0.00     0.004 A 
HETATM    9  C   UNL     1       8.012  23.427  53.534  1.00  0.00     0.033 A 
HETATM   10  C   UNL     1       7.966  24.701  52.773  1.00  0.00     0.070 C 
HETATM   11  N   UNL     1       8.538  22.294  52.978  1.00  0.00    -0.282 N 
HETATM   12  H   UNL     1       8.922  22.170  52.046  1.00  0.00     0.189 HD
HETATM   13  N   UNL     1       8.530  21.242  53.802  1.00  0.00    -0.179 NA
HETATM   14  C   UNL     1       7.937  21.690  54.910  1.00  0.00     0.060 A 
HETATM   15  C   UNL     1       7.716  20.759  56.047  1.00  0.00     0.073 C 
ENDBRANCH   6   8
ENDBRANCH   3   6
ENDBRANCH   1   2
BRANCH   1  16
HETATM   16  C   UNL     1       7.808  28.637  57.236  1.00  0.00     0.238 C 
BRANCH  16  17
HETATM   17  N   UNL     1       8.737  29.815  56.910  1.00  0.00    -0.061 N 
HETATM   18  H   UNL     1       8.135  30.448  56.367  1.00  0.00     0.280 HD
HETATM   19  C   UNL     1       9.948  29.563  56.054  1.00  0.00     0.236 C 
HETATM   20  C   UNL     1      11.116  29.696  57.005  1.00  0.00     0.029 C 
HETATM   21  C   UNL     1      10.686  30.812  57.934  1.00  0.00     0.029 C 
HETATM   22  C   UNL     1       9.189  30.629  58.106  1.00  0.00     0.236 C 
ENDBRANCH  16  17
BRANCH  16  23
HETATM   23  C   UNL     1       6.505  28.773  56.446  1.00  0.00    -0.024 A 
HETATM   24  C   UNL     1       6.462  28.734  55.042  1.00  0.00     0.033 A 
HETATM   25  C   UNL     1       5.251  28.900  54.363  1.00  0.00     0.034 A 
HETATM   26 CL   UNL     1       5.236  28.858  52.644  1.00  0.00    -0.084 Cl
HETATM   27  C   UNL     1       4.067  29.103  55.062  1.00  0.00     0.024 A 
HETATM   28  C   UNL     1       4.093  29.145  56.454  1.00  0.00     0.002 A 
HETATM   29  C   UNL     1       5.299  28.987  57.141  1.00  0.00     0.009 A 
ENDBRANCH  16  23
ENDBRANCH   1  16
TORSDOF 6
ENDMDL
MODEL 6
REMARK VINA RESULT:      -8.5      2.240      3.074
REMARK  6 active torsions:
REMARK  status: ('A' for Active; 'I' for Inactive)
REMARK    1  A    between atoms: C_8  and  C_9 
REMARK    2  A    between atoms: C_9  and  C_10 
REMARK       I    between atoms: C_10  and  N_11 
REMARK    3  A    between atoms: N_11  and  C_12 
REMARK    4  A    between atoms: C_12  and  C_13 
REMARK    5  A    between atoms: C_13  and  N_14 
REMARK    6  A    between atoms: C_13  and  C_20 
ROOT
HETATM    1  C   UNL     1       6.021  25.338  51.944  1.00  0.00     0.160 C 
ENDROOT
BRANCH   1   2
HETATM    2  N   UNL     1       5.979  26.409  50.953  1.00  0.00    -0.358 N 
HETATM    3  C   UNL     1       4.962  26.469  50.012  1.00  0.00     0.226 C 
HETATM    4  O   UNL     1       4.226  25.508  49.810  1.00  0.00    -0.273 OA
HETATM    5  H   UNL     1       6.300  27.318  51.277  1.00  0.00     0.162 HD
BRANCH   3   6
HETATM    6  C   UNL     1       4.900  27.786  49.228  1.00  0.00     0.111 C 
HETATM    7  C   UNL     1       4.990  27.521  47.728  1.00  0.00     0.025 C 
BRANCH   6   8
HETATM    8  C   UNL     1       3.683  28.576  49.615  1.00  0.00     0.004 A 
HETATM    9  C   UNL     1       2.359  28.400  49.242  1.00  0.00     0.033 A 
HETATM   10  C   UNL     1       1.678  27.411  48.369  1.00  0.00     0.070 C 
HETATM   11  N   UNL     1       1.654  29.392  49.865  1.00  0.00    -0.282 N 
HETATM   12  H   UNL     1       0.658  29.584  49.812  1.00  0.00     0.189 HD
HETATM   13  N   UNL     1       2.409  30.181  50.634  1.00  0.00    -0.179 NA
HETATM   14  C   UNL     1       3.651  29.720  50.470  1.00  0.00     0.060 A 
HETATM   15  C   UNL     1       4.779  30.399  51.158  1.00  0.00     0.073 C 
ENDBRANCH   6   8
ENDBRANCH   3   6
ENDBRANCH   1   2
BRANCH   1  16
HETATM   16  C   UNL     1       7.035  25.458  53.134  1.00  0.00     0.238 C 
BRANCH  16  17
HETATM   17  N   UNL     1       6.622  26.434  54.245  1.00  0.00    -0.061 N 
HETATM   18  H   UNL     1       7.053  26.030  55.086  1.00  0.00     0.280 HD
HETATM   19  C   UNL     1       5.159  26.586  54.563  1.00  0.00     0.236 C 
HETATM   20  C   UNL     1       4.805  27.966  54.057  1.00  0.00     0.029 C 
HETATM   21  C   UNL     1       6.048  28.779  54.357  1.00  0.00     0.029 C 
HETATM   22  C   UNL     1       7.208  27.827  54.129  1.00  0.00     0.236 C 
ENDBRANCH  16  17
BRANCH  16  23
HETATM   23  C   UNL     1       7.379  24.098  53.744  1.00  0.00    -0.024 A 
HETATM   24  C   UNL     1       7.682  22.971  52.960  1.00  0.00     0.033 A 
HETATM   25  C   UNL     1       7.955  21.739  53.563  1.00  0.00     0.034 A 
HETATM   26 CL   UNL     1       8.311  20.377  52.574  1.00  0.00    -0.084 Cl
HETATM   27  C   UNL     1       7.936  21.605  54.946  1.00  0.00     0.024 A 
HETATM   28  C   UNL     1       7.636  22.713  55.737  1.00  0.00     0.002 A 
HETATM   29  C   UNL     1       7.356  23.946  55.143  1.00  0.00     0.009 A 
ENDBRANCH  16  23
ENDBRANCH   1  16
TORSDOF 6
ENDMDL
MODEL 7
REMARK VINA RESULT:      -8.4      3.997      6.506
REMARK  6 active torsions:
REMARK  status: ('A' for Active; 'I' for Inactive)
REMARK    1  A    between atoms: C_8  and  C_9 
REMARK    2  A    between atoms: C_9  and  C_10 
REMARK       I    between atoms: C_10  and  N_11 
REMARK    3  A    between atoms: N_11  and  C_12 
REMARK    4  A    between atoms: C_12  and  C_13 
REMARK    5  A    between atoms: C_13  and  N_14 
REMARK    6  A    between atoms: C_13  and  C_20 
ROOT
HETATM    1  C   UNL     1       7.724  24.446  56.929  1.00  0.00     0.160 C 
ENDROOT
BRANCH   1   2
HETATM    2  N   UNL     1       8.023  25.875  56.904  1.00  0.00    -0.358 N 
HETATM    3  C   UNL     1       7.046  26.812  57.203  1.00  0.00     0.226 C 
HETATM    4  O   UNL     1       5.859  26.502  57.241  1.00  0.00    -0.273 OA
HETATM    5  H   UNL     1       8.956  26.132  57.217  1.00  0.00     0.162 HD
BRANCH   3   6
HETATM    6  C   UNL     1       7.575  28.238  57.405  1.00  0.00     0.111 C 
HETATM    7  C   UNL     1       9.060  28.312  57.059  1.00  0.00     0.025 C 
BRANCH   6   8
HETATM    8  C   UNL     1       6.742  29.225  56.640  1.00  0.00     0.004 A 
HETATM    9  C   UNL     1       6.346  29.206  55.311  1.00  0.00     0.033 A 
HETATM   10  C   UNL     1       6.579  28.250  54.200  1.00  0.00     0.070 C 
HETATM   11  N   UNL     1       5.608  30.341  55.119  1.00  0.00    -0.282 N 
HETATM   12  H   UNL     1       5.168  30.668  54.264  1.00  0.00     0.189 HD
HETATM   13  N   UNL     1       5.470  31.081  56.223  1.00  0.00    -0.179 NA
HETATM   14  C   UNL     1       6.179  30.435  57.150  1.00  0.00     0.060 A 
HETATM   15  C   UNL     1       6.285  31.005  58.518  1.00  0.00     0.073 C 
ENDBRANCH   6   8
ENDBRANCH   3   6
ENDBRANCH   1   2
BRANCH   1  16
HETATM   16  C   UNL     1       8.103  23.579  55.678  1.00  0.00     0.238 C 
BRANCH  16  17
HETATM   17  N   UNL     1       7.729  22.093  55.780  1.00  0.00    -0.061 N 
HETATM   18  H   UNL     1       6.720  22.116  55.975  1.00  0.00     0.280 HD
HETATM   19  C   UNL     1       8.344  21.269  56.879  1.00  0.00     0.236 C 
HETATM   20  C   UNL     1       9.310  20.351  56.166  1.00  0.00     0.029 C 
HETATM   21  C   UNL     1       8.596  20.029  54.870  1.00  0.00     0.029 C 
HETATM   22  C   UNL     1       7.866  21.305  54.493  1.00  0.00     0.236 C 
ENDBRANCH  16  17
BRANCH  16  23
HETATM   23  C   UNL     1       7.550  24.162  54.377  1.00  0.00    -0.024 A 
HETATM   24  C   UNL     1       6.200  24.525  54.223  1.00  0.00     0.033 A 
HETATM   25  C   UNL     1       5.733  25.021  53.002  1.00  0.00     0.034 A 
HETATM   26 CL   UNL     1       4.073  25.444  52.844  1.00  0.00    -0.084 Cl
HETATM   27  C   UNL     1       6.592  25.167  51.919  1.00  0.00     0.024 A 
HETATM   28  C   UNL     1       7.932  24.811  52.055  1.00  0.00     0.002 A 
HETATM   29  C   UNL     1       8.407  24.309  53.270  1.00  0.00     0.009 A 
ENDBRANCH  16  23
ENDBRANCH   1  16
TORSDOF 6
ENDMDL
MODEL 8
REMARK VINA RESULT:      -8.3      1.505      2.047
REMARK  6 active torsions:
REMARK  status: ('A' for Active; 'I' for Inactive)
REMARK    1  A    between atoms: C_8  and  C_9 
REMARK    2  A    between atoms: C_9  and  C_10 
REMARK       I    between atoms: C_10  and  N_11 
REMARK    3  A    between atoms: N_11  and  C_12 
REMARK    4  A    between atoms: C_12  and  C_13 
REMARK    5  A    between atoms: C_13  and  N_14 
REMARK    6  A    between atoms: C_13  and  C_20 
ROOT
HETATM    1  C   UNL     1       5.126  26.242  53.536  1.00  0.00     0.160 C 
ENDROOT
BRANCH   1   2
HETATM    2  N   UNL     1       4.970  27.350  52.598  1.00  0.00    -0.358 N 
HETATM    3  C   UNL     1       5.036  27.140  51.230  1.00  0.00     0.226 C 
HETATM    4  O   UNL     1       5.479  26.091  50.769  1.00  0.00    -0.273 OA
HETATM    5  H   UNL     1       4.307  28.069  52.877  1.00  0.00     0.162 HD
BRANCH   3   6
HETATM    6  C   UNL     1       4.583  28.334  50.381  1.00  0.00     0.111 C 
HETATM    7  C   UNL     1       5.771  28.955  49.653  1.00  0.00     0.025 C 
BRANCH   6   8
HETATM    8  C   UNL     1       3.468  27.935  49.458  1.00  0.00     0.004 A 
HETATM    9  C   UNL     1       3.501  27.131  48.328  1.00  0.00     0.033 A 
HETATM   10  C   UNL     1       4.592  26.393  47.644  1.00  0.00     0.070 C 
HETATM   11  N   UNL     1       2.220  27.095  47.850  1.00  0.00    -0.282 N 
HETATM   12  H   UNL     1       1.869  26.615  47.027  1.00  0.00     0.189 HD
HETATM   13  N   UNL     1       1.354  27.789  48.594  1.00  0.00    -0.179 NA
HETATM   14  C   UNL     1       2.100  28.333  49.557  1.00  0.00     0.060 A 
HETATM   15  C   UNL     1       1.461  29.221  50.562  1.00  0.00     0.073 C 
ENDBRANCH   6   8
ENDBRANCH   3   6
ENDBRANCH   1   2
BRANCH   1  16
HETATM   16  C   UNL     1       6.489  26.087  54.294  1.00  0.00     0.238 C 
BRANCH  16  17
HETATM   17  N   UNL     1       6.473  26.542  55.761  1.00  0.00    -0.061 N 
HETATM   18  H   UNL     1       6.919  25.760  56.256  1.00  0.00     0.280 HD
HETATM   19  C   UNL     1       5.144  26.753  56.435  1.00  0.00     0.236 C 
HETATM   20  C   UNL     1       5.041  28.252  56.604  1.00  0.00     0.029 C 
HETATM   21  C   UNL     1       6.464  28.669  56.909  1.00  0.00     0.029 C 
HETATM   22  C   UNL     1       7.334  27.750  56.071  1.00  0.00     0.236 C 
ENDBRANCH  16  17
BRANCH  16  23
HETATM   23  C   UNL     1       7.049  24.667  54.201  1.00  0.00    -0.024 A 
HETATM   24  C   UNL     1       7.354  23.897  55.337  1.00  0.00     0.033 A 
HETATM   25  C   UNL     1       7.898  22.616  55.202  1.00  0.00     0.034 A 
HETATM   26 CL   UNL     1       8.271  21.705  56.612  1.00  0.00    -0.084 Cl
HETATM   27  C   UNL     1       8.145  22.078  53.944  1.00  0.00     0.024 A 
HETATM   28  C   UNL     1       7.849  22.829  52.808  1.00  0.00     0.002 A 
HETATM   29  C   UNL     1       7.311  24.113  52.934  1.00  0.00     0.009 A 
ENDBRANCH  16  23
ENDBRANCH   1  16
TORSDOF 6
ENDMDL
MODEL 9
REMARK VINA RESULT:      -8.2      3.487      7.009
REMARK  6 active torsions:
REMARK  status: ('A' for Active; 'I' for Inactive)
REMARK    1  A    between atoms: C_8  and  C_9 
REMARK    2  A    between atoms: C_9  and  C_10 
REMARK       I    between atoms: C_10  and  N_11 
REMARK    3  A    between atoms: N_11  and  C_12 
REMARK    4  A    between atoms: C_12  and  C_13 
REMARK    5  A    between atoms: C_13  and  N_14 
REMARK    6  A    between atoms: C_13  and  C_20 
ROOT
HETATM    1  C   UNL     1       5.607  26.353  56.883  1.00  0.00     0.160 C 
ENDROOT
BRANCH   1   2
HETATM    2  N   UNL     1       5.886  27.779  56.735  1.00  0.00    -0.358 N 
HETATM    3  C   UNL     1       7.036  28.339  57.272  1.00  0.00     0.226 C 
HETATM    4  O   UNL     1       7.713  27.731  58.096  1.00  0.00    -0.273 OA
HETATM    5  H   UNL     1       5.595  28.193  55.853  1.00  0.00     0.162 HD
BRANCH   3   6
HETATM    6  C   UNL     1       7.324  29.770  56.801  1.00  0.00     0.111 C 
HETATM    7  C   UNL     1       6.034  30.460  56.365  1.00  0.00     0.025 C 
BRANCH   6   8
HETATM    8  C   UNL     1       8.072  30.533  57.855  1.00  0.00     0.004 A 
HETATM    9  C   UNL     1       7.590  31.352  58.865  1.00  0.00     0.033 A 
HETATM   10  C   UNL     1       6.221  31.758  59.270  1.00  0.00     0.070 C 
HETATM   11  N   UNL     1       8.687  31.808  59.541  1.00  0.00    -0.282 N 
HETATM   12  H   UNL     1       8.719  32.442  60.334  1.00  0.00     0.189 HD
HETATM   13  N   UNL     1       9.842  31.329  59.069  1.00  0.00    -0.179 NA
HETATM   14  C   UNL     1       9.490  30.578  58.024  1.00  0.00     0.060 A 
HETATM   15  C   UNL     1      10.544  29.911  57.217  1.00  0.00     0.073 C 
ENDBRANCH   6   8
ENDBRANCH   3   6
ENDBRANCH   1   2
BRANCH   1  16
HETATM   16  C   UNL     1       5.689  25.439  55.612  1.00  0.00     0.238 C 
BRANCH  16  17
HETATM   17  N   UNL     1       5.834  26.188  54.280  1.00  0.00    -0.061 N 
HETATM   18  H   UNL     1       5.672  27.169  54.542  1.00  0.00     0.280 HD
HETATM   19  C   UNL     1       4.856  25.890  53.176  1.00  0.00     0.236 C 
HETATM   20  C   UNL     1       5.670  25.142  52.144  1.00  0.00     0.029 C 
HETATM   21  C   UNL     1       7.024  25.816  52.210  1.00  0.00     0.029 C 
HETATM   22  C   UNL     1       7.223  26.164  53.674  1.00  0.00     0.236 C 
ENDBRANCH  16  17
BRANCH  16  23
HETATM   23  C   UNL     1       6.786  24.378  55.729  1.00  0.00    -0.024 A 
HETATM   24  C   UNL     1       6.842  23.251  54.891  1.00  0.00     0.033 A 
HETATM   25  C   UNL     1       7.843  22.289  55.060  1.00  0.00     0.034 A 
HETATM   26 CL   UNL     1       7.875  20.916  54.025  1.00  0.00    -0.084 Cl
HETATM   27  C   UNL     1       8.803  22.431  56.055  1.00  0.00     0.024 A 
HETATM   28  C   UNL     1       8.761  23.542  56.894  1.00  0.00     0.002 A 
HETATM   29  C   UNL     1       7.760  24.505  56.737  1.00  0.00     0.009 A 
ENDBRANCH  16  23
ENDBRANCH   1  16
TORSDOF 6
ENDMDL
MODEL 10
REMARK VINA RESULT:      -8.1      1.744      2.283
REMARK  6 active torsions:
REMARK  status: ('A' for Active; 'I' for Inactive)
REMARK    1  A    between atoms: C_8  and  C_9 
REMARK    2  A    between atoms: C_9  and  C_10 
REMARK       I    between atoms: C_10  and  N_11 
REMARK    3  A    between atoms: N_11  and  C_12 
REMARK    4  A    between atoms: C_12  and  C_13 
REMARK    5  A    between atoms: C_13  and  N_14 
REMARK    6  A    between atoms: C_13  and  C_20 
ROOT
HETATM    1  C   UNL     1       5.556  25.925  53.580  1.00  0.00     0.160 C 
ENDROOT
BRANCH   1   2
HETATM    2  N   UNL     1       5.647  27.125  52.752  1.00  0.00    -0.358 N 
HETATM    3  C   UNL     1       5.386  27.073  51.392  1.00  0.00     0.226 C 
HETATM    4  O   UNL     1       5.329  26.001  50.796  1.00  0.00    -0.273 OA
HETATM    5  H   UNL     1       5.351  27.988  53.200  1.00  0.00     0.162 HD
BRANCH   3   6
HETATM    6  C   UNL     1       5.252  28.445  50.719  1.00  0.00     0.111 C 
HETATM    7  C   UNL     1       5.759  28.387  49.280  1.00  0.00     0.025 C 
BRANCH   6   8
HETATM    8  C   UNL     1       3.843  28.952  50.827  1.00  0.00     0.004 A 
HETATM    9  C   UNL     1       3.280  29.805  51.763  1.00  0.00     0.033 A 
HETATM   10  C   UNL     1       3.829  30.510  52.949  1.00  0.00     0.070 C 
HETATM   11  N   UNL     1       1.965  29.939  51.413  1.00  0.00    -0.282 N 
HETATM   12  H   UNL     1       1.241  30.478  51.879  1.00  0.00     0.189 HD
HETATM   13  N   UNL     1       1.635  29.263  50.308  1.00  0.00    -0.179 NA
HETATM   14  C   UNL     1       2.757  28.631  49.956  1.00  0.00     0.060 A 
HETATM   15  C   UNL     1       2.748  27.735  48.771  1.00  0.00     0.073 C 
ENDBRANCH   6   8
ENDBRANCH   3   6
ENDBRANCH   1   2
BRANCH   1  16
HETATM   16  C   UNL     1       6.780  25.543  54.482  1.00  0.00     0.238 C 
BRANCH  16  17
HETATM   17  N   UNL     1       6.599  25.831  55.980  1.00  0.00    -0.061 N 
HETATM   18  H   UNL     1       6.619  24.896  56.405  1.00  0.00     0.280 HD
HETATM   19  C   UNL     1       5.315  26.467  56.441  1.00  0.00     0.236 C 
HETATM   20  C   UNL     1       5.711  27.870  56.840  1.00  0.00     0.029 C 
HETATM   21  C   UNL     1       7.084  27.686  57.451  1.00  0.00     0.029 C 
HETATM   22  C   UNL     1       7.738  26.588  56.632  1.00  0.00     0.236 C 
ENDBRANCH  16  17
BRANCH  16  23
HETATM   23  C   UNL     1       7.216  24.090  54.286  1.00  0.00    -0.024 A 
HETATM   24  C   UNL     1       7.350  23.188  55.356  1.00  0.00     0.033 A 
HETATM   25  C   UNL     1       7.787  21.879  55.132  1.00  0.00     0.034 A 
HETATM   26 CL   UNL     1       7.951  20.805  56.465  1.00  0.00    -0.084 Cl
HETATM   27  C   UNL     1       8.094  21.443  53.848  1.00  0.00     0.024 A 
HETATM   28  C   UNL     1       7.967  22.325  52.777  1.00  0.00     0.002 A 
HETATM   29  C   UNL     1       7.537  23.637  52.993  1.00  0.00     0.009 A 
ENDBRANCH  16  23
ENDBRANCH   1  16
TORSDOF 6
ENDMDL
