MODEL 1
REMARK VINA RESULT:     -10.4      0.000      0.000
REMARK  10 active torsions:
REMARK  status: ('A' for Active; 'I' for Inactive)
REMARK    1  A    between atoms: C_2  and  C_3 
REMARK    2  A    between atoms: C_3  and  O_4 
REMARK    3  A    between atoms: O_4  and  C_5 
REMARK    4  A    between atoms: C_8  and  C_9 
REMARK       I    between atoms: C_9  and  N_10 
REMARK    5  A    between atoms: N_10  and  C_11 
REMARK    6  A    between atoms: C_11  and  N_12 
REMARK    7  A    between atoms: N_12  and  C_13 
REMARK    8  A    between atoms: C_16  and  N_17 
REMARK    9  A    between atoms: N_20  and  C_22 
REMARK   10  A    between atoms: C_22  and  C_23 
ROOT
HETATM    1  C   UNL     1       7.434  29.092  58.090  1.00  0.00     0.034 A 
HETATM    2  C   UNL     1       8.072  27.960  57.583  1.00  0.00     0.032 A 
HETATM    3  C   UNL     1       7.536  27.263  56.491  1.00  0.00     0.031 A 
HETATM    4  C   UNL     1       6.331  27.651  55.887  1.00  0.00     0.030 A 
HETATM    5  C   UNL     1       5.697  28.778  56.422  1.00  0.00     0.031 A 
HETATM    6  C   UNL     1       6.243  29.496  57.499  1.00  0.00     0.032 A 
ENDROOT
BRANCH   1   7
HETATM    7  N   UNL     1       7.987  29.674  59.247  1.00  0.00    -0.333 N 
HETATM    8  H   UNL     1       7.801  29.164  60.113  1.00  0.00     0.168 HD
BRANCH   7   9
HETATM    9  C   UNL     1       8.673  30.847  59.448  1.00  0.00     0.179 C 
HETATM   10  S   UNL     1       9.934  31.481  58.552  1.00  0.00    -0.040 SA
BRANCH   9  11
HETATM   11  N   UNL     1       8.251  31.586  60.542  1.00  0.00    -0.299 N 
HETATM   12  C   UNL     1       8.323  31.217  61.878  1.00  0.00     0.257 C 
HETATM   13  O   UNL     1       9.065  30.341  62.311  1.00  0.00    -0.267 OA
HETATM   14  H   UNL     1       7.639  32.350  60.289  1.00  0.00     0.171 HD
BRANCH  12  15
HETATM   15  C   UNL     1       7.402  31.934  62.792  1.00  0.00     0.032 A 
HETATM   16  C   UNL     1       7.967  32.736  63.789  1.00  0.00     0.020 A 
HETATM   17  C   UNL     1       7.150  33.384  64.718  1.00  0.00     0.038 A 
HETATM   18  C   UNL     1       5.763  33.245  64.646  1.00  0.00     0.068 A 
HETATM   19  C   UNL     1       5.204  32.469  63.626  1.00  0.00     0.038 A 
HETATM   20  C   UNL     1       6.015  31.809  62.698  1.00  0.00     0.020 A 
BRANCH  18  21
HETATM   21  O   UNL     1       4.856  33.816  65.495  1.00  0.00    -0.351 OA
BRANCH  21  22
HETATM   22  C   UNL     1       5.377  34.631  66.547  1.00  0.00     0.175 C 
BRANCH  22  23
HETATM   23  C   UNL     1       4.617  35.954  66.539  1.00  0.00     0.022 C 
HETATM   24  C   UNL     1       4.570  36.567  65.151  1.00  0.00     0.007 C 
ENDBRANCH  22  23
ENDBRANCH  21  22
ENDBRANCH  18  21
ENDBRANCH  12  15
ENDBRANCH   9  11
ENDBRANCH   7   9
ENDBRANCH   1   7
BRANCH   4  25
HETATM   25  N   UNL     1       5.799  26.890  54.850  1.00  0.00    -0.378 N 
HETATM   26  C   UNL     1       5.515  25.471  55.134  1.00  0.00     0.150 C 
HETATM   27  C   UNL     1       6.668  24.572  54.637  1.00  0.00     0.255 C 
HETATM   28  N   UNL     1       6.952  24.840  53.154  1.00  0.00    -0.064 N 
HETATM   29  H   UNL     1       6.084  24.627  52.648  1.00  0.00     0.280 HD
HETATM   30  C   UNL     1       7.267  26.315  52.922  1.00  0.00     0.255 C 
HETATM   31  C   UNL     1       6.123  27.202  53.451  1.00  0.00     0.150 C 
BRANCH  28  32
HETATM   32  C   UNL     1       8.027  23.948  52.588  1.00  0.00     0.273 C 
BRANCH  32  33
HETATM   33  C   UNL     1       8.256  22.714  53.415  1.00  0.00    -0.033 A 
HETATM   34  C   UNL     1       7.742  21.474  53.005  1.00  0.00     0.009 A 
HETATM   35  C   UNL     1       7.935  20.334  53.787  1.00  0.00     0.001 A 
HETATM   36  C   UNL     1       8.645  20.421  54.983  1.00  0.00     0.000 A 
HETATM   37  C   UNL     1       9.166  21.645  55.397  1.00  0.00     0.001 A 
HETATM   38  C   UNL     1       8.975  22.787  54.619  1.00  0.00     0.009 A 
ENDBRANCH  32  33
ENDBRANCH  28  32
ENDBRANCH   4  25
TORSDOF 10
ENDMDL
MODEL 2
REMARK VINA RESULT:     -10.2      1.303      2.083
REMARK  10 active torsions:
REMARK  status: ('A' for Active; 'I' for Inactive)
REMARK    1  A    between atoms: C_2  and  C_3 
REMARK    2  A    between atoms: C_3  and  O_4 
REMARK    3  A    between atoms: O_4  and  C_5 
REMARK    4  A    between atoms: C_8  and  C_9 
REMARK       I    between atoms: C_9  and  N_10 
REMARK    5  A    between atoms: N_10  and  C_11 
REMARK    6  A    between atoms: C_11  and  N_12 
REMARK    7  A    between atoms: N_12  and  C_13 
REMARK    8  A    between atoms: C_16  and  N_17 
REMARK    9  A    between atoms: N_20  and  C_22 
REMARK   10  A    between atoms: C_22  and  C_23 
ROOT
HETATM    1  C   UNL     1       6.508  29.901  57.819  1.00  0.00     0.034 A 
HETATM    2  C   UNL     1       5.258  29.870  57.202  1.00  0.00     0.032 A 
HETATM    3  C   UNL     1       4.871  28.771  56.422  1.00  0.00     0.031 A 
HETATM    4  C   UNL     1       5.727  27.682  56.205  1.00  0.00     0.030 A 
HETATM    5  C   UNL     1       6.983  27.740  56.817  1.00  0.00     0.031 A 
HETATM    6  C   UNL     1       7.367  28.826  57.622  1.00  0.00     0.032 A 
ENDROOT
BRANCH   1   7
HETATM    7  N   UNL     1       6.855  31.082  58.503  1.00  0.00    -0.333 N 
HETATM    8  H   UNL     1       6.295  31.900  58.256  1.00  0.00     0.168 HD
BRANCH   7   9
HETATM    9  C   UNL     1       7.861  31.367  59.395  1.00  0.00     0.179 C 
HETATM   10  S   UNL     1       9.498  31.533  59.098  1.00  0.00    -0.040 SA
BRANCH   9  11
HETATM   11  N   UNL     1       7.445  31.532  60.706  1.00  0.00    -0.299 N 
HETATM   12  C   UNL     1       6.390  32.314  61.156  1.00  0.00     0.257 C 
HETATM   13  O   UNL     1       5.470  32.704  60.444  1.00  0.00    -0.267 OA
HETATM   14  H   UNL     1       8.133  31.224  61.380  1.00  0.00     0.171 HD
BRANCH  12  15
HETATM   15  C   UNL     1       6.442  32.699  62.587  1.00  0.00     0.032 A 
HETATM   16  C   UNL     1       5.229  32.868  63.261  1.00  0.00     0.020 A 
HETATM   17  C   UNL     1       5.216  33.293  64.592  1.00  0.00     0.038 A 
HETATM   18  C   UNL     1       6.417  33.537  65.259  1.00  0.00     0.068 A 
HETATM   19  C   UNL     1       7.628  33.333  64.589  1.00  0.00     0.038 A 
HETATM   20  C   UNL     1       7.649  32.918  63.254  1.00  0.00     0.020 A 
BRANCH  18  21
HETATM   21  O   UNL     1       6.542  33.962  66.552  1.00  0.00    -0.351 OA
BRANCH  21  22
HETATM   22  C   UNL     1       5.496  34.788  67.067  1.00  0.00     0.175 C 
BRANCH  22  23
HETATM   23  C   UNL     1       4.916  34.101  68.299  1.00  0.00     0.022 C 
HETATM   24  C   UNL     1       5.922  34.039  69.434  1.00  0.00     0.007 C 
ENDBRANCH  22  23
ENDBRANCH  21  22
ENDBRANCH  18  21
ENDBRANCH  12  15
ENDBRANCH   9  11
ENDBRANCH   7   9
ENDBRANCH   1   7
BRANCH   4  25
HETATM   25  N   UNL     1       5.329  26.644  55.367  1.00  0.00    -0.378 N 
HETATM   26  C   UNL     1       5.509  25.268  55.867  1.00  0.00     0.150 C 
HETATM   27  C   UNL     1       6.812  24.651  55.313  1.00  0.00     0.255 C 
HETATM   28  N   UNL     1       6.836  24.739  53.783  1.00  0.00    -0.064 N 
HETATM   29  H   UNL     1       6.018  24.216  53.448  1.00  0.00     0.280 HD
HETATM   30  C   UNL     1       6.675  26.185  53.322  1.00  0.00     0.255 C 
HETATM   31  C   UNL     1       5.387  26.797  53.906  1.00  0.00     0.150 C 
BRANCH  28  32
HETATM   32  C   UNL     1       8.055  24.095  53.173  1.00  0.00     0.273 C 
BRANCH  32  33
HETATM   33  C   UNL     1       8.290  22.698  53.677  1.00  0.00    -0.033 A 
HETATM   34  C   UNL     1       9.009  22.479  54.862  1.00  0.00     0.009 A 
HETATM   35  C   UNL     1       9.247  21.181  55.316  1.00  0.00     0.001 A 
HETATM   36  C   UNL     1       8.768  20.091  54.592  1.00  0.00     0.000 A 
HETATM   37  C   UNL     1       8.047  20.296  53.418  1.00  0.00     0.001 A 
HETATM   38  C   UNL     1       7.808  21.592  52.960  1.00  0.00     0.009 A 
ENDBRANCH  32  33
ENDBRANCH  28  32
ENDBRANCH   4  25
TORSDOF 10
ENDMDL
MODEL 3
REMARK VINA RESULT:     -10.1      1.808      2.540
REMARK  10 active torsions:
REMARK  status: ('A' for Active; 'I' for Inactive)
REMARK    1  A    between atoms: C_2  and  C_3 
REMARK    2  A    between atoms: C_3  and  O_4 
REMARK    3  A    between atoms: O_4  and  C_5 
REMARK    4  A    between atoms: C_8  and  C_9 
REMARK       I    between atoms: C_9  and  N_10 
REMARK    5  A    between atoms: N_10  and  C_11 
REMARK    6  A    between atoms: C_11  and  N_12 
REMARK    7  A    between atoms: N_12  and  C_13 
REMARK    8  A    between atoms: C_16  and  N_17 
REMARK    9  A    between atoms: N_20  and  C_22 
REMARK   10  A    between atoms: C_22  and  C_23 
ROOT
HETATM    1  C   UNL     1       6.518  30.897  58.453  1.00  0.00     0.034 A 
HETATM    2  C   UNL     1       7.459  29.883  58.279  1.00  0.00     0.032 A 
HETATM    3  C   UNL     1       7.152  28.743  57.522  1.00  0.00     0.031 A 
HETATM    4  C   UNL     1       5.890  28.562  56.938  1.00  0.00     0.030 A 
HETATM    5  C   UNL     1       4.955  29.583  57.138  1.00  0.00     0.031 A 
HETATM    6  C   UNL     1       5.264  30.739  57.874  1.00  0.00     0.032 A 
ENDROOT
BRANCH   1   7
HETATM    7  N   UNL     1       6.872  31.960  59.307  1.00  0.00    -0.333 N 
HETATM    8  H   UNL     1       6.408  32.847  59.102  1.00  0.00     0.168 HD
BRANCH   7   9
HETATM    9  C   UNL     1       7.787  32.053  60.328  1.00  0.00     0.179 C 
HETATM   10  S   UNL     1       9.456  32.042  60.234  1.00  0.00    -0.040 SA
BRANCH   9  11
HETATM   11  N   UNL     1       7.234  32.168  61.594  1.00  0.00    -0.299 N 
HETATM   12  C   UNL     1       6.163  32.966  61.969  1.00  0.00     0.257 C 
HETATM   13  O   UNL     1       5.340  33.427  61.184  1.00  0.00    -0.267 OA
HETATM   14  H   UNL     1       7.833  31.800  62.320  1.00  0.00     0.171 HD
BRANCH  12  15
HETATM   15  C   UNL     1       6.070  33.277  63.415  1.00  0.00     0.032 A 
HETATM   16  C   UNL     1       4.797  33.486  63.956  1.00  0.00     0.020 A 
HETATM   17  C   UNL     1       4.653  33.846  65.299  1.00  0.00     0.038 A 
HETATM   18  C   UNL     1       5.781  33.982  66.110  1.00  0.00     0.068 A 
HETATM   19  C   UNL     1       7.048  33.737  65.571  1.00  0.00     0.038 A 
HETATM   20  C   UNL     1       7.201  33.388  64.226  1.00  0.00     0.020 A 
BRANCH  18  21
HETATM   21  O   UNL     1       5.778  34.335  67.431  1.00  0.00    -0.351 OA
BRANCH  21  22
HETATM   22  C   UNL     1       7.049  34.451  68.073  1.00  0.00     0.175 C 
BRANCH  22  23
HETATM   23  C   UNL     1       6.809  34.579  69.574  1.00  0.00     0.022 C 
HETATM   24  C   UNL     1       6.096  33.363  70.135  1.00  0.00     0.007 C 
ENDBRANCH  22  23
ENDBRANCH  21  22
ENDBRANCH  18  21
ENDBRANCH  12  15
ENDBRANCH   9  11
ENDBRANCH   7   9
ENDBRANCH   1   7
BRANCH   4  25
HETATM   25  N   UNL     1       5.606  27.384  56.252  1.00  0.00    -0.378 N 
HETATM   26  C   UNL     1       5.310  26.188  57.063  1.00  0.00     0.150 C 
HETATM   27  C   UNL     1       6.567  25.303  57.210  1.00  0.00     0.255 C 
HETATM   28  N   UNL     1       7.144  24.962  55.831  1.00  0.00    -0.064 N 
HETATM   29  H   UNL     1       6.406  24.461  55.322  1.00  0.00     0.280 HD
HETATM   30  C   UNL     1       7.458  26.233  55.048  1.00  0.00     0.255 C 
HETATM   31  C   UNL     1       6.203  27.122  54.935  1.00  0.00     0.150 C 
BRANCH  28  32
HETATM   32  C   UNL     1       8.338  24.044  55.900  1.00  0.00     0.273 C 
BRANCH  32  33
HETATM   33  C   UNL     1       8.181  22.819  55.044  1.00  0.00    -0.033 A 
HETATM   34  C   UNL     1       8.135  22.928  53.645  1.00  0.00     0.009 A 
HETATM   35  C   UNL     1       7.965  21.792  52.852  1.00  0.00     0.001 A 
HETATM   36  C   UNL     1       7.841  20.538  53.448  1.00  0.00     0.000 A 
HETATM   37  C   UNL     1       7.892  20.417  54.835  1.00  0.00     0.001 A 
HETATM   38  C   UNL     1       8.061  21.550  55.631  1.00  0.00     0.009 A 
ENDBRANCH  32  33
ENDBRANCH  28  32
ENDBRANCH   4  25
TORSDOF 10
ENDMDL
MODEL 4
REMARK VINA RESULT:     -10.1      4.269     11.498
REMARK  10 active torsions:
REMARK  status: ('A' for Active; 'I' for Inactive)
REMARK    1  A    between atoms: C_2  and  C_3 
REMARK    2  A    between atoms: C_3  and  O_4 
REMARK    3  A    between atoms: O_4  and  C_5 
REMARK    4  A    between atoms: C_8  and  C_9 
REMARK       I    between atoms: C_9  and  N_10 
REMARK    5  A    between atoms: N_10  and  C_11 
REMARK    6  A    between atoms: C_11  and  N_12 
REMARK    7  A    between atoms: N_12  and  C_13 
REMARK    8  A    between atoms: C_16  and  N_17 
REMARK    9  A    between atoms: N_20  and  C_22 
REMARK   10  A    between atoms: C_22  and  C_23 
ROOT
HETATM    1  C   UNL     1       5.250  28.225  52.810  1.00  0.00     0.034 A 
HETATM    2  C   UNL     1       4.137  28.341  53.643  1.00  0.00     0.032 A 
HETATM    3  C   UNL     1       4.292  28.515  55.026  1.00  0.00     0.031 A 
HETATM    4  C   UNL     1       5.557  28.549  55.628  1.00  0.00     0.030 A 
HETATM    5  C   UNL     1       6.660  28.414  54.778  1.00  0.00     0.031 A 
HETATM    6  C   UNL     1       6.513  28.266  53.389  1.00  0.00     0.032 A 
ENDROOT
BRANCH   1   7
HETATM    7  N   UNL     1       5.006  27.956  51.450  1.00  0.00    -0.333 N 
HETATM    8  H   UNL     1       4.568  28.722  50.934  1.00  0.00     0.168 HD
BRANCH   7   9
HETATM    9  C   UNL     1       5.178  26.823  50.691  1.00  0.00     0.179 C 
HETATM   10  S   UNL     1       4.609  26.506  49.151  1.00  0.00    -0.040 SA
BRANCH   9  11
HETATM   11  N   UNL     1       5.922  25.824  51.299  1.00  0.00    -0.299 N 
HETATM   12  C   UNL     1       5.525  25.010  52.351  1.00  0.00     0.257 C 
HETATM   13  O   UNL     1       4.356  24.824  52.674  1.00  0.00    -0.267 OA
HETATM   14  H   UNL     1       6.908  25.881  51.084  1.00  0.00     0.171 HD
BRANCH  12  15
HETATM   15  C   UNL     1       6.622  24.374  53.118  1.00  0.00     0.032 A 
HETATM   16  C   UNL     1       7.469  23.494  52.438  1.00  0.00     0.020 A 
HETATM   17  C   UNL     1       8.480  22.816  53.125  1.00  0.00     0.038 A 
HETATM   18  C   UNL     1       8.658  23.028  54.493  1.00  0.00     0.068 A 
HETATM   19  C   UNL     1       7.829  23.936  55.160  1.00  0.00     0.038 A 
HETATM   20  C   UNL     1       6.809  24.610  54.482  1.00  0.00     0.020 A 
BRANCH  18  21
HETATM   21  O   UNL     1       9.599  22.425  55.280  1.00  0.00    -0.351 OA
BRANCH  21  22
HETATM   22  C   UNL     1       9.569  20.998  55.348  1.00  0.00     0.175 C 
BRANCH  22  23
HETATM   23  C   UNL     1       8.743  20.601  56.568  1.00  0.00     0.022 C 
HETATM   24  C   UNL     1       7.319  20.238  56.188  1.00  0.00     0.007 C 
ENDBRANCH  22  23
ENDBRANCH  21  22
ENDBRANCH  18  21
ENDBRANCH  12  15
ENDBRANCH   9  11
ENDBRANCH   7   9
ENDBRANCH   1   7
BRANCH   4  25
HETATM   25  N   UNL     1       5.663  28.654  57.012  1.00  0.00    -0.378 N 
HETATM   26  C   UNL     1       4.856  29.697  57.673  1.00  0.00     0.150 C 
HETATM   27  C   UNL     1       5.704  30.960  57.935  1.00  0.00     0.255 C 
HETATM   28  N   UNL     1       6.971  30.599  58.720  1.00  0.00    -0.064 N 
HETATM   29  H   UNL     1       6.657  30.184  59.605  1.00  0.00     0.280 HD
HETATM   30  C   UNL     1       7.781  29.539  57.979  1.00  0.00     0.255 C 
HETATM   31  C   UNL     1       6.915  28.297  57.697  1.00  0.00     0.150 C 
BRANCH  28  32
HETATM   32  C   UNL     1       7.814  31.800  59.066  1.00  0.00     0.273 C 
BRANCH  32  33
HETATM   33  C   UNL     1       7.739  32.164  60.523  1.00  0.00    -0.033 A 
HETATM   34  C   UNL     1       8.700  31.686  61.428  1.00  0.00     0.009 A 
HETATM   35  C   UNL     1       8.615  32.005  62.784  1.00  0.00     0.001 A 
HETATM   36  C   UNL     1       7.572  32.805  63.248  1.00  0.00     0.000 A 
HETATM   37  C   UNL     1       6.617  33.291  62.358  1.00  0.00     0.001 A 
HETATM   38  C   UNL     1       6.697  32.974  61.002  1.00  0.00     0.009 A 
ENDBRANCH  32  33
ENDBRANCH  28  32
ENDBRANCH   4  25
TORSDOF 10
ENDMDL
MODEL 5
REMARK VINA RESULT:     -10.0      2.355      3.615
REMARK  10 active torsions:
REMARK  status: ('A' for Active; 'I' for Inactive)
REMARK    1  A    between atoms: C_2  and  C_3 
REMARK    2  A    between atoms: C_3  and  O_4 
REMARK    3  A    between atoms: O_4  and  C_5 
REMARK    4  A    between atoms: C_8  and  C_9 
REMARK       I    between atoms: C_9  and  N_10 
REMARK    5  A    between atoms: N_10  and  C_11 
REMARK    6  A    between atoms: C_11  and  N_12 
REMARK    7  A    between atoms: N_12  and  C_13 
REMARK    8  A    between atoms: C_16  and  N_17 
REMARK    9  A    between atoms: N_20  and  C_22 
REMARK   10  A    between atoms: C_22  and  C_23 
ROOT
HETATM    1  C   UNL     1       6.534  31.812  59.435  1.00  0.00     0.034 A 
HETATM    2  C   UNL     1       5.893  31.575  58.219  1.00  0.00     0.032 A 
HETATM    3  C   UNL     1       6.385  30.616  57.323  1.00  0.00     0.031 A 
HETATM    4  C   UNL     1       7.549  29.883  57.593  1.00  0.00     0.030 A 
HETATM    5  C   UNL     1       8.188  30.147  58.810  1.00  0.00     0.031 A 
HETATM    6  C   UNL     1       7.684  31.087  59.724  1.00  0.00     0.032 A 
ENDROOT
BRANCH   1   7
HETATM    7  N   UNL     1       6.030  32.858  60.232  1.00  0.00    -0.333 N 
HETATM    8  H   UNL     1       6.616  33.695  60.258  1.00  0.00     0.168 HD
BRANCH   7   9
HETATM    9  C   UNL     1       4.928  32.944  61.048  1.00  0.00     0.179 C 
HETATM   10  S   UNL     1       3.362  32.449  60.735  1.00  0.00    -0.040 SA
BRANCH   9  11
HETATM   11  N   UNL     1       5.166  33.521  62.285  1.00  0.00    -0.299 N 
HETATM   12  C   UNL     1       6.168  33.187  63.184  1.00  0.00     0.257 C 
HETATM   13  O   UNL     1       7.186  32.572  62.883  1.00  0.00    -0.267 OA
HETATM   14  H   UNL     1       4.384  34.067  62.621  1.00  0.00     0.171 HD
BRANCH  12  15
HETATM   15  C   UNL     1       5.931  33.595  64.590  1.00  0.00     0.032 A 
HETATM   16  C   UNL     1       7.044  33.733  65.425  1.00  0.00     0.020 A 
HETATM   17  C   UNL     1       6.877  34.052  66.775  1.00  0.00     0.038 A 
HETATM   18  C   UNL     1       5.595  34.248  67.292  1.00  0.00     0.068 A 
HETATM   19  C   UNL     1       4.489  34.142  66.443  1.00  0.00     0.038 A 
HETATM   20  C   UNL     1       4.648  33.814  65.094  1.00  0.00     0.020 A 
BRANCH  18  21
HETATM   21  O   UNL     1       5.295  34.555  68.590  1.00  0.00    -0.351 OA
BRANCH  21  22
HETATM   22  C   UNL     1       6.122  33.977  69.601  1.00  0.00     0.175 C 
BRANCH  22  23
HETATM   23  C   UNL     1       6.984  35.085  70.197  1.00  0.00     0.022 C 
HETATM   24  C   UNL     1       8.454  34.707  70.214  1.00  0.00     0.007 C 
ENDBRANCH  22  23
ENDBRANCH  21  22
ENDBRANCH  18  21
ENDBRANCH  12  15
ENDBRANCH   9  11
ENDBRANCH   7   9
ENDBRANCH   1   7
BRANCH   4  25
HETATM   25  N   UNL     1       8.042  28.991  56.645  1.00  0.00    -0.378 N 
HETATM   26  C   UNL     1       7.211  28.750  55.451  1.00  0.00     0.150 C 
HETATM   27  C   UNL     1       6.379  27.459  55.615  1.00  0.00     0.255 C 
HETATM   28  N   UNL     1       7.292  26.276  55.956  1.00  0.00    -0.064 N 
HETATM   29  H   UNL     1       7.953  26.183  55.176  1.00  0.00     0.280 HD
HETATM   30  C   UNL     1       8.107  26.566  57.213  1.00  0.00     0.255 C 
HETATM   31  C   UNL     1       8.908  27.873  57.048  1.00  0.00     0.150 C 
BRANCH  28  32
HETATM   32  C   UNL     1       6.549  24.969  56.067  1.00  0.00     0.273 C 
BRANCH  32  33
HETATM   33  C   UNL     1       7.122  23.896  55.184  1.00  0.00    -0.033 A 
HETATM   34  C   UNL     1       6.942  23.946  53.792  1.00  0.00     0.009 A 
HETATM   35  C   UNL     1       7.453  22.936  52.976  1.00  0.00     0.001 A 
HETATM   36  C   UNL     1       8.151  21.870  53.540  1.00  0.00     0.000 A 
HETATM   37  C   UNL     1       8.343  21.813  54.919  1.00  0.00     0.001 A 
HETATM   38  C   UNL     1       7.832  22.820  55.738  1.00  0.00     0.009 A 
ENDBRANCH  32  33
ENDBRANCH  28  32
ENDBRANCH   4  25
TORSDOF 10
ENDMDL
MODEL 6
REMARK VINA RESULT:      -9.8      1.840      2.221
REMARK  10 active torsions:
REMARK  status: ('A' for Active; 'I' for Inactive)
REMARK    1  A    between atoms: C_2  and  C_3 
REMARK    2  A    between atoms: C_3  and  O_4 
REMARK    3  A    between atoms: O_4  and  C_5 
REMARK    4  A    between atoms: C_8  and  C_9 
REMARK       I    between atoms: C_9  and  N_10 
REMARK    5  A    between atoms: N_10  and  C_11 
REMARK    6  A    between atoms: C_11  and  N_12 
REMARK    7  A    between atoms: N_12  and  C_13 
REMARK    8  A    between atoms: C_16  and  N_17 
REMARK    9  A    between atoms: N_20  and  C_22 
REMARK   10  A    between atoms: C_22  and  C_23 
ROOT
HETATM    1  C   UNL     1       6.025  29.344  57.040  1.00  0.00     0.034 A 
HETATM    2  C   UNL     1       4.796  28.837  56.620  1.00  0.00     0.032 A 
HETATM    3  C   UNL     1       4.718  27.958  55.530  1.00  0.00     0.031 A 
HETATM    4  C   UNL     1       5.856  27.578  54.805  1.00  0.00     0.030 A 
HETATM    5  C   UNL     1       7.078  28.111  55.232  1.00  0.00     0.031 A 
HETATM    6  C   UNL     1       7.166  28.972  56.339  1.00  0.00     0.032 A 
ENDROOT
BRANCH   1   7
HETATM    7  N   UNL     1       6.003  30.296  58.078  1.00  0.00    -0.333 N 
HETATM    8  H   UNL     1       6.250  29.929  59.000  1.00  0.00     0.168 HD
BRANCH   7   9
HETATM    9  C   UNL     1       5.640  31.621  58.104  1.00  0.00     0.179 C 
HETATM   10  S   UNL     1       4.858  32.508  56.923  1.00  0.00    -0.040 SA
BRANCH   9  11
HETATM   11  N   UNL     1       5.977  32.292  59.269  1.00  0.00    -0.299 N 
HETATM   12  C   UNL     1       7.230  32.362  59.861  1.00  0.00     0.257 C 
HETATM   13  O   UNL     1       8.282  32.127  59.275  1.00  0.00    -0.267 OA
HETATM   14  H   UNL     1       5.171  32.547  59.824  1.00  0.00     0.171 HD
BRANCH  12  15
HETATM   15  C   UNL     1       7.241  32.717  61.300  1.00  0.00     0.032 A 
HETATM   16  C   UNL     1       8.129  32.030  62.134  1.00  0.00     0.020 A 
HETATM   17  C   UNL     1       8.137  32.278  63.510  1.00  0.00     0.038 A 
HETATM   18  C   UNL     1       7.267  33.224  64.055  1.00  0.00     0.068 A 
HETATM   19  C   UNL     1       6.406  33.932  63.209  1.00  0.00     0.038 A 
HETATM   20  C   UNL     1       6.385  33.682  61.834  1.00  0.00     0.020 A 
BRANCH  18  21
HETATM   21  O   UNL     1       7.170  33.552  65.378  1.00  0.00    -0.351 OA
BRANCH  21  22
HETATM   22  C   UNL     1       5.867  33.865  65.874  1.00  0.00     0.175 C 
BRANCH  22  23
HETATM   23  C   UNL     1       6.026  34.503  67.250  1.00  0.00     0.022 C 
HETATM   24  C   UNL     1       4.943  34.045  68.211  1.00  0.00     0.007 C 
ENDBRANCH  22  23
ENDBRANCH  21  22
ENDBRANCH  18  21
ENDBRANCH  12  15
ENDBRANCH   9  11
ENDBRANCH   7   9
ENDBRANCH   1   7
BRANCH   4  25
HETATM   25  N   UNL     1       5.725  26.758  53.688  1.00  0.00    -0.378 N 
HETATM   26  C   UNL     1       5.106  25.435  53.893  1.00  0.00     0.150 C 
HETATM   27  C   UNL     1       6.186  24.343  54.043  1.00  0.00     0.255 C 
HETATM   28  N   UNL     1       7.147  24.375  52.849  1.00  0.00    -0.064 N 
HETATM   29  H   UNL     1       6.577  24.206  52.012  1.00  0.00     0.280 HD
HETATM   30  C   UNL     1       7.780  25.755  52.701  1.00  0.00     0.255 C 
HETATM   31  C   UNL     1       6.691  26.839  52.583  1.00  0.00     0.150 C 
BRANCH  28  32
HETATM   32  C   UNL     1       8.192  23.289  52.902  1.00  0.00     0.273 C 
BRANCH  32  33
HETATM   33  C   UNL     1       8.196  22.547  54.209  1.00  0.00    -0.033 A 
HETATM   34  C   UNL     1       7.758  21.215  54.275  1.00  0.00     0.009 A 
HETATM   35  C   UNL     1       7.739  20.535  55.494  1.00  0.00     0.001 A 
HETATM   36  C   UNL     1       8.161  21.178  56.656  1.00  0.00     0.000 A 
HETATM   37  C   UNL     1       8.604  22.497  56.602  1.00  0.00     0.001 A 
HETATM   38  C   UNL     1       8.623  23.180  55.387  1.00  0.00     0.009 A 
ENDBRANCH  32  33
ENDBRANCH  28  32
ENDBRANCH   4  25
TORSDOF 10
ENDMDL
MODEL 7
REMARK VINA RESULT:      -9.6      2.940      4.399
REMARK  10 active torsions:
REMARK  status: ('A' for Active; 'I' for Inactive)
REMARK    1  A    between atoms: C_2  and  C_3 
REMARK    2  A    between atoms: C_3  and  O_4 
REMARK    3  A    between atoms: O_4  and  C_5 
REMARK    4  A    between atoms: C_8  and  C_9 
REMARK       I    between atoms: C_9  and  N_10 
REMARK    5  A    between atoms: N_10  and  C_11 
REMARK    6  A    between atoms: C_11  and  N_12 
REMARK    7  A    between atoms: N_12  and  C_13 
REMARK    8  A    between atoms: C_16  and  N_17 
REMARK    9  A    between atoms: N_20  and  C_22 
REMARK   10  A    between atoms: C_22  and  C_23 
ROOT
HETATM    1  C   UNL     1       7.379  28.907  57.363  1.00  0.00     0.034 A 
HETATM    2  C   UNL     1       7.048  27.553  57.366  1.00  0.00     0.032 A 
HETATM    3  C   UNL     1       6.219  27.015  56.372  1.00  0.00     0.031 A 
HETATM    4  C   UNL     1       5.668  27.813  55.359  1.00  0.00     0.030 A 
HETATM    5  C   UNL     1       5.998  29.173  55.383  1.00  0.00     0.031 A 
HETATM    6  C   UNL     1       6.849  29.713  56.361  1.00  0.00     0.032 A 
ENDROOT
BRANCH   1   7
HETATM    7  N   UNL     1       8.136  29.384  58.451  1.00  0.00    -0.333 N 
HETATM    8  H   UNL     1       7.957  28.908  59.337  1.00  0.00     0.168 HD
BRANCH   7   9
HETATM    9  C   UNL     1       9.024  30.426  58.567  1.00  0.00     0.179 C 
HETATM   10  S   UNL     1      10.377  30.748  57.638  1.00  0.00    -0.040 SA
BRANCH   9  11
HETATM   11  N   UNL     1       8.747  31.314  59.594  1.00  0.00    -0.299 N 
HETATM   12  C   UNL     1       8.696  31.031  60.952  1.00  0.00     0.257 C 
HETATM   13  O   UNL     1       9.211  30.046  61.469  1.00  0.00    -0.267 OA
HETATM   14  H   UNL     1       8.328  32.175  59.269  1.00  0.00     0.171 HD
BRANCH  12  15
HETATM   15  C   UNL     1       7.933  31.996  61.779  1.00  0.00     0.032 A 
HETATM   16  C   UNL     1       8.322  32.162  63.112  1.00  0.00     0.020 A 
HETATM   17  C   UNL     1       7.599  33.009  63.957  1.00  0.00     0.038 A 
HETATM   18  C   UNL     1       6.493  33.705  63.468  1.00  0.00     0.068 A 
HETATM   19  C   UNL     1       6.131  33.561  62.124  1.00  0.00     0.038 A 
HETATM   20  C   UNL     1       6.842  32.708  61.276  1.00  0.00     0.020 A 
BRANCH  18  21
HETATM   21  O   UNL     1       5.700  34.554  64.188  1.00  0.00    -0.351 OA
BRANCH  21  22
HETATM   22  C   UNL     1       4.447  34.041  64.644  1.00  0.00     0.175 C 
BRANCH  22  23
HETATM   23  C   UNL     1       4.314  34.370  66.127  1.00  0.00     0.022 C 
HETATM   24  C   UNL     1       4.264  35.868  66.368  1.00  0.00     0.007 C 
ENDBRANCH  22  23
ENDBRANCH  21  22
ENDBRANCH  18  21
ENDBRANCH  12  15
ENDBRANCH   9  11
ENDBRANCH   7   9
ENDBRANCH   1   7
BRANCH   4  25
HETATM   25  N   UNL     1       4.794  27.251  54.432  1.00  0.00    -0.378 N 
HETATM   26  C   UNL     1       5.263  26.060  53.700  1.00  0.00     0.150 C 
HETATM   27  C   UNL     1       5.814  26.452  52.312  1.00  0.00     0.255 C 
HETATM   28  N   UNL     1       4.769  27.259  51.532  1.00  0.00    -0.064 N 
HETATM   29  H   UNL     1       3.945  26.654  51.436  1.00  0.00     0.280 HD
HETATM   30  C   UNL     1       4.341  28.493  52.321  1.00  0.00     0.255 C 
HETATM   31  C   UNL     1       3.823  28.090  53.715  1.00  0.00     0.150 C 
BRANCH  28  32
HETATM   32  C   UNL     1       5.219  27.620  50.140  1.00  0.00     0.273 C 
BRANCH  32  33
HETATM   33  C   UNL     1       4.275  27.131  49.077  1.00  0.00    -0.033 A 
HETATM   34  C   UNL     1       3.643  28.039  48.212  1.00  0.00     0.009 A 
HETATM   35  C   UNL     1       2.748  27.586  47.242  1.00  0.00     0.001 A 
HETATM   36  C   UNL     1       2.478  26.223  47.125  1.00  0.00     0.000 A 
HETATM   37  C   UNL     1       3.104  25.313  47.972  1.00  0.00     0.001 A 
HETATM   38  C   UNL     1       3.999  25.761  48.944  1.00  0.00     0.009 A 
ENDBRANCH  32  33
ENDBRANCH  28  32
ENDBRANCH   4  25
TORSDOF 10
ENDMDL
MODEL 8
REMARK VINA RESULT:      -9.2      3.232      4.017
REMARK  10 active torsions:
REMARK  status: ('A' for Active; 'I' for Inactive)
REMARK    1  A    between atoms: C_2  and  C_3 
REMARK    2  A    between atoms: C_3  and  O_4 
REMARK    3  A    between atoms: O_4  and  C_5 
REMARK    4  A    between atoms: C_8  and  C_9 
REMARK       I    between atoms: C_9  and  N_10 
REMARK    5  A    between atoms: N_10  and  C_11 
REMARK    6  A    between atoms: C_11  and  N_12 
REMARK    7  A    between atoms: N_12  and  C_13 
REMARK    8  A    between atoms: C_16  and  N_17 
REMARK    9  A    between atoms: N_20  and  C_22 
REMARK   10  A    between atoms: C_22  and  C_23 
ROOT
HETATM    1  C   UNL     1       4.620  30.834  56.008  1.00  0.00     0.034 A 
HETATM    2  C   UNL     1       3.937  29.710  55.545  1.00  0.00     0.032 A 
HETATM    3  C   UNL     1       4.323  28.422  55.940  1.00  0.00     0.031 A 
HETATM    4  C   UNL     1       5.421  28.208  56.785  1.00  0.00     0.030 A 
HETATM    5  C   UNL     1       6.105  29.346  57.226  1.00  0.00     0.031 A 
HETATM    6  C   UNL     1       5.706  30.641  56.854  1.00  0.00     0.032 A 
ENDROOT
BRANCH   1   7
HETATM    7  N   UNL     1       4.229  32.082  55.487  1.00  0.00    -0.333 N 
HETATM    8  H   UNL     1       4.830  32.442  54.743  1.00  0.00     0.168 HD
BRANCH   7   9
HETATM    9  C   UNL     1       3.226  32.952  55.839  1.00  0.00     0.179 C 
HETATM   10  S   UNL     1       2.050  33.634  54.864  1.00  0.00    -0.040 SA
BRANCH   9  11
HETATM   11  N   UNL     1       3.203  33.301  57.180  1.00  0.00    -0.299 N 
HETATM   12  C   UNL     1       4.231  33.882  57.910  1.00  0.00     0.257 C 
HETATM   13  O   UNL     1       5.180  34.476  57.409  1.00  0.00    -0.267 OA
HETATM   14  H   UNL     1       2.442  32.870  57.687  1.00  0.00     0.171 HD
BRANCH  12  15
HETATM   15  C   UNL     1       4.144  33.719  59.381  1.00  0.00     0.032 A 
HETATM   16  C   UNL     1       3.332  34.611  60.089  1.00  0.00     0.020 A 
HETATM   17  C   UNL     1       3.263  34.545  61.483  1.00  0.00     0.038 A 
HETATM   18  C   UNL     1       3.995  33.579  62.174  1.00  0.00     0.068 A 
HETATM   19  C   UNL     1       4.779  32.668  61.457  1.00  0.00     0.038 A 
HETATM   20  C   UNL     1       4.861  32.733  60.063  1.00  0.00     0.020 A 
BRANCH  18  21
HETATM   21  O   UNL     1       4.022  33.414  63.531  1.00  0.00    -0.351 OA
BRANCH  21  22
HETATM   22  C   UNL     1       5.218  32.870  64.094  1.00  0.00     0.175 C 
BRANCH  22  23
HETATM   23  C   UNL     1       5.952  33.993  64.819  1.00  0.00     0.022 C 
HETATM   24  C   UNL     1       7.439  33.714  64.929  1.00  0.00     0.007 C 
ENDBRANCH  22  23
ENDBRANCH  21  22
ENDBRANCH  18  21
ENDBRANCH  12  15
ENDBRANCH   9  11
ENDBRANCH   7   9
ENDBRANCH   1   7
BRANCH   4  25
HETATM   25  N   UNL     1       5.814  26.909  57.096  1.00  0.00    -0.378 N 
HETATM   26  C   UNL     1       7.243  26.688  57.388  1.00  0.00     0.150 C 
HETATM   27  C   UNL     1       7.981  26.161  56.139  1.00  0.00     0.255 C 
HETATM   28  N   UNL     1       7.283  24.910  55.594  1.00  0.00    -0.064 N 
HETATM   29  H   UNL     1       7.305  24.213  56.348  1.00  0.00     0.280 HD
HETATM   30  C   UNL     1       5.818  25.201  55.283  1.00  0.00     0.255 C 
HETATM   31  C   UNL     1       5.100  25.755  56.529  1.00  0.00     0.150 C 
BRANCH  28  32
HETATM   32  C   UNL     1       7.992  24.305  54.410  1.00  0.00     0.273 C 
BRANCH  32  33
HETATM   33  C   UNL     1       8.162  22.816  54.529  1.00  0.00    -0.033 A 
HETATM   34  C   UNL     1       8.065  21.994  53.395  1.00  0.00     0.009 A 
HETATM   35  C   UNL     1       8.198  20.610  53.511  1.00  0.00     0.001 A 
HETATM   36  C   UNL     1       8.431  20.035  54.759  1.00  0.00     0.000 A 
HETATM   37  C   UNL     1       8.536  20.841  55.890  1.00  0.00     0.001 A 
HETATM   38  C   UNL     1       8.402  22.224  55.779  1.00  0.00     0.009 A 
ENDBRANCH  32  33
ENDBRANCH  28  32
ENDBRANCH   4  25
TORSDOF 10
ENDMDL
MODEL 9
REMARK VINA RESULT:      -9.1      2.633      4.457
REMARK  10 active torsions:
REMARK  status: ('A' for Active; 'I' for Inactive)
REMARK    1  A    between atoms: C_2  and  C_3 
REMARK    2  A    between atoms: C_3  and  O_4 
REMARK    3  A    between atoms: O_4  and  C_5 
REMARK    4  A    between atoms: C_8  and  C_9 
REMARK       I    between atoms: C_9  and  N_10 
REMARK    5  A    between atoms: N_10  and  C_11 
REMARK    6  A    between atoms: C_11  and  N_12 
REMARK    7  A    between atoms: N_12  and  C_13 
REMARK    8  A    between atoms: C_16  and  N_17 
REMARK    9  A    between atoms: N_20  and  C_22 
REMARK   10  A    between atoms: C_22  and  C_23 
ROOT
HETATM    1  C   UNL     1       6.192  32.314  59.643  1.00  0.00     0.034 A 
HETATM    2  C   UNL     1       5.670  31.692  58.509  1.00  0.00     0.032 A 
HETATM    3  C   UNL     1       6.283  30.551  57.972  1.00  0.00     0.031 A 
HETATM    4  C   UNL     1       7.451  30.011  58.526  1.00  0.00     0.030 A 
HETATM    5  C   UNL     1       7.969  30.659  59.653  1.00  0.00     0.031 A 
HETATM    6  C   UNL     1       7.345  31.787  60.212  1.00  0.00     0.032 A 
ENDROOT
BRANCH   1   7
HETATM    7  N   UNL     1       5.573  33.509  60.060  1.00  0.00    -0.333 N 
HETATM    8  H   UNL     1       5.857  34.342  59.540  1.00  0.00     0.168 HD
BRANCH   7   9
HETATM    9  C   UNL     1       4.707  33.785  61.090  1.00  0.00     0.179 C 
HETATM   10  S   UNL     1       3.056  34.046  61.019  1.00  0.00    -0.040 SA
BRANCH   9  11
HETATM   11  N   UNL     1       5.297  33.855  62.342  1.00  0.00    -0.299 N 
HETATM   12  C   UNL     1       5.210  32.917  63.360  1.00  0.00     0.257 C 
HETATM   13  O   UNL     1       4.883  31.746  63.191  1.00  0.00    -0.267 OA
HETATM   14  H   UNL     1       5.617  34.785  62.575  1.00  0.00     0.171 HD
BRANCH  12  15
HETATM   15  C   UNL     1       5.511  33.419  64.722  1.00  0.00     0.032 A 
HETATM   16  C   UNL     1       4.433  33.771  65.540  1.00  0.00     0.020 A 
HETATM   17  C   UNL     1       4.659  34.311  66.809  1.00  0.00     0.038 A 
HETATM   18  C   UNL     1       5.964  34.486  67.272  1.00  0.00     0.068 A 
HETATM   19  C   UNL     1       7.037  34.099  66.462  1.00  0.00     0.038 A 
HETATM   20  C   UNL     1       6.819  33.569  65.187  1.00  0.00     0.020 A 
BRANCH  18  21
HETATM   21  O   UNL     1       6.320  35.008  68.484  1.00  0.00    -0.351 OA
BRANCH  21  22
HETATM   22  C   UNL     1       6.109  34.183  69.632  1.00  0.00     0.175 C 
BRANCH  22  23
HETATM   23  C   UNL     1       7.439  34.049  70.367  1.00  0.00     0.022 C 
HETATM   24  C   UNL     1       7.347  34.561  71.793  1.00  0.00     0.007 C 
ENDBRANCH  22  23
ENDBRANCH  21  22
ENDBRANCH  18  21
ENDBRANCH  12  15
ENDBRANCH   9  11
ENDBRANCH   7   9
ENDBRANCH   1   7
BRANCH   4  25
HETATM   25  N   UNL     1       8.066  28.919  57.919  1.00  0.00    -0.378 N 
HETATM   26  C   UNL     1       9.203  29.198  57.022  1.00  0.00     0.150 C 
HETATM   27  C   UNL     1       8.744  29.223  55.548  1.00  0.00     0.255 C 
HETATM   28  N   UNL     1       8.011  27.924  55.196  1.00  0.00    -0.064 N 
HETATM   29  H   UNL     1       8.679  27.160  55.353  1.00  0.00     0.280 HD
HETATM   30  C   UNL     1       6.829  27.699  56.134  1.00  0.00     0.255 C 
HETATM   31  C   UNL     1       7.296  27.707  57.603  1.00  0.00     0.150 C 
BRANCH  28  32
HETATM   32  C   UNL     1       7.591  27.856  53.750  1.00  0.00     0.273 C 
BRANCH  32  33
HETATM   33  C   UNL     1       7.054  26.506  53.362  1.00  0.00    -0.033 A 
HETATM   34  C   UNL     1       5.693  26.341  53.057  1.00  0.00     0.009 A 
HETATM   35  C   UNL     1       5.191  25.084  52.721  1.00  0.00     0.001 A 
HETATM   36  C   UNL     1       6.042  23.980  52.683  1.00  0.00     0.000 A 
HETATM   37  C   UNL     1       7.395  24.133  52.977  1.00  0.00     0.001 A 
HETATM   38  C   UNL     1       7.901  25.388  53.315  1.00  0.00     0.009 A 
ENDBRANCH  32  33
ENDBRANCH  28  32
ENDBRANCH   4  25
TORSDOF 10
ENDMDL
MODEL 10
REMARK VINA RESULT:      -9.1      2.932     12.467
REMARK  10 active torsions:
REMARK  status: ('A' for Active; 'I' for Inactive)
REMARK    1  A    between atoms: C_2  and  C_3 
REMARK    2  A    between atoms: C_3  and  O_4 
REMARK    3  A    between atoms: O_4  and  C_5 
REMARK    4  A    between atoms: C_8  and  C_9 
REMARK       I    between atoms: C_9  and  N_10 
REMARK    5  A    between atoms: N_10  and  C_11 
REMARK    6  A    between atoms: C_11  and  N_12 
REMARK    7  A    between atoms: N_12  and  C_13 
REMARK    8  A    between atoms: C_16  and  N_17 
REMARK    9  A    between atoms: N_20  and  C_22 
REMARK   10  A    between atoms: C_22  and  C_23 
ROOT
HETATM    1  C   UNL     1       8.322  31.372  59.177  1.00  0.00     0.034 A 
HETATM    2  C   UNL     1       9.009  31.014  60.337  1.00  0.00     0.032 A 
HETATM    3  C   UNL     1       8.435  31.210  61.600  1.00  0.00     0.031 A 
HETATM    4  C   UNL     1       7.170  31.796  61.754  1.00  0.00     0.030 A 
HETATM    5  C   UNL     1       6.504  32.164  60.580  1.00  0.00     0.031 A 
HETATM    6  C   UNL     1       7.063  31.947  59.310  1.00  0.00     0.032 A 
ENDROOT
BRANCH   1   7
HETATM    7  N   UNL     1       9.009  31.233  57.956  1.00  0.00    -0.333 N 
HETATM    8  H   UNL     1       8.932  32.036  57.328  1.00  0.00     0.168 HD
BRANCH   7   9
HETATM    9  C   UNL     1       9.709  30.185  57.409  1.00  0.00     0.179 C 
HETATM   10  S   UNL     1      11.363  29.932  57.397  1.00  0.00    -0.040 SA
BRANCH   9  11
HETATM   11  N   UNL     1       8.927  29.224  56.790  1.00  0.00    -0.299 N 
HETATM   12  C   UNL     1       8.208  28.208  57.404  1.00  0.00     0.257 C 
HETATM   13  O   UNL     1       7.889  28.210  58.589  1.00  0.00    -0.267 OA
HETATM   14  H   UNL     1       9.105  29.150  55.798  1.00  0.00     0.171 HD
BRANCH  12  15
HETATM   15  C   UNL     1       7.856  27.057  56.539  1.00  0.00     0.032 A 
HETATM   16  C   UNL     1       8.131  25.772  57.019  1.00  0.00     0.020 A 
HETATM   17  C   UNL     1       7.880  24.654  56.220  1.00  0.00     0.038 A 
HETATM   18  C   UNL     1       7.339  24.814  54.944  1.00  0.00     0.068 A 
HETATM   19  C   UNL     1       7.035  26.099  54.484  1.00  0.00     0.038 A 
HETATM   20  C   UNL     1       7.292  27.224  55.273  1.00  0.00     0.020 A 
BRANCH  18  21
HETATM   21  O   UNL     1       7.055  23.807  54.063  1.00  0.00    -0.351 OA
BRANCH  21  22
HETATM   22  C   UNL     1       7.523  22.500  54.400  1.00  0.00     0.175 C 
BRANCH  22  23
HETATM   23  C   UNL     1       8.302  21.955  53.207  1.00  0.00     0.022 C 
HETATM   24  C   UNL     1       8.050  20.473  53.000  1.00  0.00     0.007 C 
ENDBRANCH  22  23
ENDBRANCH  21  22
ENDBRANCH  18  21
ENDBRANCH  12  15
ENDBRANCH   9  11
ENDBRANCH   7   9
ENDBRANCH   1   7
BRANCH   4  25
HETATM   25  N   UNL     1       6.667  32.035  63.030  1.00  0.00    -0.378 N 
HETATM   26  C   UNL     1       5.220  31.830  63.232  1.00  0.00     0.150 C 
HETATM   27  C   UNL     1       4.460  33.171  63.140  1.00  0.00     0.255 C 
HETATM   28  N   UNL     1       5.062  34.193  64.112  1.00  0.00    -0.064 N 
HETATM   29  H   UNL     1       4.970  33.790  65.052  1.00  0.00     0.280 HD
HETATM   30  C   UNL     1       6.550  34.387  63.840  1.00  0.00     0.255 C 
HETATM   31  C   UNL     1       7.292  33.038  63.904  1.00  0.00     0.150 C 
BRANCH  28  32
HETATM   32  C   UNL     1       4.323  35.508  64.119  1.00  0.00     0.273 C 
BRANCH  32  33
HETATM   33  C   UNL     1       4.895  36.502  63.147  1.00  0.00    -0.033 A 
HETATM   34  C   UNL     1       5.804  37.480  63.580  1.00  0.00     0.009 A 
HETATM   35  C   UNL     1       6.315  38.419  62.682  1.00  0.00     0.001 A 
HETATM   36  C   UNL     1       5.925  38.387  61.344  1.00  0.00     0.000 A 
HETATM   37  C   UNL     1       5.028  37.417  60.902  1.00  0.00     0.001 A 
HETATM   38  C   UNL     1       4.515  36.478  61.796  1.00  0.00     0.009 A 
ENDBRANCH  32  33
ENDBRANCH  28  32
ENDBRANCH   4  25
TORSDOF 10
ENDMDL
