MODEL 1
REMARK VINA RESULT:      -9.3      0.000      0.000
REMARK  2 active torsions:
REMARK  status: ('A' for Active; 'I' for Inactive)
REMARK    1  A    between atoms: C_7  and  C_8 
REMARK    2  A    between atoms: C_13  and  C_18 
ROOT
HETATM    1  C   UNL     1       6.915  24.112  53.322  1.00  0.00    -0.020 A 
HETATM    2  C   UNL     1       5.897  24.499  54.210  1.00  0.00     0.015 A 
HETATM    3  C   UNL     1       5.116  25.641  53.976  1.00  0.00     0.035 A 
HETATM    4  C   UNL     1       5.366  26.401  52.826  1.00  0.00     0.085 A 
HETATM    5  N   UNL     1       4.751  27.543  52.373  1.00  0.00    -0.233 NA
HETATM    6  C   UNL     1       5.349  27.845  51.238  1.00  0.00     0.111 A 
HETATM    7  N   UNL     1       6.341  26.934  50.954  1.00  0.00    -0.342 N 
HETATM    8  H   UNL     1       6.925  26.944  50.128  1.00  0.00     0.167 HD
HETATM    9  C   UNL     1       6.374  26.004  51.959  1.00  0.00     0.063 A 
HETATM   10  C   UNL     1       7.175  24.877  52.172  1.00  0.00     0.044 A 
ENDROOT
BRANCH   6  11
HETATM   11  C   UNL     1       4.987  28.994  50.336  1.00  0.00     0.084 C 
HETATM   12  C   UNL     1       5.635  28.916  48.955  1.00  0.00     0.188 C 
HETATM   13  O   UNL     1       5.177  27.806  48.167  1.00  0.00    -0.350 OA
HETATM   14  C   UNL     1       3.819  27.630  48.153  1.00  0.00     0.075 A 
HETATM   15  C   UNL     1       3.323  26.771  47.171  1.00  0.00     0.037 A 
HETATM   16  C   UNL     1       2.954  28.201  49.093  1.00  0.00    -0.024 A 
HETATM   17  C   UNL     1       1.958  26.500  47.103  1.00  0.00     0.003 A 
HETATM   18  C   UNL     1       1.086  27.083  48.020  1.00  0.00     0.001 A 
HETATM   19  C   UNL     1       1.581  27.932  49.010  1.00  0.00     0.010 A 
HETATM   20  C   UNL     1       3.472  29.115  50.170  1.00  0.00     0.056 C 
ENDBRANCH   6  11
BRANCH   1  21
HETATM   21  C   UNL     1       7.711  22.933  53.620  1.00  0.00     0.017 A 
HETATM   22  C   UNL     1       8.562  22.768  54.700  1.00  0.00     0.036 A 
HETATM   23  C   UNL     1       8.945  23.639  55.836  1.00  0.00     0.070 C 
HETATM   24  N   UNL     1       9.098  21.514  54.557  1.00  0.00    -0.282 N 
HETATM   25  H   UNL     1       9.766  21.048  55.163  1.00  0.00     0.189 HD
HETATM   26  N   UNL     1       8.678  20.863  53.463  1.00  0.00    -0.186 NA
HETATM   27  C   UNL     1       7.838  21.727  52.890  1.00  0.00     0.153 A 
ENDBRANCH   1  21
TORSDOF 2
ENDMDL
MODEL 2
REMARK VINA RESULT:      -8.7      1.644      2.888
REMARK  2 active torsions:
REMARK  status: ('A' for Active; 'I' for Inactive)
REMARK    1  A    between atoms: C_7  and  C_8 
REMARK    2  A    between atoms: C_13  and  C_18 
ROOT
HETATM    1  C   UNL     1       7.566  23.225  54.126  1.00  0.00    -0.020 A 
HETATM    2  C   UNL     1       8.102  23.539  52.866  1.00  0.00     0.015 A 
HETATM    3  C   UNL     1       7.650  24.648  52.134  1.00  0.00     0.035 A 
HETATM    4  C   UNL     1       6.645  25.452  52.686  1.00  0.00     0.085 A 
HETATM    5  N   UNL     1       6.041  26.578  52.183  1.00  0.00    -0.233 NA
HETATM    6  C   UNL     1       5.177  26.962  53.100  1.00  0.00     0.111 A 
HETATM    7  N   UNL     1       5.201  26.106  54.178  1.00  0.00    -0.342 N 
HETATM    8  H   UNL     1       4.641  26.204  55.015  1.00  0.00     0.167 HD
HETATM    9  C   UNL     1       6.128  25.129  53.934  1.00  0.00     0.063 A 
HETATM   10  C   UNL     1       6.551  24.024  54.680  1.00  0.00     0.044 A 
ENDROOT
BRANCH   6  11
HETATM   11  C   UNL     1       4.306  28.188  53.026  1.00  0.00     0.084 C 
HETATM   12  C   UNL     1       5.091  29.488  52.867  1.00  0.00     0.188 C 
HETATM   13  O   UNL     1       5.794  29.586  51.618  1.00  0.00    -0.350 OA
HETATM   14  C   UNL     1       5.059  29.243  50.514  1.00  0.00     0.075 A 
HETATM   15  C   UNL     1       5.597  29.615  49.282  1.00  0.00     0.037 A 
HETATM   16  C   UNL     1       3.873  28.503  50.573  1.00  0.00    -0.024 A 
HETATM   17  C   UNL     1       4.939  29.275  48.100  1.00  0.00     0.003 A 
HETATM   18  C   UNL     1       3.746  28.559  48.150  1.00  0.00     0.001 A 
HETATM   19  C   UNL     1       3.213  28.176  49.380  1.00  0.00     0.010 A 
HETATM   20  C   UNL     1       3.287  28.078  51.891  1.00  0.00     0.056 C 
ENDBRANCH   6  11
BRANCH   1  21
HETATM   21  C   UNL     1       8.052  22.053  54.836  1.00  0.00     0.017 A 
HETATM   22  C   UNL     1       8.364  20.825  54.277  1.00  0.00     0.036 A 
HETATM   23  C   UNL     1       8.319  20.296  52.892  1.00  0.00     0.070 C 
HETATM   24  N   UNL     1       8.763  20.035  55.324  1.00  0.00    -0.282 N 
HETATM   25  H   UNL     1       9.067  19.067  55.295  1.00  0.00     0.189 HD
HETATM   26  N   UNL     1       8.718  20.646  56.516  1.00  0.00    -0.186 NA
HETATM   27  C   UNL     1       8.281  21.871  56.221  1.00  0.00     0.153 A 
ENDBRANCH   1  21
TORSDOF 2
ENDMDL
MODEL 3
REMARK VINA RESULT:      -8.7      9.023     11.352
REMARK  2 active torsions:
REMARK  status: ('A' for Active; 'I' for Inactive)
REMARK    1  A    between atoms: C_7  and  C_8 
REMARK    2  A    between atoms: C_13  and  C_18 
ROOT
HETATM    1  C   UNL     1       7.308  32.105  62.563  1.00  0.00    -0.020 A 
HETATM    2  C   UNL     1       8.464  31.351  62.825  1.00  0.00     0.015 A 
HETATM    3  C   UNL     1       9.099  30.610  61.815  1.00  0.00     0.035 A 
HETATM    4  C   UNL     1       8.558  30.636  60.524  1.00  0.00     0.085 A 
HETATM    5  N   UNL     1       8.984  30.010  59.378  1.00  0.00    -0.233 NA
HETATM    6  C   UNL     1       8.139  30.375  58.434  1.00  0.00     0.111 A 
HETATM    7  N   UNL     1       7.172  31.211  58.947  1.00  0.00    -0.342 N 
HETATM    8  H   UNL     1       6.425  31.637  58.414  1.00  0.00     0.167 HD
HETATM    9  C   UNL     1       7.416  31.388  60.282  1.00  0.00     0.063 A 
HETATM   10  C   UNL     1       6.757  32.125  61.270  1.00  0.00     0.044 A 
ENDROOT
BRANCH   6  11
HETATM   11  C   UNL     1       8.222  29.984  56.983  1.00  0.00     0.084 C 
HETATM   12  C   UNL     1       9.264  28.904  56.699  1.00  0.00     0.188 C 
HETATM   13  O   UNL     1       8.956  27.636  57.299  1.00  0.00    -0.350 OA
HETATM   14  C   UNL     1       7.664  27.217  57.130  1.00  0.00     0.075 A 
HETATM   15  C   UNL     1       7.412  25.876  57.422  1.00  0.00     0.037 A 
HETATM   16  C   UNL     1       6.617  28.066  56.757  1.00  0.00    -0.024 A 
HETATM   17  C   UNL     1       6.118  25.367  57.317  1.00  0.00     0.003 A 
HETATM   18  C   UNL     1       5.074  26.201  56.924  1.00  0.00     0.001 A 
HETATM   19  C   UNL     1       5.321  27.544  56.643  1.00  0.00     0.010 A 
HETATM   20  C   UNL     1       6.865  29.519  56.455  1.00  0.00     0.056 C 
ENDBRANCH   6  11
BRANCH   1  21
HETATM   21  C   UNL     1       6.674  32.838  63.648  1.00  0.00     0.017 A 
HETATM   22  C   UNL     1       5.346  33.223  63.712  1.00  0.00     0.036 A 
HETATM   23  C   UNL     1       4.192  33.057  62.796  1.00  0.00     0.070 C 
HETATM   24  N   UNL     1       5.215  33.893  64.901  1.00  0.00    -0.282 N 
HETATM   25  H   UNL     1       4.380  34.321  65.288  1.00  0.00     0.189 HD
HETATM   26  N   UNL     1       6.355  33.989  65.602  1.00  0.00    -0.186 NA
HETATM   27  C   UNL     1       7.243  33.351  64.838  1.00  0.00     0.153 A 
ENDBRANCH   1  21
TORSDOF 2
ENDMDL
MODEL 4
REMARK VINA RESULT:      -8.5     11.216     13.067
REMARK  2 active torsions:
REMARK  status: ('A' for Active; 'I' for Inactive)
REMARK    1  A    between atoms: C_7  and  C_8 
REMARK    2  A    between atoms: C_13  and  C_18 
ROOT
HETATM    1  C   UNL     1       8.639  30.880  59.606  1.00  0.00    -0.020 A 
HETATM    2  C   UNL     1       9.217  30.638  60.863  1.00  0.00     0.015 A 
HETATM    3  C   UNL     1       8.607  31.082  62.047  1.00  0.00     0.035 A 
HETATM    4  C   UNL     1       7.395  31.778  61.957  1.00  0.00     0.085 A 
HETATM    5  N   UNL     1       6.607  32.308  62.949  1.00  0.00    -0.233 NA
HETATM    6  C   UNL     1       5.569  32.842  62.336  1.00  0.00     0.111 A 
HETATM    7  N   UNL     1       5.675  32.680  60.973  1.00  0.00    -0.342 N 
HETATM    8  H   UNL     1       4.992  32.987  60.293  1.00  0.00     0.167 HD
HETATM    9  C   UNL     1       6.837  32.006  60.706  1.00  0.00     0.063 A 
HETATM   10  C   UNL     1       7.428  31.585  59.511  1.00  0.00     0.044 A 
ENDROOT
BRANCH   6  11
HETATM   11  C   UNL     1       4.397  33.502  63.011  1.00  0.00     0.084 C 
HETATM   12  C   UNL     1       4.744  34.138  64.356  1.00  0.00     0.188 C 
HETATM   13  O   UNL     1       5.649  35.248  64.251  1.00  0.00    -0.350 OA
HETATM   14  C   UNL     1       5.340  36.154  63.272  1.00  0.00     0.075 A 
HETATM   15  C   UNL     1       6.003  37.380  63.342  1.00  0.00     0.037 A 
HETATM   16  C   UNL     1       4.471  35.881  62.211  1.00  0.00    -0.024 A 
HETATM   17  C   UNL     1       5.782  38.352  62.367  1.00  0.00     0.003 A 
HETATM   18  C   UNL     1       4.901  38.098  61.319  1.00  0.00     0.001 A 
HETATM   19  C   UNL     1       4.246  36.869  61.241  1.00  0.00     0.010 A 
HETATM   20  C   UNL     1       3.760  34.560  62.109  1.00  0.00     0.056 C 
ENDBRANCH   6  11
BRANCH   1  21
HETATM   21  C   UNL     1       9.321  30.418  58.408  1.00  0.00     0.017 A 
HETATM   22  C   UNL     1       8.959  29.336  57.622  1.00  0.00     0.036 A 
HETATM   23  C   UNL     1       7.861  28.344  57.701  1.00  0.00     0.070 C 
HETATM   24  N   UNL     1       9.894  29.280  56.621  1.00  0.00    -0.282 N 
HETATM   25  H   UNL     1       9.951  28.614  55.857  1.00  0.00     0.189 HD
HETATM   26  N   UNL     1      10.842  30.225  56.706  1.00  0.00    -0.186 NA
HETATM   27  C   UNL     1      10.496  30.914  57.794  1.00  0.00     0.153 A 
ENDBRANCH   1  21
TORSDOF 2
ENDMDL
MODEL 5
REMARK VINA RESULT:      -8.0      1.502      2.079
REMARK  2 active torsions:
REMARK  status: ('A' for Active; 'I' for Inactive)
REMARK    1  A    between atoms: C_7  and  C_8 
REMARK    2  A    between atoms: C_13  and  C_18 
ROOT
HETATM    1  C   UNL     1       6.701  25.974  54.785  1.00  0.00    -0.020 A 
HETATM    2  C   UNL     1       5.675  26.560  55.545  1.00  0.00     0.015 A 
HETATM    3  C   UNL     1       4.884  27.599  55.030  1.00  0.00     0.035 A 
HETATM    4  C   UNL     1       5.132  28.048  53.726  1.00  0.00     0.085 A 
HETATM    5  N   UNL     1       4.508  29.032  53.000  1.00  0.00    -0.233 NA
HETATM    6  C   UNL     1       5.107  29.046  51.826  1.00  0.00     0.111 A 
HETATM    7  N   UNL     1       6.110  28.104  51.782  1.00  0.00    -0.342 N 
HETATM    8  H   UNL     1       6.698  27.912  50.982  1.00  0.00     0.167 HD
HETATM    9  C   UNL     1       6.148  27.456  52.988  1.00  0.00     0.063 A 
HETATM   10  C   UNL     1       6.959  26.428  53.480  1.00  0.00     0.044 A 
ENDROOT
BRANCH   6  11
HETATM   11  C   UNL     1       4.738  29.928  50.663  1.00  0.00     0.084 C 
HETATM   12  C   UNL     1       5.723  29.849  49.498  1.00  0.00     0.188 C 
HETATM   13  O   UNL     1       5.753  28.564  48.857  1.00  0.00    -0.350 OA
HETATM   14  C   UNL     1       4.523  28.028  48.582  1.00  0.00     0.075 A 
HETATM   15  C   UNL     1       4.511  26.947  47.699  1.00  0.00     0.037 A 
HETATM   16  C   UNL     1       3.337  28.462  49.183  1.00  0.00    -0.024 A 
HETATM   17  C   UNL     1       3.309  26.311  47.388  1.00  0.00     0.003 A 
HETATM   18  C   UNL     1       2.120  26.752  47.964  1.00  0.00     0.001 A 
HETATM   19  C   UNL     1       2.132  27.824  48.856  1.00  0.00     0.010 A 
HETATM   20  C   UNL     1       3.333  29.613  50.151  1.00  0.00     0.056 C 
ENDBRANCH   6  11
BRANCH   1  21
HETATM   21  C   UNL     1       7.507  24.916  55.371  1.00  0.00     0.017 A 
HETATM   22  C   UNL     1       7.874  23.729  54.760  1.00  0.00     0.036 A 
HETATM   23  C   UNL     1       7.609  23.148  53.422  1.00  0.00     0.070 C 
HETATM   24  N   UNL     1       8.613  23.048  55.694  1.00  0.00    -0.282 N 
HETATM   25  H   UNL     1       9.049  22.136  55.600  1.00  0.00     0.189 HD
HETATM   26  N   UNL     1       8.737  23.689  56.865  1.00  0.00    -0.186 NA
HETATM   27  C   UNL     1       8.061  24.823  56.670  1.00  0.00     0.153 A 
ENDBRANCH   1  21
TORSDOF 2
ENDMDL
MODEL 6
REMARK VINA RESULT:      -8.0     11.488     13.441
REMARK  2 active torsions:
REMARK  status: ('A' for Active; 'I' for Inactive)
REMARK    1  A    between atoms: C_7  and  C_8 
REMARK    2  A    between atoms: C_13  and  C_18 
ROOT
HETATM    1  C   UNL     1       7.592  31.023  59.604  1.00  0.00    -0.020 A 
HETATM    2  C   UNL     1       8.105  31.227  60.895  1.00  0.00     0.015 A 
HETATM    3  C   UNL     1       7.504  32.129  61.788  1.00  0.00     0.035 A 
HETATM    4  C   UNL     1       6.366  32.830  61.369  1.00  0.00     0.085 A 
HETATM    5  N   UNL     1       5.601  33.751  62.041  1.00  0.00    -0.233 NA
HETATM    6  C   UNL     1       4.638  34.093  61.209  1.00  0.00     0.111 A 
HETATM    7  N   UNL     1       4.770  33.424  60.013  1.00  0.00    -0.342 N 
HETATM    8  H   UNL     1       4.141  33.505  59.225  1.00  0.00     0.167 HD
HETATM    9  C   UNL     1       5.871  32.614  60.090  1.00  0.00     0.063 A 
HETATM   10  C   UNL     1       6.456  31.731  59.176  1.00  0.00     0.044 A 
ENDROOT
BRANCH   6  11
HETATM   11  C   UNL     1       3.514  35.046  61.514  1.00  0.00     0.084 C 
HETATM   12  C   UNL     1       2.332  34.390  62.226  1.00  0.00     0.188 C 
HETATM   13  O   UNL     1       2.645  33.918  63.545  1.00  0.00    -0.350 OA
HETATM   14  C   UNL     1       3.339  34.804  64.325  1.00  0.00     0.075 A 
HETATM   15  C   UNL     1       3.390  34.511  65.688  1.00  0.00     0.037 A 
HETATM   16  C   UNL     1       4.029  35.910  63.815  1.00  0.00    -0.024 A 
HETATM   17  C   UNL     1       4.106  35.335  66.555  1.00  0.00     0.003 A 
HETATM   18  C   UNL     1       4.776  36.451  66.060  1.00  0.00     0.001 A 
HETATM   19  C   UNL     1       4.737  36.739  64.696  1.00  0.00     0.010 A 
HETATM   20  C   UNL     1       4.000  36.232  62.346  1.00  0.00     0.056 C 
ENDBRANCH   6  11
BRANCH   1  21
HETATM   21  C   UNL     1       8.264  30.095  58.708  1.00  0.00     0.017 A 
HETATM   22  C   UNL     1       9.484  30.293  58.085  1.00  0.00     0.036 A 
HETATM   23  C   UNL     1      10.461  31.408  58.090  1.00  0.00     0.070 C 
HETATM   24  N   UNL     1       9.702  29.165  57.337  1.00  0.00    -0.282 N 
HETATM   25  H   UNL     1      10.498  28.953  56.744  1.00  0.00     0.189 HD
HETATM   26  N   UNL     1       8.714  28.262  57.411  1.00  0.00    -0.186 NA
HETATM   27  C   UNL     1       7.837  28.829  58.241  1.00  0.00     0.153 A 
ENDBRANCH   1  21
TORSDOF 2
ENDMDL
MODEL 7
REMARK VINA RESULT:      -7.9      2.353      3.472
REMARK  2 active torsions:
REMARK  status: ('A' for Active; 'I' for Inactive)
REMARK    1  A    between atoms: C_7  and  C_8 
REMARK    2  A    between atoms: C_13  and  C_18 
ROOT
HETATM    1  C   UNL     1       5.795  26.301  53.988  1.00  0.00    -0.020 A 
HETATM    2  C   UNL     1       6.190  27.620  53.709  1.00  0.00     0.015 A 
HETATM    3  C   UNL     1       6.052  28.170  52.425  1.00  0.00     0.035 A 
HETATM    4  C   UNL     1       5.503  27.376  51.411  1.00  0.00     0.085 A 
HETATM    5  N   UNL     1       5.262  27.673  50.092  1.00  0.00    -0.233 NA
HETATM    6  C   UNL     1       4.719  26.589  49.573  1.00  0.00     0.111 A 
HETATM    7  N   UNL     1       4.615  25.598  50.522  1.00  0.00    -0.342 N 
HETATM    8  H   UNL     1       4.214  24.682  50.370  1.00  0.00     0.167 HD
HETATM    9  C   UNL     1       5.115  26.075  51.704  1.00  0.00     0.063 A 
HETATM   10  C   UNL     1       5.251  25.498  52.971  1.00  0.00     0.044 A 
ENDROOT
BRANCH   6  11
HETATM   11  C   UNL     1       4.231  26.445  48.157  1.00  0.00     0.084 C 
HETATM   12  C   UNL     1       2.739  26.135  48.052  1.00  0.00     0.188 C 
HETATM   13  O   UNL     1       1.896  27.201  48.516  1.00  0.00    -0.350 OA
HETATM   14  C   UNL     1       2.237  28.446  48.059  1.00  0.00     0.075 A 
HETATM   15  C   UNL     1       1.278  29.445  48.232  1.00  0.00     0.037 A 
HETATM   16  C   UNL     1       3.487  28.755  47.511  1.00  0.00    -0.024 A 
HETATM   17  C   UNL     1       1.550  30.753  47.832  1.00  0.00     0.003 A 
HETATM   18  C   UNL     1       2.783  31.064  47.264  1.00  0.00     0.001 A 
HETATM   19  C   UNL     1       3.747  30.070  47.102  1.00  0.00     0.010 A 
HETATM   20  C   UNL     1       4.539  27.695  47.333  1.00  0.00     0.056 C 
ENDBRANCH   6  11
BRANCH   1  21
HETATM   21  C   UNL     1       5.978  25.770  55.329  1.00  0.00     0.017 A 
HETATM   22  C   UNL     1       6.931  24.846  55.723  1.00  0.00     0.036 A 
HETATM   23  C   UNL     1       8.006  24.122  55.002  1.00  0.00     0.070 C 
HETATM   24  N   UNL     1       6.713  24.641  57.061  1.00  0.00    -0.282 N 
HETATM   25  H   UNL     1       7.221  24.026  57.689  1.00  0.00     0.189 HD
HETATM   26  N   UNL     1       5.686  25.343  57.560  1.00  0.00    -0.186 NA
HETATM   27  C   UNL     1       5.236  26.026  56.507  1.00  0.00     0.153 A 
ENDBRANCH   1  21
TORSDOF 2
ENDMDL
MODEL 8
REMARK VINA RESULT:      -7.8      1.643      3.129
REMARK  2 active torsions:
REMARK  status: ('A' for Active; 'I' for Inactive)
REMARK    1  A    between atoms: C_7  and  C_8 
REMARK    2  A    between atoms: C_13  and  C_18 
ROOT
HETATM    1  C   UNL     1       6.718  24.428  53.986  1.00  0.00    -0.020 A 
HETATM    2  C   UNL     1       5.785  25.230  54.664  1.00  0.00     0.015 A 
HETATM    3  C   UNL     1       5.034  26.207  53.993  1.00  0.00     0.035 A 
HETATM    4  C   UNL     1       5.227  26.372  52.615  1.00  0.00     0.085 A 
HETATM    5  N   UNL     1       4.625  27.242  51.739  1.00  0.00    -0.233 NA
HETATM    6  C   UNL     1       5.147  26.979  50.558  1.00  0.00     0.111 A 
HETATM    7  N   UNL     1       6.079  25.971  50.653  1.00  0.00    -0.342 N 
HETATM    8  H   UNL     1       6.600  25.580  49.878  1.00  0.00     0.167 HD
HETATM    9  C   UNL     1       6.151  25.570  51.961  1.00  0.00     0.063 A 
HETATM   10  C   UNL     1       6.921  24.597  52.606  1.00  0.00     0.044 A 
ENDROOT
BRANCH   6  11
HETATM   11  C   UNL     1       4.764  27.644  49.263  1.00  0.00     0.084 C 
HETATM   12  C   UNL     1       3.314  28.123  49.226  1.00  0.00     0.188 C 
HETATM   13  O   UNL     1       3.034  29.178  50.159  1.00  0.00    -0.350 OA
HETATM   14  C   UNL     1       3.953  30.193  50.174  1.00  0.00     0.075 A 
HETATM   15  C   UNL     1       3.562  31.362  50.828  1.00  0.00     0.037 A 
HETATM   16  C   UNL     1       5.241  30.080  49.641  1.00  0.00    -0.024 A 
HETATM   17  C   UNL     1       4.445  32.436  50.930  1.00  0.00     0.003 A 
HETATM   18  C   UNL     1       5.722  32.341  50.381  1.00  0.00     0.001 A 
HETATM   19  C   UNL     1       6.119  31.169  49.737  1.00  0.00     0.010 A 
HETATM   20  C   UNL     1       5.687  28.821  48.948  1.00  0.00     0.056 C 
ENDBRANCH   6  11
BRANCH   1  21
HETATM   21  C   UNL     1       7.487  23.444  54.731  1.00  0.00     0.017 A 
HETATM   22  C   UNL     1       8.164  23.660  55.920  1.00  0.00     0.036 A 
HETATM   23  C   UNL     1       8.345  24.848  56.787  1.00  0.00     0.070 C 
HETATM   24  N   UNL     1       8.747  22.459  56.233  1.00  0.00    -0.282 N 
HETATM   25  H   UNL     1       9.324  22.237  57.038  1.00  0.00     0.189 HD
HETATM   26  N   UNL     1       8.519  21.490  55.335  1.00  0.00    -0.186 NA
HETATM   27  C   UNL     1       7.757  22.090  54.419  1.00  0.00     0.153 A 
ENDBRANCH   1  21
TORSDOF 2
ENDMDL
MODEL 9
REMARK VINA RESULT:      -7.8     13.690     16.377
REMARK  2 active torsions:
REMARK  status: ('A' for Active; 'I' for Inactive)
REMARK    1  A    between atoms: C_7  and  C_8 
REMARK    2  A    between atoms: C_13  and  C_18 
ROOT
HETATM    1  C   UNL     1       5.944  38.532  63.226  1.00  0.00    -0.020 A 
HETATM    2  C   UNL     1       5.440  38.199  64.493  1.00  0.00     0.015 A 
HETATM    3  C   UNL     1       4.986  36.902  64.784  1.00  0.00     0.035 A 
HETATM    4  C   UNL     1       5.048  35.929  63.779  1.00  0.00     0.085 A 
HETATM    5  N   UNL     1       4.676  34.607  63.807  1.00  0.00    -0.233 NA
HETATM    6  C   UNL     1       4.956  34.130  62.611  1.00  0.00     0.111 A 
HETATM    7  N   UNL     1       5.488  35.114  61.809  1.00  0.00    -0.342 N 
HETATM    8  H   UNL     1       5.800  34.985  60.855  1.00  0.00     0.167 HD
HETATM    9  C   UNL     1       5.551  36.275  62.532  1.00  0.00     0.063 A 
HETATM   10  C   UNL     1       5.999  37.560  62.211  1.00  0.00     0.044 A 
ENDROOT
BRANCH   6  11
HETATM   11  C   UNL     1       4.772  32.702  62.172  1.00  0.00     0.084 C 
HETATM   12  C   UNL     1       4.783  32.522  60.655  1.00  0.00     0.188 C 
HETATM   13  O   UNL     1       6.049  32.824  60.050  1.00  0.00    -0.350 OA
HETATM   14  C   UNL     1       7.136  32.279  60.680  1.00  0.00     0.075 A 
HETATM   15  C   UNL     1       8.331  32.291  59.961  1.00  0.00     0.037 A 
HETATM   16  C   UNL     1       7.107  31.794  61.992  1.00  0.00    -0.024 A 
HETATM   17  C   UNL     1       9.499  31.793  60.536  1.00  0.00     0.003 A 
HETATM   18  C   UNL     1       9.475  31.287  61.833  1.00  0.00     0.001 A 
HETATM   19  C   UNL     1       8.283  31.285  62.558  1.00  0.00     0.010 A 
HETATM   20  C   UNL     1       5.832  31.790  62.791  1.00  0.00     0.056 C 
ENDBRANCH   6  11
BRANCH   1  21
HETATM   21  C   UNL     1       6.382  39.894  62.968  1.00  0.00     0.017 A 
HETATM   22  C   UNL     1       5.643  40.891  62.353  1.00  0.00     0.036 A 
HETATM   23  C   UNL     1       4.275  40.940  61.783  1.00  0.00     0.070 C 
HETATM   24  N   UNL     1       6.464  41.989  62.319  1.00  0.00    -0.282 N 
HETATM   25  H   UNL     1       6.262  42.908  61.940  1.00  0.00     0.189 HD
HETATM   26  N   UNL     1       7.680  41.777  62.843  1.00  0.00    -0.186 NA
HETATM   27  C   UNL     1       7.632  40.502  63.234  1.00  0.00     0.153 A 
ENDBRANCH   1  21
TORSDOF 2
ENDMDL
MODEL 10
REMARK VINA RESULT:      -7.7     10.855     12.477
REMARK  2 active torsions:
REMARK  status: ('A' for Active; 'I' for Inactive)
REMARK    1  A    between atoms: C_7  and  C_8 
REMARK    2  A    between atoms: C_13  and  C_18 
ROOT
HETATM    1  C   UNL     1       8.146  30.858  59.901  1.00  0.00    -0.020 A 
HETATM    2  C   UNL     1       8.985  30.728  61.021  1.00  0.00     0.015 A 
HETATM    3  C   UNL     1       8.805  31.518  62.167  1.00  0.00     0.035 A 
HETATM    4  C   UNL     1       7.759  32.449  62.182  1.00  0.00     0.085 A 
HETATM    5  N   UNL     1       7.374  33.326  63.167  1.00  0.00    -0.233 NA
HETATM    6  C   UNL     1       6.325  33.965  62.688  1.00  0.00     0.111 A 
HETATM    7  N   UNL     1       6.031  33.529  61.416  1.00  0.00    -0.342 N 
HETATM    8  H   UNL     1       5.259  33.856  60.849  1.00  0.00     0.167 HD
HETATM    9  C   UNL     1       6.938  32.564  61.068  1.00  0.00     0.063 A 
HETATM   10  C   UNL     1       7.102  31.799  59.909  1.00  0.00     0.044 A 
ENDROOT
BRANCH   6  11
HETATM   11  C   UNL     1       5.516  34.997  63.426  1.00  0.00     0.084 C 
HETATM   12  C   UNL     1       5.555  36.381  62.781  1.00  0.00     0.188 C 
HETATM   13  O   UNL     1       4.934  36.431  61.487  1.00  0.00    -0.350 OA
HETATM   14  C   UNL     1       3.711  35.819  61.411  1.00  0.00     0.075 A 
HETATM   15  C   UNL     1       2.951  36.109  60.278  1.00  0.00     0.037 A 
HETATM   16  C   UNL     1       3.246  34.898  62.356  1.00  0.00    -0.024 A 
HETATM   17  C   UNL     1       1.709  35.503  60.094  1.00  0.00     0.003 A 
HETATM   18  C   UNL     1       1.228  34.602  61.041  1.00  0.00     0.001 A 
HETATM   19  C   UNL     1       1.991  34.302  62.168  1.00  0.00     0.010 A 
HETATM   20  C   UNL     1       4.059  34.558  63.575  1.00  0.00     0.056 C 
ENDBRANCH   6  11
BRANCH   1  21
HETATM   21  C   UNL     1       8.387  30.032  58.729  1.00  0.00     0.017 A 
HETATM   22  C   UNL     1       9.453  30.142  57.852  1.00  0.00     0.036 A 
HETATM   23  C   UNL     1      10.624  31.050  57.782  1.00  0.00     0.070 C 
HETATM   24  N   UNL     1       9.252  29.171  56.906  1.00  0.00    -0.282 N 
HETATM   25  H   UNL     1       9.833  28.953  56.103  1.00  0.00     0.189 HD
HETATM   26  N   UNL     1       8.134  28.455  57.088  1.00  0.00    -0.186 NA
HETATM   27  C   UNL     1       7.605  28.981  58.194  1.00  0.00     0.153 A 
ENDBRANCH   1  21
TORSDOF 2
ENDMDL
