MODEL 1
REMARK VINA RESULT:     -10.6      0.000      0.000
REMARK  7 active torsions:
REMARK  status: ('A' for Active; 'I' for Inactive)
REMARK    1  A    between atoms: C_7  and  C_8 
REMARK    2  A    between atoms: C_11  and  N_12 
REMARK       I    between atoms: N_12  and  C_13 
REMARK    3  A    between atoms: C_13  and  C_14 
REMARK    4  A    between atoms: C_14  and  N_15 
REMARK    5  A    between atoms: N_15  and  C_16 
REMARK    6  A    between atoms: C_17  and  O_18 
REMARK    7  A    between atoms: C_22  and  N_23 
REMARK       I    between atoms: N_23  and  C_24 
ROOT
HETATM    1  N   UNL     1       6.023  30.299  58.413  1.00  0.00    -0.326 N 
HETATM    2  C   UNL     1       5.507  31.471  57.896  1.00  0.00     0.239 C 
HETATM    3  O   UNL     1       5.223  31.660  56.713  1.00  0.00    -0.271 OA
HETATM    4  H   UNL     1       6.031  30.238  59.417  1.00  0.00     0.169 HD
ENDROOT
BRANCH   2   5
HETATM    5  C   UNL     1       5.358  32.610  58.942  1.00  0.00     0.148 C 
HETATM    6  C   UNL     1       4.467  33.747  58.456  1.00  0.00     0.036 C 
BRANCH   5   7
HETATM    7  N   UNL     1       6.623  33.094  59.552  1.00  0.00    -0.278 NA
HETATM    8  H   UNL     1       6.684  34.110  59.411  1.00  0.00     0.128 HD
BRANCH   7   9
HETATM    9  C   UNL     1       6.997  32.861  60.884  1.00  0.00     0.044 C 
HETATM   10  C   UNL     1       7.972  31.875  61.154  1.00  0.00     0.089 C 
HETATM   11  C   UNL     1       8.428  31.670  62.455  1.00  0.00     0.041 C 
HETATM   12  C   UNL     1       7.907  32.427  63.508  1.00  0.00     0.032 C 
HETATM   13  C   UNL     1       6.899  33.360  63.277  1.00  0.00     0.036 C 
HETATM   14  C   UNL     1       6.412  33.524  61.971  1.00  0.00     0.055 C 
BRANCH  10  15
HETATM   15  O   UNL     1       8.452  31.203  60.052  1.00  0.00    -0.354 OA
HETATM   16  C   UNL     1       9.636  31.743  59.475  1.00  0.00     0.210 C 
ENDBRANCH  10  15
BRANCH  13  17
HETATM   17  N   UNL     1       6.359  34.200  64.276  1.00  0.00    -0.327 N 
HETATM   18  C   UNL     1       5.225  33.970  65.038  1.00  0.00     0.218 C 
HETATM   19  C   UNL     1       5.033  35.014  66.109  1.00  0.00     0.117 C 
HETATM   20  O   UNL     1       4.459  33.019  64.949  1.00  0.00    -0.274 OA
HETATM   21  H   UNL     1       6.894  35.029  64.500  1.00  0.00     0.169 HD
ENDBRANCH  13  17
ENDBRANCH   7   9
ENDBRANCH   5   7
ENDBRANCH   2   5
BRANCH   1  22
HETATM   22  C   UNL     1       6.462  29.146  57.746  1.00  0.00     0.034 A 
HETATM   23  C   UNL     1       7.791  28.737  57.661  1.00  0.00     0.030 A 
HETATM   24  C   UNL     1       8.122  27.528  57.025  1.00  0.00     0.016 A 
HETATM   25  C   UNL     1       7.132  26.706  56.462  1.00  0.00    -0.000 A 
HETATM   26  C   UNL     1       5.801  27.141  56.547  1.00  0.00     0.016 A 
HETATM   27  C   UNL     1       5.470  28.342  57.176  1.00  0.00     0.030 A 
BRANCH  25  28
HETATM   28  C   UNL     1       7.400  25.410  55.806  1.00  0.00     0.109 A 
HETATM   29  N   UNL     1       7.513  24.277  56.474  1.00  0.00    -0.240 NA
HETATM   30  C   UNL     1       7.733  23.220  55.612  1.00  0.00     0.075 A 
HETATM   31  C   UNL     1       7.789  23.555  54.262  1.00  0.00     0.036 A 
HETATM   32  C   UNL     1       7.896  21.872  55.987  1.00  0.00     0.033 A 
HETATM   33  C   UNL     1       8.000  22.586  53.265  1.00  0.00     0.028 A 
HETATM   34  S   UNL     1       7.560  25.253  54.100  1.00  0.00    -0.067 SA
HETATM   35  C   UNL     1       8.155  21.245  53.652  1.00  0.00    -0.061 A 
HETATM   36  C   UNL     1       8.377  20.174  52.622  1.00  0.00     0.048 C 
HETATM   37  C   UNL     1       8.105  20.898  55.004  1.00  0.00     0.009 A 
ENDBRANCH  25  28
ENDBRANCH   1  22
TORSDOF 7
ENDMDL
MODEL 2
REMARK VINA RESULT:     -10.2      0.960      1.274
REMARK  7 active torsions:
REMARK  status: ('A' for Active; 'I' for Inactive)
REMARK    1  A    between atoms: C_7  and  C_8 
REMARK    2  A    between atoms: C_11  and  N_12 
REMARK       I    between atoms: N_12  and  C_13 
REMARK    3  A    between atoms: C_13  and  C_14 
REMARK    4  A    between atoms: C_14  and  N_15 
REMARK    5  A    between atoms: N_15  and  C_16 
REMARK    6  A    between atoms: C_17  and  O_18 
REMARK    7  A    between atoms: C_22  and  N_23 
REMARK       I    between atoms: N_23  and  C_24 
ROOT
HETATM    1  N   UNL     1       5.565  30.265  58.142  1.00  0.00    -0.326 N 
HETATM    2  C   UNL     1       4.655  31.255  57.830  1.00  0.00     0.239 C 
HETATM    3  O   UNL     1       3.754  31.153  56.998  1.00  0.00    -0.271 OA
HETATM    4  H   UNL     1       6.121  30.434  58.964  1.00  0.00     0.169 HD
ENDROOT
BRANCH   2   5
HETATM    5  C   UNL     1       4.890  32.591  58.588  1.00  0.00     0.148 C 
HETATM    6  C   UNL     1       4.156  33.767  57.957  1.00  0.00     0.036 C 
BRANCH   5   7
HETATM    7  N   UNL     1       6.305  32.906  58.912  1.00  0.00    -0.278 NA
HETATM    8  H   UNL     1       6.466  33.905  58.731  1.00  0.00     0.128 HD
BRANCH   7   9
HETATM    9  C   UNL     1       6.913  32.631  60.147  1.00  0.00     0.044 C 
HETATM   10  C   UNL     1       8.286  32.298  60.169  1.00  0.00     0.089 C 
HETATM   11  C   UNL     1       8.944  32.096  61.381  1.00  0.00     0.041 C 
HETATM   12  C   UNL     1       8.243  32.203  62.586  1.00  0.00     0.032 C 
HETATM   13  C   UNL     1       6.876  32.466  62.587  1.00  0.00     0.036 C 
HETATM   14  C   UNL     1       6.213  32.619  61.360  1.00  0.00     0.055 C 
BRANCH  10  15
HETATM   15  O   UNL     1       8.901  32.248  58.938  1.00  0.00    -0.354 OA
HETATM   16  C   UNL     1      10.116  31.506  58.892  1.00  0.00     0.210 C 
ENDBRANCH  10  15
BRANCH  13  17
HETATM   17  N   UNL     1       6.109  32.642  63.760  1.00  0.00    -0.327 N 
HETATM   18  C   UNL     1       5.831  33.836  64.406  1.00  0.00     0.218 C 
HETATM   19  C   UNL     1       4.860  33.659  65.546  1.00  0.00     0.117 C 
HETATM   20  O   UNL     1       6.240  34.950  64.101  1.00  0.00    -0.274 OA
HETATM   21  H   UNL     1       5.667  31.813  64.134  1.00  0.00     0.169 HD
ENDBRANCH  13  17
ENDBRANCH   7   9
ENDBRANCH   5   7
ENDBRANCH   2   5
BRANCH   1  22
HETATM   22  C   UNL     1       5.774  29.019  57.533  1.00  0.00     0.034 A 
HETATM   23  C   UNL     1       4.862  28.385  56.693  1.00  0.00     0.030 A 
HETATM   24  C   UNL     1       5.193  27.166  56.076  1.00  0.00     0.016 A 
HETATM   25  C   UNL     1       6.440  26.557  56.290  1.00  0.00    -0.000 A 
HETATM   26  C   UNL     1       7.341  27.204  57.149  1.00  0.00     0.016 A 
HETATM   27  C   UNL     1       7.014  28.414  57.762  1.00  0.00     0.030 A 
BRANCH  25  28
HETATM   28  C   UNL     1       6.870  25.295  55.655  1.00  0.00     0.109 A 
HETATM   29  N   UNL     1       7.050  24.176  56.331  1.00  0.00    -0.240 NA
HETATM   30  C   UNL     1       7.423  23.147  55.486  1.00  0.00     0.075 A 
HETATM   31  C   UNL     1       7.528  23.491  54.141  1.00  0.00     0.036 A 
HETATM   32  C   UNL     1       7.690  21.820  55.874  1.00  0.00     0.033 A 
HETATM   33  C   UNL     1       7.891  22.550  53.161  1.00  0.00     0.028 A 
HETATM   34  S   UNL     1       7.148  25.160  53.962  1.00  0.00    -0.067 SA
HETATM   35  C   UNL     1       8.150  21.229  53.560  1.00  0.00    -0.061 A 
HETATM   36  C   UNL     1       8.536  20.187  52.548  1.00  0.00     0.048 C 
HETATM   37  C   UNL     1       8.051  20.874  54.907  1.00  0.00     0.009 A 
ENDBRANCH  25  28
ENDBRANCH   1  22
TORSDOF 7
ENDMDL
MODEL 3
REMARK VINA RESULT:      -9.8      1.833      3.033
REMARK  7 active torsions:
REMARK  status: ('A' for Active; 'I' for Inactive)
REMARK    1  A    between atoms: C_7  and  C_8 
REMARK    2  A    between atoms: C_11  and  N_12 
REMARK       I    between atoms: N_12  and  C_13 
REMARK    3  A    between atoms: C_13  and  C_14 
REMARK    4  A    between atoms: C_14  and  N_15 
REMARK    5  A    between atoms: N_15  and  C_16 
REMARK    6  A    between atoms: C_17  and  O_18 
REMARK    7  A    between atoms: C_22  and  N_23 
REMARK       I    between atoms: N_23  and  C_24 
ROOT
HETATM    1  N   UNL     1       6.393  30.596  58.619  1.00  0.00    -0.326 N 
HETATM    2  C   UNL     1       7.153  31.409  59.436  1.00  0.00     0.239 C 
HETATM    3  O   UNL     1       8.369  31.311  59.601  1.00  0.00    -0.271 OA
HETATM    4  H   UNL     1       5.454  30.913  58.449  1.00  0.00     0.169 HD
ENDROOT
BRANCH   2   5
HETATM    5  C   UNL     1       6.327  32.467  60.217  1.00  0.00     0.148 C 
HETATM    6  C   UNL     1       7.115  33.116  61.350  1.00  0.00     0.036 C 
BRANCH   5   7
HETATM    7  N   UNL     1       4.967  32.041  60.637  1.00  0.00    -0.278 NA
HETATM    8  H   UNL     1       5.061  31.267  61.307  1.00  0.00     0.128 HD
BRANCH   7   9
HETATM    9  C   UNL     1       3.998  32.903  61.171  1.00  0.00     0.044 C 
HETATM   10  C   UNL     1       3.016  33.439  60.309  1.00  0.00     0.089 C 
HETATM   11  C   UNL     1       1.990  34.236  60.816  1.00  0.00     0.041 C 
HETATM   12  C   UNL     1       1.938  34.528  62.182  1.00  0.00     0.032 C 
HETATM   13  C   UNL     1       2.931  34.065  63.042  1.00  0.00     0.036 C 
HETATM   14  C   UNL     1       3.986  33.305  62.513  1.00  0.00     0.055 C 
BRANCH  10  15
HETATM   15  O   UNL     1       3.127  33.071  58.987  1.00  0.00    -0.354 OA
HETATM   16  C   UNL     1       3.258  34.147  58.063  1.00  0.00     0.210 C 
ENDBRANCH  10  15
BRANCH  13  17
HETATM   17  N   UNL     1       2.921  34.271  64.439  1.00  0.00    -0.327 N 
HETATM   18  C   UNL     1       3.533  35.299  65.136  1.00  0.00     0.218 C 
HETATM   19  C   UNL     1       3.188  35.282  66.604  1.00  0.00     0.117 C 
HETATM   20  O   UNL     1       4.234  36.189  64.670  1.00  0.00    -0.274 OA
HETATM   21  H   UNL     1       2.355  33.631  64.981  1.00  0.00     0.169 HD
ENDBRANCH  13  17
ENDBRANCH   7   9
ENDBRANCH   5   7
ENDBRANCH   2   5
BRANCH   1  22
HETATM   22  C   UNL     1       6.761  29.436  57.922  1.00  0.00     0.034 A 
HETATM   23  C   UNL     1       8.072  28.999  57.747  1.00  0.00     0.030 A 
HETATM   24  C   UNL     1       8.334  27.785  57.088  1.00  0.00     0.016 A 
HETATM   25  C   UNL     1       7.291  26.987  56.591  1.00  0.00    -0.000 A 
HETATM   26  C   UNL     1       5.978  27.450  56.766  1.00  0.00     0.016 A 
HETATM   27  C   UNL     1       5.716  28.655  57.419  1.00  0.00     0.030 A 
BRANCH  25  28
HETATM   28  C   UNL     1       7.486  25.687  55.916  1.00  0.00     0.109 A 
HETATM   29  N   UNL     1       7.605  24.548  56.572  1.00  0.00    -0.240 NA
HETATM   30  C   UNL     1       7.748  23.490  55.695  1.00  0.00     0.075 A 
HETATM   31  C   UNL     1       7.738  23.831  54.345  1.00  0.00     0.036 A 
HETATM   32  C   UNL     1       7.894  22.137  56.055  1.00  0.00     0.033 A 
HETATM   33  C   UNL     1       7.866  22.862  53.334  1.00  0.00     0.028 A 
HETATM   34  S   UNL     1       7.547  25.536  54.203  1.00  0.00    -0.067 SA
HETATM   35  C   UNL     1       8.005  21.515  53.706  1.00  0.00    -0.061 A 
HETATM   36  C   UNL     1       8.140  20.444  52.661  1.00  0.00     0.048 C 
HETATM   37  C   UNL     1       8.021  21.163  55.057  1.00  0.00     0.009 A 
ENDBRANCH  25  28
ENDBRANCH   1  22
TORSDOF 7
ENDMDL
MODEL 4
REMARK VINA RESULT:      -9.5      2.047      3.454
REMARK  7 active torsions:
REMARK  status: ('A' for Active; 'I' for Inactive)
REMARK    1  A    between atoms: C_7  and  C_8 
REMARK    2  A    between atoms: C_11  and  N_12 
REMARK       I    between atoms: N_12  and  C_13 
REMARK    3  A    between atoms: C_13  and  C_14 
REMARK    4  A    between atoms: C_14  and  N_15 
REMARK    5  A    between atoms: N_15  and  C_16 
REMARK    6  A    between atoms: C_17  and  O_18 
REMARK    7  A    between atoms: C_22  and  N_23 
REMARK       I    between atoms: N_23  and  C_24 
ROOT
HETATM    1  N   UNL     1       4.636  30.850  57.002  1.00  0.00    -0.326 N 
HETATM    2  C   UNL     1       3.458  31.558  56.869  1.00  0.00     0.239 C 
HETATM    3  O   UNL     1       2.454  31.158  56.281  1.00  0.00    -0.271 OA
HETATM    4  H   UNL     1       5.296  31.232  57.659  1.00  0.00     0.169 HD
ENDROOT
BRANCH   2   5
HETATM    5  C   UNL     1       3.505  32.983  57.486  1.00  0.00     0.148 C 
HETATM    6  C   UNL     1       4.733  33.775  57.052  1.00  0.00     0.036 C 
BRANCH   5   7
HETATM    7  N   UNL     1       3.262  33.059  58.949  1.00  0.00    -0.278 NA
HETATM    8  H   UNL     1       2.794  32.194  59.247  1.00  0.00     0.128 HD
BRANCH   7   9
HETATM    9  C   UNL     1       4.259  33.311  59.903  1.00  0.00     0.044 C 
HETATM   10  C   UNL     1       4.193  34.506  60.656  1.00  0.00     0.089 C 
HETATM   11  C   UNL     1       5.119  34.755  61.667  1.00  0.00     0.041 C 
HETATM   12  C   UNL     1       6.134  33.831  61.932  1.00  0.00     0.032 C 
HETATM   13  C   UNL     1       6.259  32.678  61.162  1.00  0.00     0.036 C 
HETATM   14  C   UNL     1       5.351  32.460  60.114  1.00  0.00     0.055 C 
BRANCH  10  15
HETATM   15  O   UNL     1       3.141  35.339  60.349  1.00  0.00    -0.354 OA
HETATM   16  C   UNL     1       3.502  36.605  59.805  1.00  0.00     0.210 C 
ENDBRANCH  10  15
BRANCH  13  17
HETATM   17  N   UNL     1       7.222  31.673  61.400  1.00  0.00    -0.327 N 
HETATM   18  C   UNL     1       8.549  31.677  61.005  1.00  0.00     0.218 C 
HETATM   19  C   UNL     1       9.317  30.504  61.560  1.00  0.00     0.117 C 
HETATM   20  O   UNL     1       9.115  32.533  60.335  1.00  0.00    -0.274 OA
HETATM   21  H   UNL     1       6.923  30.894  61.972  1.00  0.00     0.169 HD
ENDBRANCH  13  17
ENDBRANCH   7   9
ENDBRANCH   5   7
ENDBRANCH   2   5
BRANCH   1  22
HETATM   22  C   UNL     1       5.018  29.633  56.420  1.00  0.00     0.034 A 
HETATM   23  C   UNL     1       5.123  29.408  55.049  1.00  0.00     0.030 A 
HETATM   24  C   UNL     1       5.578  28.170  54.565  1.00  0.00     0.016 A 
HETATM   25  C   UNL     1       5.935  27.133  55.441  1.00  0.00    -0.000 A 
HETATM   26  C   UNL     1       5.811  27.373  56.818  1.00  0.00     0.016 A 
HETATM   27  C   UNL     1       5.358  28.601  57.300  1.00  0.00     0.030 A 
BRANCH  25  28
HETATM   28  C   UNL     1       6.450  25.817  55.009  1.00  0.00     0.109 A 
HETATM   29  N   UNL     1       6.694  24.830  55.849  1.00  0.00    -0.240 NA
HETATM   30  C   UNL     1       7.139  23.709  55.174  1.00  0.00     0.075 A 
HETATM   31  C   UNL     1       7.234  23.847  53.792  1.00  0.00     0.036 A 
HETATM   32  C   UNL     1       7.487  22.478  55.762  1.00  0.00     0.033 A 
HETATM   33  C   UNL     1       7.664  22.791  52.968  1.00  0.00     0.028 A 
HETATM   34  S   UNL     1       6.750  25.440  53.357  1.00  0.00    -0.067 SA
HETATM   35  C   UNL     1       8.003  21.566  53.567  1.00  0.00    -0.061 A 
HETATM   36  C   UNL     1       8.462  20.408  52.727  1.00  0.00     0.048 C 
HETATM   37  C   UNL     1       7.915  21.419  54.953  1.00  0.00     0.009 A 
ENDBRANCH  25  28
ENDBRANCH   1  22
TORSDOF 7
ENDMDL
MODEL 5
REMARK VINA RESULT:      -9.0      3.828     11.533
REMARK  7 active torsions:
REMARK  status: ('A' for Active; 'I' for Inactive)
REMARK    1  A    between atoms: C_7  and  C_8 
REMARK    2  A    between atoms: C_11  and  N_12 
REMARK       I    between atoms: N_12  and  C_13 
REMARK    3  A    between atoms: C_13  and  C_14 
REMARK    4  A    between atoms: C_14  and  N_15 
REMARK    5  A    between atoms: N_15  and  C_16 
REMARK    6  A    between atoms: C_17  and  O_18 
REMARK    7  A    between atoms: C_22  and  N_23 
REMARK       I    between atoms: N_23  and  C_24 
ROOT
HETATM    1  N   UNL     1       4.613  30.144  56.045  1.00  0.00    -0.326 N 
HETATM    2  C   UNL     1       4.612  28.811  55.686  1.00  0.00     0.239 C 
HETATM    3  O   UNL     1       4.525  27.866  56.469  1.00  0.00    -0.271 OA
HETATM    4  H   UNL     1       4.508  30.795  55.285  1.00  0.00     0.169 HD
ENDROOT
BRANCH   2   5
HETATM    5  C   UNL     1       4.796  28.568  54.162  1.00  0.00     0.148 C 
HETATM    6  C   UNL     1       4.152  29.653  53.308  1.00  0.00     0.036 C 
BRANCH   5   7
HETATM    7  N   UNL     1       4.475  27.198  53.686  1.00  0.00    -0.278 NA
HETATM    8  H   UNL     1       3.912  27.276  52.829  1.00  0.00     0.128 HD
BRANCH   7   9
HETATM    9  C   UNL     1       5.433  26.205  53.433  1.00  0.00     0.044 C 
HETATM   10  C   UNL     1       5.983  26.104  52.136  1.00  0.00     0.089 C 
HETATM   11  C   UNL     1       6.994  25.183  51.866  1.00  0.00     0.041 C 
HETATM   12  C   UNL     1       7.458  24.336  52.876  1.00  0.00     0.032 C 
HETATM   13  C   UNL     1       6.888  24.371  54.146  1.00  0.00     0.036 C 
HETATM   14  C   UNL     1       5.837  25.268  54.393  1.00  0.00     0.055 C 
BRANCH  10  15
HETATM   15  O   UNL     1       5.489  27.001  51.215  1.00  0.00    -0.354 OA
HETATM   16  C   UNL     1       4.888  26.422  50.060  1.00  0.00     0.210 C 
ENDBRANCH  10  15
BRANCH  13  17
HETATM   17  N   UNL     1       7.336  23.588  55.232  1.00  0.00    -0.327 N 
HETATM   18  C   UNL     1       7.699  22.251  55.205  1.00  0.00     0.218 C 
HETATM   19  C   UNL     1       8.266  21.783  56.521  1.00  0.00     0.117 C 
HETATM   20  O   UNL     1       7.651  21.495  54.242  1.00  0.00    -0.274 OA
HETATM   21  H   UNL     1       7.462  24.072  56.111  1.00  0.00     0.169 HD
ENDBRANCH  13  17
ENDBRANCH   7   9
ENDBRANCH   5   7
ENDBRANCH   2   5
BRANCH   1  22
HETATM   22  C   UNL     1       4.657  30.726  57.321  1.00  0.00     0.034 A 
HETATM   23  C   UNL     1       3.537  31.030  58.091  1.00  0.00     0.030 A 
HETATM   24  C   UNL     1       3.688  31.551  59.388  1.00  0.00     0.016 A 
HETATM   25  C   UNL     1       4.959  31.779  59.937  1.00  0.00    -0.000 A 
HETATM   26  C   UNL     1       6.075  31.478  59.142  1.00  0.00     0.016 A 
HETATM   27  C   UNL     1       5.927  30.962  57.854  1.00  0.00     0.030 A 
BRANCH  25  28
HETATM   28  C   UNL     1       5.197  32.295  61.302  1.00  0.00     0.109 A 
HETATM   29  N   UNL     1       6.397  32.355  61.848  1.00  0.00    -0.240 NA
HETATM   30  C   UNL     1       6.332  32.903  63.114  1.00  0.00     0.075 A 
HETATM   31  C   UNL     1       5.057  33.269  63.540  1.00  0.00     0.036 A 
HETATM   32  C   UNL     1       7.425  33.118  63.976  1.00  0.00     0.033 A 
HETATM   33  C   UNL     1       4.833  33.847  64.802  1.00  0.00     0.028 A 
HETATM   34  S   UNL     1       3.928  32.896  62.296  1.00  0.00    -0.067 SA
HETATM   35  C   UNL     1       5.933  34.059  65.649  1.00  0.00    -0.061 A 
HETATM   36  C   UNL     1       5.743  34.679  67.005  1.00  0.00     0.048 C 
HETATM   37  C   UNL     1       7.215  33.693  65.234  1.00  0.00     0.009 A 
ENDBRANCH  25  28
ENDBRANCH   1  22
TORSDOF 7
ENDMDL
MODEL 6
REMARK VINA RESULT:      -9.0      2.254      3.148
REMARK  7 active torsions:
REMARK  status: ('A' for Active; 'I' for Inactive)
REMARK    1  A    between atoms: C_7  and  C_8 
REMARK    2  A    between atoms: C_11  and  N_12 
REMARK       I    between atoms: N_12  and  C_13 
REMARK    3  A    between atoms: C_13  and  C_14 
REMARK    4  A    between atoms: C_14  and  N_15 
REMARK    5  A    between atoms: N_15  and  C_16 
REMARK    6  A    between atoms: C_17  and  O_18 
REMARK    7  A    between atoms: C_22  and  N_23 
REMARK       I    between atoms: N_23  and  C_24 
ROOT
HETATM    1  N   UNL     1       5.868  30.543  57.997  1.00  0.00    -0.326 N 
HETATM    2  C   UNL     1       6.427  31.212  59.067  1.00  0.00     0.239 C 
HETATM    3  O   UNL     1       7.516  30.950  59.576  1.00  0.00    -0.271 OA
HETATM    4  H   UNL     1       5.065  30.986  57.584  1.00  0.00     0.169 HD
ENDROOT
BRANCH   2   5
HETATM    5  C   UNL     1       5.523  32.331  59.654  1.00  0.00     0.148 C 
HETATM    6  C   UNL     1       5.292  33.478  58.677  1.00  0.00     0.036 C 
BRANCH   5   7
HETATM    7  N   UNL     1       5.883  32.802  61.016  1.00  0.00    -0.278 NA
HETATM    8  H   UNL     1       6.666  33.463  60.935  1.00  0.00     0.128 HD
BRANCH   7   9
HETATM    9  C   UNL     1       4.977  33.379  61.918  1.00  0.00     0.044 C 
HETATM   10  C   UNL     1       5.471  33.917  63.127  1.00  0.00     0.089 C 
HETATM   11  C   UNL     1       4.614  34.569  64.013  1.00  0.00     0.041 C 
HETATM   12  C   UNL     1       3.252  34.679  63.718  1.00  0.00     0.032 C 
HETATM   13  C   UNL     1       2.730  34.101  62.563  1.00  0.00     0.036 C 
HETATM   14  C   UNL     1       3.593  33.404  61.703  1.00  0.00     0.055 C 
BRANCH  10  15
HETATM   15  O   UNL     1       6.829  33.792  63.317  1.00  0.00    -0.354 OA
HETATM   16  C   UNL     1       7.226  33.327  64.603  1.00  0.00     0.210 C 
ENDBRANCH  10  15
BRANCH  13  17
HETATM   17  N   UNL     1       1.379  34.213  62.168  1.00  0.00    -0.327 N 
HETATM   18  C   UNL     1       0.888  34.850  61.040  1.00  0.00     0.218 C 
HETATM   19  C   UNL     1      -0.596  34.644  60.864  1.00  0.00     0.117 C 
HETATM   20  O   UNL     1       1.535  35.473  60.207  1.00  0.00    -0.274 OA
HETATM   21  H   UNL     1       0.703  33.723  62.740  1.00  0.00     0.169 HD
ENDBRANCH  13  17
ENDBRANCH   7   9
ENDBRANCH   5   7
ENDBRANCH   2   5
BRANCH   1  22
HETATM   22  C   UNL     1       6.302  29.379  57.346  1.00  0.00     0.034 A 
HETATM   23  C   UNL     1       7.623  29.115  56.990  1.00  0.00     0.030 A 
HETATM   24  C   UNL     1       7.967  27.887  56.399  1.00  0.00     0.016 A 
HETATM   25  C   UNL     1       6.998  26.902  56.150  1.00  0.00    -0.000 A 
HETATM   26  C   UNL     1       5.671  27.191  56.503  1.00  0.00     0.016 A 
HETATM   27  C   UNL     1       5.327  28.409  57.089  1.00  0.00     0.030 A 
BRANCH  25  28
HETATM   28  C   UNL     1       7.288  25.578  55.561  1.00  0.00     0.109 A 
HETATM   29  N   UNL     1       7.356  24.472  56.278  1.00  0.00    -0.240 NA
HETATM   30  C   UNL     1       7.612  23.380  55.471  1.00  0.00     0.075 A 
HETATM   31  C   UNL     1       7.742  23.661  54.114  1.00  0.00     0.036 A 
HETATM   32  C   UNL     1       7.742  22.048  55.907  1.00  0.00     0.033 A 
HETATM   33  C   UNL     1       7.996  22.652  53.168  1.00  0.00     0.028 A 
HETATM   34  S   UNL     1       7.537  25.353  53.874  1.00  0.00    -0.067 SA
HETATM   35  C   UNL     1       8.119  21.326  53.615  1.00  0.00    -0.061 A 
HETATM   36  C   UNL     1       8.385  20.213  52.641  1.00  0.00     0.048 C 
HETATM   37  C   UNL     1       7.994  21.034  54.975  1.00  0.00     0.009 A 
ENDBRANCH  25  28
ENDBRANCH   1  22
TORSDOF 7
ENDMDL
MODEL 7
REMARK VINA RESULT:      -9.0      8.046     11.380
REMARK  7 active torsions:
REMARK  status: ('A' for Active; 'I' for Inactive)
REMARK    1  A    between atoms: C_7  and  C_8 
REMARK    2  A    between atoms: C_11  and  N_12 
REMARK       I    between atoms: N_12  and  C_13 
REMARK    3  A    between atoms: C_13  and  C_14 
REMARK    4  A    between atoms: C_14  and  N_15 
REMARK    5  A    between atoms: N_15  and  C_16 
REMARK    6  A    between atoms: C_17  and  O_18 
REMARK    7  A    between atoms: C_22  and  N_23 
REMARK       I    between atoms: N_23  and  C_24 
ROOT
HETATM    1  N   UNL     1       4.498  29.438  50.280  1.00  0.00    -0.326 N 
HETATM    2  C   UNL     1       3.779  30.529  50.726  1.00  0.00     0.239 C 
HETATM    3  O   UNL     1       3.641  30.852  51.905  1.00  0.00    -0.271 OA
HETATM    4  H   UNL     1       4.669  29.411  49.288  1.00  0.00     0.169 HD
ENDROOT
BRANCH   2   5
HETATM    5  C   UNL     1       3.073  31.325  49.594  1.00  0.00     0.148 C 
HETATM    6  C   UNL     1       3.302  32.828  49.696  1.00  0.00     0.036 C 
BRANCH   5   7
HETATM    7  N   UNL     1       1.648  30.977  49.356  1.00  0.00    -0.278 NA
HETATM    8  H   UNL     1       1.155  31.823  49.041  1.00  0.00     0.128 HD
BRANCH   7   9
HETATM    9  C   UNL     1       1.218  29.940  48.515  1.00  0.00     0.044 C 
HETATM   10  C   UNL     1       0.415  30.260  47.397  1.00  0.00     0.089 C 
HETATM   11  C   UNL     1       0.034  29.268  46.494  1.00  0.00     0.041 C 
HETATM   12  C   UNL     1       0.428  27.943  46.700  1.00  0.00     0.032 C 
HETATM   13  C   UNL     1       1.165  27.592  47.829  1.00  0.00     0.036 C 
HETATM   14  C   UNL     1       1.502  28.590  48.757  1.00  0.00     0.055 C 
BRANCH  10  15
HETATM   15  O   UNL     1       0.104  31.594  47.256  1.00  0.00    -0.354 OA
HETATM   16  C   UNL     1       0.693  32.243  46.134  1.00  0.00     0.210 C 
ENDBRANCH  10  15
BRANCH  13  17
HETATM   17  N   UNL     1       1.646  26.289  48.081  1.00  0.00    -0.327 N 
HETATM   18  C   UNL     1       2.838  25.738  47.640  1.00  0.00     0.218 C 
HETATM   19  C   UNL     1       3.090  24.371  48.224  1.00  0.00     0.117 C 
HETATM   20  O   UNL     1       3.669  26.269  46.912  1.00  0.00    -0.274 OA
HETATM   21  H   UNL     1       1.087  25.717  48.700  1.00  0.00     0.169 HD
ENDBRANCH  13  17
ENDBRANCH   7   9
ENDBRANCH   5   7
ENDBRANCH   2   5
BRANCH   1  22
HETATM   22  C   UNL     1       5.099  28.403  51.012  1.00  0.00     0.034 A 
HETATM   23  C   UNL     1       5.794  28.578  52.206  1.00  0.00     0.030 A 
HETATM   24  C   UNL     1       6.304  27.467  52.900  1.00  0.00     0.016 A 
HETATM   25  C   UNL     1       6.130  26.162  52.413  1.00  0.00    -0.000 A 
HETATM   26  C   UNL     1       5.439  26.007  51.202  1.00  0.00     0.016 A 
HETATM   27  C   UNL     1       4.933  27.109  50.511  1.00  0.00     0.030 A 
BRANCH  25  28
HETATM   28  C   UNL     1       6.610  24.945  53.100  1.00  0.00     0.109 A 
HETATM   29  N   UNL     1       7.050  23.882  52.454  1.00  0.00    -0.240 NA
HETATM   30  C   UNL     1       7.461  22.905  53.341  1.00  0.00     0.075 A 
HETATM   31  C   UNL     1       7.331  23.232  54.688  1.00  0.00     0.036 A 
HETATM   32  C   UNL     1       7.988  21.647  52.993  1.00  0.00     0.033 A 
HETATM   33  C   UNL     1       7.715  22.344  55.708  1.00  0.00     0.028 A 
HETATM   34  S   UNL     1       6.667  24.815  54.815  1.00  0.00    -0.067 SA
HETATM   35  C   UNL     1       8.244  21.094  55.348  1.00  0.00    -0.061 A 
HETATM   36  C   UNL     1       8.672  20.113  56.403  1.00  0.00     0.048 C 
HETATM   37  C   UNL     1       8.374  20.754  53.999  1.00  0.00     0.009 A 
ENDBRANCH  25  28
ENDBRANCH   1  22
TORSDOF 7
ENDMDL
MODEL 8
REMARK VINA RESULT:      -8.9      5.304     12.059
REMARK  7 active torsions:
REMARK  status: ('A' for Active; 'I' for Inactive)
REMARK    1  A    between atoms: C_7  and  C_8 
REMARK    2  A    between atoms: C_11  and  N_12 
REMARK       I    between atoms: N_12  and  C_13 
REMARK    3  A    between atoms: C_13  and  C_14 
REMARK    4  A    between atoms: C_14  and  N_15 
REMARK    5  A    between atoms: N_15  and  C_16 
REMARK    6  A    between atoms: C_17  and  O_18 
REMARK    7  A    between atoms: C_22  and  N_23 
REMARK       I    between atoms: N_23  and  C_24 
ROOT
HETATM    1  N   UNL     1       6.104  29.803  55.113  1.00  0.00    -0.326 N 
HETATM    2  C   UNL     1       5.550  28.607  54.699  1.00  0.00     0.239 C 
HETATM    3  O   UNL     1       4.766  27.924  55.356  1.00  0.00    -0.271 OA
HETATM    4  H   UNL     1       6.579  30.328  54.399  1.00  0.00     0.169 HD
ENDROOT
BRANCH   2   5
HETATM    5  C   UNL     1       6.051  28.128  53.309  1.00  0.00     0.148 C 
HETATM    6  C   UNL     1       7.335  27.311  53.392  1.00  0.00     0.036 C 
BRANCH   5   7
HETATM    7  N   UNL     1       6.102  29.169  52.249  1.00  0.00    -0.278 NA
HETATM    8  H   UNL     1       7.071  29.244  51.914  1.00  0.00     0.128 HD
BRANCH   7   9
HETATM    9  C   UNL     1       5.292  29.171  51.104  1.00  0.00     0.044 C 
HETATM   10  C   UNL     1       5.161  30.368  50.366  1.00  0.00     0.089 C 
HETATM   11  C   UNL     1       4.430  30.390  49.180  1.00  0.00     0.041 C 
HETATM   12  C   UNL     1       3.801  29.229  48.721  1.00  0.00     0.032 C 
HETATM   13  C   UNL     1       3.861  28.053  49.465  1.00  0.00     0.036 C 
HETATM   14  C   UNL     1       4.559  28.054  50.682  1.00  0.00     0.055 C 
BRANCH  10  15
HETATM   15  O   UNL     1       5.842  31.452  50.874  1.00  0.00    -0.354 OA
HETATM   16  C   UNL     1       5.814  32.624  50.067  1.00  0.00     0.210 C 
ENDBRANCH  10  15
BRANCH  13  17
HETATM   17  N   UNL     1       3.299  26.827  49.045  1.00  0.00    -0.327 N 
HETATM   18  C   UNL     1       3.738  26.019  48.009  1.00  0.00     0.218 C 
HETATM   19  C   UNL     1       2.985  24.713  47.941  1.00  0.00     0.117 C 
HETATM   20  O   UNL     1       4.663  26.246  47.239  1.00  0.00    -0.274 OA
HETATM   21  H   UNL     1       2.532  26.473  49.600  1.00  0.00     0.169 HD
ENDBRANCH  13  17
ENDBRANCH   7   9
ENDBRANCH   5   7
ENDBRANCH   2   5
BRANCH   1  22
HETATM   22  C   UNL     1       6.033  30.434  56.364  1.00  0.00     0.034 A 
HETATM   23  C   UNL     1       4.986  31.254  56.778  1.00  0.00     0.030 A 
HETATM   24  C   UNL     1       4.975  31.788  58.078  1.00  0.00     0.016 A 
HETATM   25  C   UNL     1       6.010  31.515  58.986  1.00  0.00    -0.000 A 
HETATM   26  C   UNL     1       7.062  30.698  58.546  1.00  0.00     0.016 A 
HETATM   27  C   UNL     1       7.075  30.167  57.256  1.00  0.00     0.030 A 
BRANCH  25  28
HETATM   28  C   UNL     1       6.053  32.015  60.376  1.00  0.00     0.109 A 
HETATM   29  N   UNL     1       7.127  31.930  61.137  1.00  0.00    -0.240 NA
HETATM   30  C   UNL     1       6.897  32.499  62.375  1.00  0.00     0.075 A 
HETATM   31  C   UNL     1       5.623  33.029  62.559  1.00  0.00     0.036 A 
HETATM   32  C   UNL     1       7.829  32.585  63.428  1.00  0.00     0.033 A 
HETATM   33  C   UNL     1       5.242  33.647  63.763  1.00  0.00     0.028 A 
HETATM   34  S   UNL     1       4.707  32.785  61.122  1.00  0.00    -0.067 SA
HETATM   35  C   UNL     1       6.183  33.731  64.803  1.00  0.00    -0.061 A 
HETATM   36  C   UNL     1       5.824  34.387  66.106  1.00  0.00     0.048 C 
HETATM   37  C   UNL     1       7.463  33.199  64.631  1.00  0.00     0.009 A 
ENDBRANCH  25  28
ENDBRANCH   1  22
TORSDOF 7
ENDMDL
MODEL 9
REMARK VINA RESULT:      -8.8      3.633      5.343
REMARK  7 active torsions:
REMARK  status: ('A' for Active; 'I' for Inactive)
REMARK    1  A    between atoms: C_7  and  C_8 
REMARK    2  A    between atoms: C_11  and  N_12 
REMARK       I    between atoms: N_12  and  C_13 
REMARK    3  A    between atoms: C_13  and  C_14 
REMARK    4  A    between atoms: C_14  and  N_15 
REMARK    5  A    between atoms: N_15  and  C_16 
REMARK    6  A    between atoms: C_17  and  O_18 
REMARK    7  A    between atoms: C_22  and  N_23 
REMARK       I    between atoms: N_23  and  C_24 
ROOT
HETATM    1  N   UNL     1       4.049  31.517  58.968  1.00  0.00    -0.326 N 
HETATM    2  C   UNL     1       3.225  31.305  60.055  1.00  0.00     0.239 C 
HETATM    3  O   UNL     1       2.340  30.452  60.117  1.00  0.00    -0.271 OA
HETATM    4  H   UNL     1       4.835  32.122  59.135  1.00  0.00     0.169 HD
ENDROOT
BRANCH   2   5
HETATM    5  C   UNL     1       3.456  32.299  61.226  1.00  0.00     0.148 C 
HETATM    6  C   UNL     1       3.939  33.666  60.755  1.00  0.00     0.036 C 
BRANCH   5   7
HETATM    7  N   UNL     1       4.248  31.775  62.368  1.00  0.00    -0.278 NA
HETATM    8  H   UNL     1       4.225  30.748  62.336  1.00  0.00     0.128 HD
BRANCH   7   9
HETATM    9  C   UNL     1       5.580  32.127  62.634  1.00  0.00     0.044 C 
HETATM   10  C   UNL     1       5.894  32.702  63.886  1.00  0.00     0.089 C 
HETATM   11  C   UNL     1       7.216  32.992  64.218  1.00  0.00     0.041 C 
HETATM   12  C   UNL     1       8.242  32.733  63.304  1.00  0.00     0.032 C 
HETATM   13  C   UNL     1       7.951  32.227  62.039  1.00  0.00     0.036 C 
HETATM   14  C   UNL     1       6.611  31.985  61.697  1.00  0.00     0.055 C 
BRANCH  10  15
HETATM   15  O   UNL     1       4.825  32.889  64.734  1.00  0.00    -0.354 OA
HETATM   16  C   UNL     1       5.030  33.841  65.774  1.00  0.00     0.210 C 
ENDBRANCH  10  15
BRANCH  13  17
HETATM   17  N   UNL     1       8.932  31.889  61.082  1.00  0.00    -0.327 N 
HETATM   18  C   UNL     1       8.824  31.988  59.704  1.00  0.00     0.218 C 
HETATM   19  C   UNL     1      10.123  31.677  59.003  1.00  0.00     0.117 C 
HETATM   20  O   UNL     1       7.840  32.342  59.067  1.00  0.00    -0.274 OA
HETATM   21  H   UNL     1       9.831  31.601  61.445  1.00  0.00     0.169 HD
ENDBRANCH  13  17
ENDBRANCH   7   9
ENDBRANCH   5   7
ENDBRANCH   2   5
BRANCH   1  22
HETATM   22  C   UNL     1       4.002  30.949  57.686  1.00  0.00     0.034 A 
HETATM   23  C   UNL     1       3.231  31.434  56.633  1.00  0.00     0.030 A 
HETATM   24  C   UNL     1       3.303  30.832  55.364  1.00  0.00     0.016 A 
HETATM   25  C   UNL     1       4.146  29.734  55.126  1.00  0.00    -0.000 A 
HETATM   26  C   UNL     1       4.905  29.252  56.203  1.00  0.00     0.016 A 
HETATM   27  C   UNL     1       4.834  29.848  57.463  1.00  0.00     0.030 A 
BRANCH  25  28
HETATM   28  C   UNL     1       4.297  29.070  53.815  1.00  0.00     0.109 A 
HETATM   29  N   UNL     1       4.712  27.824  53.686  1.00  0.00    -0.240 NA
HETATM   30  C   UNL     1       4.733  27.450  52.356  1.00  0.00     0.075 A 
HETATM   31  C   UNL     1       4.327  28.432  51.455  1.00  0.00     0.036 A 
HETATM   32  C   UNL     1       5.119  26.190  51.861  1.00  0.00     0.033 A 
HETATM   33  C   UNL     1       4.288  28.198  50.069  1.00  0.00     0.028 A 
HETATM   34  S   UNL     1       3.917  29.855  52.332  1.00  0.00    -0.067 SA
HETATM   35  C   UNL     1       4.670  26.934  49.590  1.00  0.00    -0.061 A 
HETATM   36  C   UNL     1       4.640  26.636  48.117  1.00  0.00     0.048 C 
HETATM   37  C   UNL     1       5.083  25.944  50.483  1.00  0.00     0.009 A 
ENDBRANCH  25  28
ENDBRANCH   1  22
TORSDOF 7
ENDMDL
MODEL 10
REMARK VINA RESULT:      -8.6      3.740      4.559
REMARK  7 active torsions:
REMARK  status: ('A' for Active; 'I' for Inactive)
REMARK    1  A    between atoms: C_7  and  C_8 
REMARK    2  A    between atoms: C_11  and  N_12 
REMARK       I    between atoms: N_12  and  C_13 
REMARK    3  A    between atoms: C_13  and  C_14 
REMARK    4  A    between atoms: C_14  and  N_15 
REMARK    5  A    between atoms: N_15  and  C_16 
REMARK    6  A    between atoms: C_17  and  O_18 
REMARK    7  A    between atoms: C_22  and  N_23 
REMARK       I    between atoms: N_23  and  C_24 
ROOT
HETATM    1  N   UNL     1       4.750  31.403  58.556  1.00  0.00    -0.326 N 
HETATM    2  C   UNL     1       3.859  31.592  59.594  1.00  0.00     0.239 C 
HETATM    3  O   UNL     1       2.707  31.161  59.626  1.00  0.00    -0.271 OA
HETATM    4  H   UNL     1       5.703  31.659  58.755  1.00  0.00     0.169 HD
ENDROOT
BRANCH   2   5
HETATM    5  C   UNL     1       4.410  32.478  60.745  1.00  0.00     0.148 C 
HETATM    6  C   UNL     1       4.632  33.926  60.324  1.00  0.00     0.036 C 
BRANCH   5   7
HETATM    7  N   UNL     1       5.563  31.916  61.494  1.00  0.00    -0.278 NA
HETATM    8  H   UNL     1       6.376  31.887  60.865  1.00  0.00     0.128 HD
BRANCH   7   9
HETATM    9  C   UNL     1       6.034  32.420  62.716  1.00  0.00     0.044 C 
HETATM   10  C   UNL     1       7.428  32.472  62.938  1.00  0.00     0.089 C 
HETATM   11  C   UNL     1       7.936  33.039  64.105  1.00  0.00     0.041 C 
HETATM   12  C   UNL     1       7.067  33.544  65.076  1.00  0.00     0.032 C 
HETATM   13  C   UNL     1       5.688  33.445  64.910  1.00  0.00     0.036 C 
HETATM   14  C   UNL     1       5.186  32.829  63.753  1.00  0.00     0.055 C 
BRANCH  10  15
HETATM   15  O   UNL     1       8.207  31.984  61.913  1.00  0.00    -0.354 OA
HETATM   16  C   UNL     1       8.826  30.725  62.163  1.00  0.00     0.210 C 
ENDBRANCH  10  15
BRANCH  13  17
HETATM   17  N   UNL     1       4.745  33.978  65.817  1.00  0.00    -0.327 N 
HETATM   18  C   UNL     1       4.114  35.208  65.741  1.00  0.00     0.218 C 
HETATM   19  C   UNL     1       3.060  35.381  66.805  1.00  0.00     0.117 C 
HETATM   20  O   UNL     1       4.297  36.078  64.896  1.00  0.00    -0.274 OA
HETATM   21  H   UNL     1       4.456  33.368  66.571  1.00  0.00     0.169 HD
ENDBRANCH  13  17
ENDBRANCH   7   9
ENDBRANCH   5   7
ENDBRANCH   2   5
BRANCH   1  22
HETATM   22  C   UNL     1       4.543  30.831  57.293  1.00  0.00     0.034 A 
HETATM   23  C   UNL     1       3.534  31.207  56.409  1.00  0.00     0.030 A 
HETATM   24  C   UNL     1       3.450  30.616  55.136  1.00  0.00     0.016 A 
HETATM   25  C   UNL     1       4.369  29.639  54.724  1.00  0.00    -0.000 A 
HETATM   26  C   UNL     1       5.370  29.264  55.633  1.00  0.00     0.016 A 
HETATM   27  C   UNL     1       5.455  29.848  56.897  1.00  0.00     0.030 A 
BRANCH  25  28
HETATM   28  C   UNL     1       4.362  28.997  53.393  1.00  0.00     0.109 A 
HETATM   29  N   UNL     1       4.860  27.795  53.174  1.00  0.00    -0.240 NA
HETATM   30  C   UNL     1       4.696  27.430  51.851  1.00  0.00     0.075 A 
HETATM   31  C   UNL     1       4.060  28.374  51.049  1.00  0.00     0.036 A 
HETATM   32  C   UNL     1       5.107  26.213  51.275  1.00  0.00     0.033 A 
HETATM   33  C   UNL     1       3.815  28.143  49.683  1.00  0.00     0.028 A 
HETATM   34  S   UNL     1       3.674  29.750  52.008  1.00  0.00    -0.067 SA
HETATM   35  C   UNL     1       4.225  26.923  49.123  1.00  0.00    -0.061 A 
HETATM   36  C   UNL     1       3.980  26.629  47.670  1.00  0.00     0.048 C 
HETATM   37  C   UNL     1       4.868  25.971  49.918  1.00  0.00     0.009 A 
ENDBRANCH  25  28
ENDBRANCH   1  22
TORSDOF 7
ENDMDL
