MODEL 1
REMARK VINA RESULT:     -11.1      0.000      0.000
REMARK  7 active torsions:
REMARK  status: ('A' for Active; 'I' for Inactive)
REMARK    1  A    between atoms: C_4  and  N_5 
REMARK    2  A    between atoms: C_6  and  S_7 
REMARK    3  A    between atoms: S_7  and  C_8 
REMARK    4  A    between atoms: C_8  and  C_9 
REMARK       I    between atoms: C_9  and  N_10 
REMARK    5  A    between atoms: C_12  and  C_13 
REMARK    6  A    between atoms: C_13  and  N_14 
REMARK       I    between atoms: N_14  and  C_15 
REMARK       I    between atoms: C_15  and  N_16 
REMARK    7  A    between atoms: N_16  and  C_17 
ROOT
HETATM    1  C   UNL     1       5.228  30.687  57.811  1.00  0.00     0.229 C 
HETATM    2  N   UNL     1       6.525  30.251  57.476  1.00  0.00    -0.351 N 
HETATM    3  C   UNL     1       6.567  29.131  56.529  1.00  0.00     0.132 C 
HETATM    4  C   UNL     1       7.955  28.933  55.909  1.00  0.00     0.021 C 
HETATM    5  C   UNL     1       8.962  28.702  57.042  1.00  0.00     0.009 C 
HETATM    6  C   UNL     1       8.984  29.935  57.933  1.00  0.00     0.020 C 
HETATM    7  C   UNL     1       7.601  30.295  58.462  1.00  0.00     0.126 C 
HETATM    8  O   UNL     1       4.239  30.110  57.339  1.00  0.00    -0.273 OA
ENDROOT
BRANCH   1   9
HETATM    9  C   UNL     1       5.027  32.019  58.529  1.00  0.00     0.185 C 
BRANCH   9  10
HETATM   10  S   UNL     1       3.906  32.131  59.932  1.00  0.00    -0.082 SA
BRANCH  10  11
HETATM   11  C   UNL     1       3.982  33.793  60.398  1.00  0.00     0.173 A 
HETATM   12  N   UNL     1       4.932  34.384  61.244  1.00  0.00    -0.300 N 
HETATM   13  C   UNL     1       4.605  35.736  61.205  1.00  0.00     0.118 A 
HETATM   14  C   UNL     1       3.508  35.869  60.393  1.00  0.00     0.137 A 
HETATM   15  N   UNL     1       3.131  34.663  59.903  1.00  0.00    -0.235 NA
BRANCH  12  16
HETATM   16  C   UNL     1       5.996  33.830  62.053  1.00  0.00     0.042 A 
HETATM   17  C   UNL     1       7.028  33.043  61.523  1.00  0.00     0.037 A 
HETATM   18  C   UNL     1       8.026  32.480  62.339  1.00  0.00    -0.059 A 
HETATM   19  C   UNL     1       9.140  31.677  61.729  1.00  0.00     0.048 C 
HETATM   20  C   UNL     1       8.008  32.722  63.711  1.00  0.00     0.013 A 
HETATM   21  C   UNL     1       6.993  33.494  64.276  1.00  0.00    -0.059 A 
HETATM   22  C   UNL     1       6.004  34.051  63.446  1.00  0.00     0.037 A 
HETATM   23  C   UNL     1       6.995  33.759  65.754  1.00  0.00     0.048 C 
ENDBRANCH  12  16
ENDBRANCH  10  11
ENDBRANCH   9  10
ENDBRANCH   1   9
BRANCH   4  24
HETATM   24  C   UNL     1       7.943  27.791  54.885  1.00  0.00     0.130 C 
BRANCH  24  25
HETATM   25  N   UNL     1       6.723  27.002  54.975  1.00  0.00    -0.342 N 
HETATM   26  C   UNL     1       6.523  25.665  54.818  1.00  0.00     0.320 C 
HETATM   27  N   UNL     1       7.648  24.897  54.705  1.00  0.00    -0.309 N 
HETATM   28  O   UNL     1       5.361  25.272  54.800  1.00  0.00    -0.247 OA
HETATM   29  H   UNL     1       8.527  25.378  54.799  1.00  0.00     0.170 HD
HETATM   30  H   UNL     1       5.833  27.487  55.005  1.00  0.00     0.164 HD
BRANCH  27  31
HETATM   31  C   UNL     1       7.717  23.496  54.549  1.00  0.00     0.039 A 
HETATM   32  C   UNL     1       7.596  22.585  55.600  1.00  0.00     0.071 A 
HETATM   33  C   UNL     1       7.686  21.219  55.346  1.00  0.00     0.118 A 
HETATM   34  F   UNL     1       7.568  20.351  56.361  1.00  0.00    -0.206 F 
HETATM   35  C   UNL     1       7.897  20.735  54.062  1.00  0.00     0.042 A 
HETATM   36  C   UNL     1       8.017  21.633  53.007  1.00  0.00     0.005 A 
HETATM   37  C   UNL     1       7.926  23.007  53.250  1.00  0.00     0.030 A 
ENDBRANCH  27  31
ENDBRANCH  24  25
ENDBRANCH   4  24
TORSDOF 7
ENDMDL
MODEL 2
REMARK VINA RESULT:     -11.0      3.949     11.358
REMARK  7 active torsions:
REMARK  status: ('A' for Active; 'I' for Inactive)
REMARK    1  A    between atoms: C_4  and  N_5 
REMARK    2  A    between atoms: C_6  and  S_7 
REMARK    3  A    between atoms: S_7  and  C_8 
REMARK    4  A    between atoms: C_8  and  C_9 
REMARK       I    between atoms: C_9  and  N_10 
REMARK    5  A    between atoms: C_12  and  C_13 
REMARK    6  A    between atoms: C_13  and  N_14 
REMARK       I    between atoms: N_14  and  C_15 
REMARK       I    between atoms: C_15  and  N_16 
REMARK    7  A    between atoms: N_16  and  C_17 
ROOT
HETATM    1  C   UNL     1       7.173  27.962  57.183  1.00  0.00     0.229 C 
HETATM    2  N   UNL     1       7.058  29.323  57.531  1.00  0.00    -0.351 N 
HETATM    3  C   UNL     1       7.925  29.746  58.637  1.00  0.00     0.132 C 
HETATM    4  C   UNL     1       8.052  31.271  58.737  1.00  0.00     0.021 C 
HETATM    5  C   UNL     1       6.649  31.863  58.912  1.00  0.00     0.009 C 
HETATM    6  C   UNL     1       5.816  31.510  57.688  1.00  0.00     0.020 C 
HETATM    7  C   UNL     1       5.775  30.009  57.425  1.00  0.00     0.126 C 
HETATM    8  O   UNL     1       7.936  27.223  57.820  1.00  0.00    -0.273 OA
ENDROOT
BRANCH   1   9
HETATM    9  C   UNL     1       6.578  27.449  55.874  1.00  0.00     0.185 C 
BRANCH   9  10
HETATM   10  S   UNL     1       7.552  27.487  54.361  1.00  0.00    -0.082 SA
BRANCH  10  11
HETATM   11  C   UNL     1       6.560  26.673  53.204  1.00  0.00     0.173 A 
HETATM   12  N   UNL     1       6.410  25.287  53.055  1.00  0.00    -0.300 N 
HETATM   13  C   UNL     1       5.437  25.169  52.068  1.00  0.00     0.118 A 
HETATM   14  C   UNL     1       5.093  26.438  51.679  1.00  0.00     0.137 A 
HETATM   15  N   UNL     1       5.794  27.358  52.386  1.00  0.00    -0.235 NA
BRANCH  12  16
HETATM   16  C   UNL     1       7.079  24.162  53.673  1.00  0.00     0.042 A 
HETATM   17  C   UNL     1       7.396  22.986  52.979  1.00  0.00     0.037 A 
HETATM   18  C   UNL     1       8.008  21.891  53.614  1.00  0.00    -0.059 A 
HETATM   19  C   UNL     1       8.370  20.663  52.827  1.00  0.00     0.048 C 
HETATM   20  C   UNL     1       8.330  21.974  54.967  1.00  0.00     0.013 A 
HETATM   21  C   UNL     1       8.023  23.125  55.693  1.00  0.00    -0.059 A 
HETATM   22  C   UNL     1       7.414  24.212  55.042  1.00  0.00     0.037 A 
HETATM   23  C   UNL     1       8.390  23.207  57.147  1.00  0.00     0.048 C 
ENDBRANCH  12  16
ENDBRANCH  10  11
ENDBRANCH   9  10
ENDBRANCH   1   9
BRANCH   4  24
HETATM   24  C   UNL     1       9.009  31.669  59.867  1.00  0.00     0.130 C 
BRANCH  24  25
HETATM   25  N   UNL     1       8.821  30.840  61.048  1.00  0.00    -0.342 N 
HETATM   26  C   UNL     1       8.240  31.126  62.246  1.00  0.00     0.320 C 
HETATM   27  N   UNL     1       7.591  32.325  62.327  1.00  0.00    -0.309 N 
HETATM   28  O   UNL     1       8.345  30.285  63.133  1.00  0.00    -0.247 OA
HETATM   29  H   UNL     1       7.553  32.870  61.483  1.00  0.00     0.170 HD
HETATM   30  H   UNL     1       9.312  29.954  61.101  1.00  0.00     0.164 HD
BRANCH  27  31
HETATM   31  C   UNL     1       6.900  32.852  63.441  1.00  0.00     0.039 A 
HETATM   32  C   UNL     1       7.519  33.252  64.627  1.00  0.00     0.071 A 
HETATM   33  C   UNL     1       6.751  33.754  65.674  1.00  0.00     0.118 A 
HETATM   34  F   UNL     1       7.352  34.135  66.809  1.00  0.00    -0.206 F 
HETATM   35  C   UNL     1       5.371  33.867  65.568  1.00  0.00     0.042 A 
HETATM   36  C   UNL     1       4.744  33.475  64.390  1.00  0.00     0.005 A 
HETATM   37  C   UNL     1       5.506  32.971  63.331  1.00  0.00     0.030 A 
ENDBRANCH  27  31
ENDBRANCH  24  25
ENDBRANCH   4  24
TORSDOF 7
ENDMDL
MODEL 3
REMARK VINA RESULT:     -10.9      0.167      1.459
REMARK  7 active torsions:
REMARK  status: ('A' for Active; 'I' for Inactive)
REMARK    1  A    between atoms: C_4  and  N_5 
REMARK    2  A    between atoms: C_6  and  S_7 
REMARK    3  A    between atoms: S_7  and  C_8 
REMARK    4  A    between atoms: C_8  and  C_9 
REMARK       I    between atoms: C_9  and  N_10 
REMARK    5  A    between atoms: C_12  and  C_13 
REMARK    6  A    between atoms: C_13  and  N_14 
REMARK       I    between atoms: N_14  and  C_15 
REMARK       I    between atoms: C_15  and  N_16 
REMARK    7  A    between atoms: N_16  and  C_17 
ROOT
HETATM    1  C   UNL     1       4.955  30.745  57.729  1.00  0.00     0.229 C 
HETATM    2  N   UNL     1       6.276  30.325  57.474  1.00  0.00    -0.351 N 
HETATM    3  C   UNL     1       6.386  29.168  56.577  1.00  0.00     0.132 C 
HETATM    4  C   UNL     1       7.807  28.976  56.033  1.00  0.00     0.021 C 
HETATM    5  C   UNL     1       8.762  28.814  57.221  1.00  0.00     0.009 C 
HETATM    6  C   UNL     1       8.715  30.083  58.060  1.00  0.00     0.020 C 
HETATM    7  C   UNL     1       7.301  30.433  58.508  1.00  0.00     0.126 C 
HETATM    8  O   UNL     1       4.002  30.127  57.234  1.00  0.00    -0.273 OA
ENDROOT
BRANCH   1   9
HETATM    9  C   UNL     1       4.692  32.100  58.380  1.00  0.00     0.185 C 
BRANCH   9  10
HETATM   10  S   UNL     1       3.873  32.192  59.980  1.00  0.00    -0.082 SA
BRANCH  10  11
HETATM   11  C   UNL     1       3.988  33.861  60.414  1.00  0.00     0.173 A 
HETATM   12  N   UNL     1       4.926  34.438  61.281  1.00  0.00    -0.300 N 
HETATM   13  C   UNL     1       4.647  35.800  61.203  1.00  0.00     0.118 A 
HETATM   14  C   UNL     1       3.584  35.950  60.350  1.00  0.00     0.137 A 
HETATM   15  N   UNL     1       3.185  34.746  59.871  1.00  0.00    -0.235 NA
BRANCH  12  16
HETATM   16  C   UNL     1       5.942  33.867  62.139  1.00  0.00     0.042 A 
HETATM   17  C   UNL     1       5.986  34.088  63.523  1.00  0.00     0.037 A 
HETATM   18  C   UNL     1       7.010  33.556  64.328  1.00  0.00    -0.059 A 
HETATM   19  C   UNL     1       7.000  33.779  65.814  1.00  0.00     0.048 C 
HETATM   20  C   UNL     1       8.003  32.770  63.745  1.00  0.00     0.013 A 
HETATM   21  C   UNL     1       7.996  32.535  62.370  1.00  0.00    -0.059 A 
HETATM   22  C   UNL     1       6.964  33.072  61.581  1.00  0.00     0.037 A 
HETATM   23  C   UNL     1       9.063  31.674  61.758  1.00  0.00     0.048 C 
ENDBRANCH  12  16
ENDBRANCH  10  11
ENDBRANCH   9  10
ENDBRANCH   1   9
BRANCH   4  24
HETATM   24  C   UNL     1       7.867  27.794  55.059  1.00  0.00     0.130 C 
BRANCH  24  25
HETATM   25  N   UNL     1       6.661  26.982  55.123  1.00  0.00    -0.342 N 
HETATM   26  C   UNL     1       6.483  25.647  54.922  1.00  0.00     0.320 C 
HETATM   27  N   UNL     1       7.620  24.903  54.782  1.00  0.00    -0.309 N 
HETATM   28  O   UNL     1       5.327  25.236  54.891  1.00  0.00    -0.247 OA
HETATM   29  H   UNL     1       8.491  25.395  54.891  1.00  0.00     0.170 HD
HETATM   30  H   UNL     1       5.763  27.451  55.170  1.00  0.00     0.164 HD
BRANCH  27  31
HETATM   31  C   UNL     1       7.713  23.509  54.579  1.00  0.00     0.039 A 
HETATM   32  C   UNL     1       7.571  22.560  55.593  1.00  0.00     0.071 A 
HETATM   33  C   UNL     1       7.687  21.205  55.294  1.00  0.00     0.118 A 
HETATM   34  F   UNL     1       7.549  20.300  56.273  1.00  0.00    -0.206 F 
HETATM   35  C   UNL     1       7.943  20.769  54.001  1.00  0.00     0.042 A 
HETATM   36  C   UNL     1       8.084  21.706  52.982  1.00  0.00     0.005 A 
HETATM   37  C   UNL     1       7.967  23.069  53.271  1.00  0.00     0.030 A 
ENDBRANCH  27  31
ENDBRANCH  24  25
ENDBRANCH   4  24
TORSDOF 7
ENDMDL
MODEL 4
REMARK VINA RESULT:     -10.9      3.946     11.974
REMARK  7 active torsions:
REMARK  status: ('A' for Active; 'I' for Inactive)
REMARK    1  A    between atoms: C_4  and  N_5 
REMARK    2  A    between atoms: C_6  and  S_7 
REMARK    3  A    between atoms: S_7  and  C_8 
REMARK    4  A    between atoms: C_8  and  C_9 
REMARK       I    between atoms: C_9  and  N_10 
REMARK    5  A    between atoms: C_12  and  C_13 
REMARK    6  A    between atoms: C_13  and  N_14 
REMARK       I    between atoms: N_14  and  C_15 
REMARK       I    between atoms: C_15  and  N_16 
REMARK    7  A    between atoms: N_16  and  C_17 
ROOT
HETATM    1  C   UNL     1       6.967  28.950  56.974  1.00  0.00     0.229 C 
HETATM    2  N   UNL     1       7.699  29.732  57.889  1.00  0.00    -0.351 N 
HETATM    3  C   UNL     1       6.905  30.738  58.605  1.00  0.00     0.132 C 
HETATM    4  C   UNL     1       7.631  31.300  59.833  1.00  0.00     0.021 C 
HETATM    5  C   UNL     1       8.960  31.909  59.371  1.00  0.00     0.009 C 
HETATM    6  C   UNL     1       9.809  30.811  58.747  1.00  0.00     0.020 C 
HETATM    7  C   UNL     1       9.087  30.091  57.615  1.00  0.00     0.126 C 
HETATM    8  O   UNL     1       5.759  29.164  56.804  1.00  0.00    -0.273 OA
ENDROOT
BRANCH   1   9
HETATM    9  C   UNL     1       7.576  27.678  56.390  1.00  0.00     0.185 C 
BRANCH   9  10
HETATM   10  S   UNL     1       6.665  26.127  56.454  1.00  0.00    -0.082 SA
BRANCH  10  11
HETATM   11  C   UNL     1       6.228  25.831  54.809  1.00  0.00     0.173 A 
HETATM   12  N   UNL     1       6.399  24.634  54.098  1.00  0.00    -0.300 N 
HETATM   13  C   UNL     1       5.796  24.896  52.871  1.00  0.00     0.118 A 
HETATM   14  C   UNL     1       5.341  26.188  52.907  1.00  0.00     0.137 A 
HETATM   15  N   UNL     1       5.615  26.756  54.107  1.00  0.00    -0.235 NA
BRANCH  12  16
HETATM   16  C   UNL     1       7.065  23.392  54.426  1.00  0.00     0.042 A 
HETATM   17  C   UNL     1       7.379  23.017  55.739  1.00  0.00     0.037 A 
HETATM   18  C   UNL     1       8.066  21.823  56.026  1.00  0.00    -0.059 A 
HETATM   19  C   UNL     1       8.347  21.434  57.451  1.00  0.00     0.048 C 
HETATM   20  C   UNL     1       8.433  20.974  54.984  1.00  0.00     0.013 A 
HETATM   21  C   UNL     1       8.145  21.318  53.663  1.00  0.00    -0.059 A 
HETATM   22  C   UNL     1       7.455  22.513  53.394  1.00  0.00     0.037 A 
HETATM   23  C   UNL     1       8.532  20.387  52.551  1.00  0.00     0.048 C 
ENDBRANCH  12  16
ENDBRANCH  10  11
ENDBRANCH   9  10
ENDBRANCH   1   9
BRANCH   4  24
HETATM   24  C   UNL     1       6.748  32.303  60.583  1.00  0.00     0.130 C 
BRANCH  24  25
HETATM   25  N   UNL     1       5.810  31.634  61.473  1.00  0.00    -0.342 N 
HETATM   26  C   UNL     1       5.487  31.891  62.770  1.00  0.00     0.320 C 
HETATM   27  N   UNL     1       5.998  33.041  63.301  1.00  0.00    -0.309 N 
HETATM   28  O   UNL     1       4.767  31.077  63.339  1.00  0.00    -0.247 OA
HETATM   29  H   UNL     1       6.526  33.626  62.674  1.00  0.00     0.170 HD
HETATM   30  H   UNL     1       5.423  30.742  61.187  1.00  0.00     0.164 HD
BRANCH  27  31
HETATM   31  C   UNL     1       5.807  33.543  64.607  1.00  0.00     0.039 A 
HETATM   32  C   UNL     1       4.581  33.996  65.098  1.00  0.00     0.071 A 
HETATM   33  C   UNL     1       4.493  34.480  66.401  1.00  0.00     0.118 A 
HETATM   34  F   UNL     1       3.313  34.914  66.865  1.00  0.00    -0.206 F 
HETATM   35  C   UNL     1       5.606  34.525  67.232  1.00  0.00     0.042 A 
HETATM   36  C   UNL     1       6.831  34.073  66.754  1.00  0.00     0.005 A 
HETATM   37  C   UNL     1       6.929  33.583  65.448  1.00  0.00     0.030 A 
ENDBRANCH  27  31
ENDBRANCH  24  25
ENDBRANCH   4  24
TORSDOF 7
ENDMDL
MODEL 5
REMARK VINA RESULT:     -10.4      3.797     11.371
REMARK  7 active torsions:
REMARK  status: ('A' for Active; 'I' for Inactive)
REMARK    1  A    between atoms: C_4  and  N_5 
REMARK    2  A    between atoms: C_6  and  S_7 
REMARK    3  A    between atoms: S_7  and  C_8 
REMARK    4  A    between atoms: C_8  and  C_9 
REMARK       I    between atoms: C_9  and  N_10 
REMARK    5  A    between atoms: C_12  and  C_13 
REMARK    6  A    between atoms: C_13  and  N_14 
REMARK       I    between atoms: N_14  and  C_15 
REMARK       I    between atoms: C_15  and  N_16 
REMARK    7  A    between atoms: N_16  and  C_17 
ROOT
HETATM    1  C   UNL     1       6.471  29.624  56.273  1.00  0.00     0.229 C 
HETATM    2  N   UNL     1       7.802  29.596  56.735  1.00  0.00    -0.351 N 
HETATM    3  C   UNL     1       8.065  30.461  57.891  1.00  0.00     0.132 C 
HETATM    4  C   UNL     1       9.391  30.130  58.586  1.00  0.00     0.021 C 
HETATM    5  C   UNL     1      10.522  30.265  57.560  1.00  0.00     0.009 C 
HETATM    6  C   UNL     1      10.283  29.265  56.438  1.00  0.00     0.020 C 
HETATM    7  C   UNL     1       8.908  29.426  55.798  1.00  0.00     0.126 C 
HETATM    8  O   UNL     1       5.642  30.365  56.818  1.00  0.00    -0.273 OA
ENDROOT
BRANCH   1   9
HETATM    9  C   UNL     1       5.975  28.564  55.292  1.00  0.00     0.185 C 
BRANCH   9  10
HETATM   10  S   UNL     1       6.741  26.936  55.255  1.00  0.00    -0.082 SA
BRANCH  10  11
HETATM   11  C   UNL     1       6.260  26.282  53.730  1.00  0.00     0.173 A 
HETATM   12  N   UNL     1       6.396  24.951  53.308  1.00  0.00    -0.300 N 
HETATM   13  C   UNL     1       5.768  24.939  52.066  1.00  0.00     0.118 A 
HETATM   14  C   UNL     1       5.335  26.215  51.814  1.00  0.00     0.137 A 
HETATM   15  N   UNL     1       5.646  27.035  52.847  1.00  0.00    -0.235 NA
BRANCH  12  16
HETATM   16  C   UNL     1       7.050  23.803  53.898  1.00  0.00     0.042 A 
HETATM   17  C   UNL     1       7.369  23.722  55.260  1.00  0.00     0.037 A 
HETATM   18  C   UNL     1       8.044  22.612  55.800  1.00  0.00    -0.059 A 
HETATM   19  C   UNL     1       8.332  22.542  57.273  1.00  0.00     0.048 C 
HETATM   20  C   UNL     1       8.392  21.549  54.968  1.00  0.00     0.013 A 
HETATM   21  C   UNL     1       8.098  21.598  53.605  1.00  0.00    -0.059 A 
HETATM   22  C   UNL     1       7.420  22.713  53.083  1.00  0.00     0.037 A 
HETATM   23  C   UNL     1       8.465  20.439  52.724  1.00  0.00     0.048 C 
ENDBRANCH  12  16
ENDBRANCH  10  11
ENDBRANCH   9  10
ENDBRANCH   1   9
BRANCH   4  24
HETATM   24  C   UNL     1       9.601  31.016  59.819  1.00  0.00     0.130 C 
BRANCH  24  25
HETATM   25  N   UNL     1       9.070  30.396  61.025  1.00  0.00    -0.342 N 
HETATM   26  C   UNL     1       8.422  30.944  62.088  1.00  0.00     0.320 C 
HETATM   27  N   UNL     1       8.069  32.258  61.965  1.00  0.00    -0.309 N 
HETATM   28  O   UNL     1       8.208  30.214  63.050  1.00  0.00    -0.247 OA
HETATM   29  H   UNL     1       8.272  32.694  61.081  1.00  0.00     0.170 HD
HETATM   30  H   UNL     1       9.327  29.436  61.229  1.00  0.00     0.164 HD
BRANCH  27  31
HETATM   31  C   UNL     1       7.384  33.055  62.909  1.00  0.00     0.039 A 
HETATM   32  C   UNL     1       7.686  33.086  64.272  1.00  0.00     0.071 A 
HETATM   33  C   UNL     1       6.947  33.900  65.126  1.00  0.00     0.118 A 
HETATM   34  F   UNL     1       7.244  33.925  66.433  1.00  0.00    -0.206 F 
HETATM   35  C   UNL     1       5.905  34.687  64.653  1.00  0.00     0.042 A 
HETATM   36  C   UNL     1       5.597  34.665  63.296  1.00  0.00     0.005 A 
HETATM   37  C   UNL     1       6.335  33.853  62.429  1.00  0.00     0.030 A 
ENDBRANCH  27  31
ENDBRANCH  24  25
ENDBRANCH   4  24
TORSDOF 7
ENDMDL
MODEL 6
REMARK VINA RESULT:     -10.4      1.569      2.825
REMARK  7 active torsions:
REMARK  status: ('A' for Active; 'I' for Inactive)
REMARK    1  A    between atoms: C_4  and  N_5 
REMARK    2  A    between atoms: C_6  and  S_7 
REMARK    3  A    between atoms: S_7  and  C_8 
REMARK    4  A    between atoms: C_8  and  C_9 
REMARK       I    between atoms: C_9  and  N_10 
REMARK    5  A    between atoms: C_12  and  C_13 
REMARK    6  A    between atoms: C_13  and  N_14 
REMARK       I    between atoms: N_14  and  C_15 
REMARK       I    between atoms: C_15  and  N_16 
REMARK    7  A    between atoms: N_16  and  C_17 
ROOT
HETATM    1  C   UNL     1       5.847  31.156  58.286  1.00  0.00     0.229 C 
HETATM    2  N   UNL     1       6.968  30.500  57.740  1.00  0.00    -0.351 N 
HETATM    3  C   UNL     1       6.646  29.423  56.797  1.00  0.00     0.132 C 
HETATM    4  C   UNL     1       7.854  28.994  55.956  1.00  0.00     0.021 C 
HETATM    5  C   UNL     1       8.970  28.545  56.906  1.00  0.00     0.009 C 
HETATM    6  C   UNL     1       9.365  29.724  57.784  1.00  0.00     0.020 C 
HETATM    7  C   UNL     1       8.177  30.314  58.535  1.00  0.00     0.126 C 
HETATM    8  O   UNL     1       4.704  30.786  57.982  1.00  0.00    -0.273 OA
ENDROOT
BRANCH   1   9
HETATM    9  C   UNL     1       6.016  32.479  59.030  1.00  0.00     0.185 C 
BRANCH   9  10
HETATM   10  S   UNL     1       5.173  32.751  60.597  1.00  0.00    -0.082 SA
BRANCH  10  11
HETATM   11  C   UNL     1       6.424  32.597  61.778  1.00  0.00     0.173 A 
HETATM   12  N   UNL     1       6.577  33.364  62.942  1.00  0.00    -0.300 N 
HETATM   13  C   UNL     1       7.664  32.773  63.580  1.00  0.00     0.118 A 
HETATM   14  C   UNL     1       8.099  31.748  62.781  1.00  0.00     0.137 A 
HETATM   15  N   UNL     1       7.328  31.650  61.670  1.00  0.00    -0.235 NA
BRANCH  12  16
HETATM   16  C   UNL     1       5.881  34.530  63.440  1.00  0.00     0.042 A 
HETATM   17  C   UNL     1       5.998  35.798  62.854  1.00  0.00     0.037 A 
HETATM   18  C   UNL     1       5.344  36.925  63.384  1.00  0.00    -0.059 A 
HETATM   19  C   UNL     1       5.460  38.260  62.703  1.00  0.00     0.048 C 
HETATM   20  C   UNL     1       4.538  36.783  64.512  1.00  0.00     0.013 A 
HETATM   21  C   UNL     1       4.403  35.538  65.127  1.00  0.00    -0.059 A 
HETATM   22  C   UNL     1       5.062  34.422  64.583  1.00  0.00     0.037 A 
HETATM   23  C   UNL     1       3.519  35.397  66.333  1.00  0.00     0.048 C 
ENDBRANCH  12  16
ENDBRANCH  10  11
ENDBRANCH   9  10
ENDBRANCH   1   9
BRANCH   4  24
HETATM   24  C   UNL     1       7.463  27.909  54.946  1.00  0.00     0.130 C 
BRANCH  24  25
HETATM   25  N   UNL     1       6.483  26.986  55.501  1.00  0.00    -0.342 N 
HETATM   26  C   UNL     1       6.388  25.632  55.398  1.00  0.00     0.320 C 
HETATM   27  N   UNL     1       7.447  24.997  54.812  1.00  0.00    -0.309 N 
HETATM   28  O   UNL     1       5.373  25.107  55.843  1.00  0.00    -0.247 OA
HETATM   29  H   UNL     1       8.228  25.577  54.554  1.00  0.00     0.170 HD
HETATM   30  H   UNL     1       5.635  27.366  55.906  1.00  0.00     0.164 HD
BRANCH  27  31
HETATM   31  C   UNL     1       7.604  23.610  54.597  1.00  0.00     0.039 A 
HETATM   32  C   UNL     1       7.575  22.654  55.614  1.00  0.00     0.071 A 
HETATM   33  C   UNL     1       7.747  21.307  55.303  1.00  0.00     0.118 A 
HETATM   34  F   UNL     1       7.718  20.395  56.285  1.00  0.00    -0.206 F 
HETATM   35  C   UNL     1       7.949  20.888  53.995  1.00  0.00     0.042 A 
HETATM   36  C   UNL     1       7.976  21.832  52.973  1.00  0.00     0.005 A 
HETATM   37  C   UNL     1       7.803  23.187  53.275  1.00  0.00     0.030 A 
ENDBRANCH  27  31
ENDBRANCH  24  25
ENDBRANCH   4  24
TORSDOF 7
ENDMDL
MODEL 7
REMARK VINA RESULT:     -10.3      4.001     11.807
REMARK  7 active torsions:
REMARK  status: ('A' for Active; 'I' for Inactive)
REMARK    1  A    between atoms: C_4  and  N_5 
REMARK    2  A    between atoms: C_6  and  S_7 
REMARK    3  A    between atoms: S_7  and  C_8 
REMARK    4  A    between atoms: C_8  and  C_9 
REMARK       I    between atoms: C_9  and  N_10 
REMARK    5  A    between atoms: C_12  and  C_13 
REMARK    6  A    between atoms: C_13  and  N_14 
REMARK       I    between atoms: N_14  and  C_15 
REMARK       I    between atoms: C_15  and  N_16 
REMARK    7  A    between atoms: N_16  and  C_17 
ROOT
HETATM    1  C   UNL     1       6.390  29.352  57.029  1.00  0.00     0.229 C 
HETATM    2  N   UNL     1       7.406  29.882  57.849  1.00  0.00    -0.351 N 
HETATM    3  C   UNL     1       6.944  30.871  58.830  1.00  0.00     0.132 C 
HETATM    4  C   UNL     1       7.980  31.141  59.928  1.00  0.00     0.021 C 
HETATM    5  C   UNL     1       9.275  31.623  59.264  1.00  0.00     0.009 C 
HETATM    6  C   UNL     1       9.792  30.523  58.349  1.00  0.00     0.020 C 
HETATM    7  C   UNL     1       8.753  30.083  57.324  1.00  0.00     0.126 C 
HETATM    8  O   UNL     1       5.224  29.752  57.150  1.00  0.00    -0.273 OA
ENDROOT
BRANCH   1   9
HETATM    9  C   UNL     1       6.655  28.107  56.185  1.00  0.00     0.185 C 
BRANCH   9  10
HETATM   10  S   UNL     1       5.931  26.527  56.651  1.00  0.00    -0.082 SA
BRANCH  10  11
HETATM   11  C   UNL     1       7.286  25.571  57.135  1.00  0.00     0.173 A 
HETATM   12  N   UNL     1       8.030  24.701  56.326  1.00  0.00    -0.300 N 
HETATM   13  C   UNL     1       9.054  24.271  57.166  1.00  0.00     0.118 A 
HETATM   14  C   UNL     1       8.856  24.863  58.386  1.00  0.00     0.137 A 
HETATM   15  N   UNL     1       7.761  25.661  58.357  1.00  0.00    -0.235 NA
BRANCH  12  16
HETATM   16  C   UNL     1       7.851  24.242  54.965  1.00  0.00     0.042 A 
HETATM   17  C   UNL     1       7.417  25.078  53.927  1.00  0.00     0.037 A 
HETATM   18  C   UNL     1       7.210  24.595  52.622  1.00  0.00    -0.059 A 
HETATM   19  C   UNL     1       6.785  25.532  51.526  1.00  0.00     0.048 C 
HETATM   20  C   UNL     1       7.457  23.254  52.339  1.00  0.00     0.013 A 
HETATM   21  C   UNL     1       7.882  22.389  53.348  1.00  0.00    -0.059 A 
HETATM   22  C   UNL     1       8.088  22.889  54.646  1.00  0.00     0.037 A 
HETATM   23  C   UNL     1       8.161  20.949  53.025  1.00  0.00     0.048 C 
ENDBRANCH  12  16
ENDBRANCH  10  11
ENDBRANCH   9  10
ENDBRANCH   1   9
BRANCH   4  24
HETATM   24  C   UNL     1       7.438  32.135  60.962  1.00  0.00     0.130 C 
BRANCH  24  25
HETATM   25  N   UNL     1       6.275  31.606  61.659  1.00  0.00    -0.342 N 
HETATM   26  C   UNL     1       5.773  31.900  62.890  1.00  0.00     0.320 C 
HETATM   27  N   UNL     1       6.345  32.961  63.534  1.00  0.00    -0.309 N 
HETATM   28  O   UNL     1       4.857  31.197  63.303  1.00  0.00    -0.247 OA
HETATM   29  H   UNL     1       7.051  33.465  63.025  1.00  0.00     0.170 HD
HETATM   30  H   UNL     1       5.819  30.782  61.284  1.00  0.00     0.164 HD
BRANCH  27  31
HETATM   31  C   UNL     1       6.005  33.478  64.804  1.00  0.00     0.039 A 
HETATM   32  C   UNL     1       6.931  33.733  65.818  1.00  0.00     0.071 A 
HETATM   33  C   UNL     1       6.496  34.237  67.041  1.00  0.00     0.118 A 
HETATM   34  F   UNL     1       7.391  34.480  68.009  1.00  0.00    -0.206 F 
HETATM   35  C   UNL     1       5.152  34.493  67.281  1.00  0.00     0.042 A 
HETATM   36  C   UNL     1       4.222  34.245  66.277  1.00  0.00     0.005 A 
HETATM   37  C   UNL     1       4.648  33.741  65.044  1.00  0.00     0.030 A 
ENDBRANCH  27  31
ENDBRANCH  24  25
ENDBRANCH   4  24
TORSDOF 7
ENDMDL
MODEL 8
REMARK VINA RESULT:     -10.1      1.356      2.324
REMARK  7 active torsions:
REMARK  status: ('A' for Active; 'I' for Inactive)
REMARK    1  A    between atoms: C_4  and  N_5 
REMARK    2  A    between atoms: C_6  and  S_7 
REMARK    3  A    between atoms: S_7  and  C_8 
REMARK    4  A    between atoms: C_8  and  C_9 
REMARK       I    between atoms: C_9  and  N_10 
REMARK    5  A    between atoms: C_12  and  C_13 
REMARK    6  A    between atoms: C_13  and  N_14 
REMARK       I    between atoms: N_14  and  C_15 
REMARK       I    between atoms: C_15  and  N_16 
REMARK    7  A    between atoms: N_16  and  C_17 
ROOT
HETATM    1  C   UNL     1       5.779  31.144  57.908  1.00  0.00     0.229 C 
HETATM    2  N   UNL     1       5.281  30.298  56.898  1.00  0.00    -0.351 N 
HETATM    3  C   UNL     1       5.934  28.986  56.822  1.00  0.00     0.132 C 
HETATM    4  C   UNL     1       5.138  27.977  55.987  1.00  0.00     0.021 C 
HETATM    5  C   UNL     1       4.952  28.554  54.579  1.00  0.00     0.009 C 
HETATM    6  C   UNL     1       4.161  29.850  54.684  1.00  0.00     0.020 C 
HETATM    7  C   UNL     1       4.811  30.852  55.632  1.00  0.00     0.126 C 
HETATM    8  O   UNL     1       6.719  30.768  58.623  1.00  0.00    -0.273 OA
ENDROOT
BRANCH   1   9
HETATM    9  C   UNL     1       5.009  32.399  58.310  1.00  0.00     0.185 C 
BRANCH   9  10
HETATM   10  S   UNL     1       4.034  32.418  59.823  1.00  0.00    -0.082 SA
BRANCH  10  11
HETATM   11  C   UNL     1       4.121  34.059  60.356  1.00  0.00     0.173 A 
HETATM   12  N   UNL     1       5.009  34.587  61.304  1.00  0.00    -0.300 N 
HETATM   13  C   UNL     1       4.730  35.950  61.288  1.00  0.00     0.118 A 
HETATM   14  C   UNL     1       3.714  36.149  60.388  1.00  0.00     0.137 A 
HETATM   15  N   UNL     1       3.345  34.974  59.821  1.00  0.00    -0.235 NA
BRANCH  12  16
HETATM   16  C   UNL     1       5.978  33.968  62.182  1.00  0.00     0.042 A 
HETATM   17  C   UNL     1       6.002  34.183  63.567  1.00  0.00     0.037 A 
HETATM   18  C   UNL     1       6.982  33.603  64.392  1.00  0.00    -0.059 A 
HETATM   19  C   UNL     1       6.950  33.822  65.878  1.00  0.00     0.048 C 
HETATM   20  C   UNL     1       7.951  32.774  63.828  1.00  0.00     0.013 A 
HETATM   21  C   UNL     1       7.964  32.544  62.453  1.00  0.00    -0.059 A 
HETATM   22  C   UNL     1       6.975  33.129  61.643  1.00  0.00     0.037 A 
HETATM   23  C   UNL     1       9.005  31.636  61.861  1.00  0.00     0.048 C 
ENDBRANCH  12  16
ENDBRANCH  10  11
ENDBRANCH   9  10
ENDBRANCH   1   9
BRANCH   4  24
HETATM   24  C   UNL     1       5.824  26.606  55.979  1.00  0.00     0.130 C 
BRANCH  24  25
HETATM   25  N   UNL     1       6.620  26.409  54.776  1.00  0.00    -0.342 N 
HETATM   26  C   UNL     1       7.226  25.291  54.291  1.00  0.00     0.320 C 
HETATM   27  N   UNL     1       6.936  24.122  54.936  1.00  0.00    -0.309 N 
HETATM   28  O   UNL     1       7.965  25.432  53.322  1.00  0.00    -0.247 OA
HETATM   29  H   UNL     1       6.261  24.178  55.680  1.00  0.00     0.170 HD
HETATM   30  H   UNL     1       6.930  27.226  54.262  1.00  0.00     0.164 HD
BRANCH  27  31
HETATM   31  C   UNL     1       7.417  22.831  54.628  1.00  0.00     0.039 A 
HETATM   32  C   UNL     1       7.672  21.844  55.582  1.00  0.00     0.071 A 
HETATM   33  C   UNL     1       8.154  20.600  55.180  1.00  0.00     0.118 A 
HETATM   34  F   UNL     1       8.396  19.658  56.102  1.00  0.00    -0.206 F 
HETATM   35  C   UNL     1       8.390  20.315  53.842  1.00  0.00     0.042 A 
HETATM   36  C   UNL     1       8.137  21.290  52.883  1.00  0.00     0.005 A 
HETATM   37  C   UNL     1       7.651  22.541  53.275  1.00  0.00     0.030 A 
ENDBRANCH  27  31
ENDBRANCH  24  25
ENDBRANCH   4  24
TORSDOF 7
ENDMDL
MODEL 9
REMARK VINA RESULT:      -9.8      3.941     11.551
REMARK  7 active torsions:
REMARK  status: ('A' for Active; 'I' for Inactive)
REMARK    1  A    between atoms: C_4  and  N_5 
REMARK    2  A    between atoms: C_6  and  S_7 
REMARK    3  A    between atoms: S_7  and  C_8 
REMARK    4  A    between atoms: C_8  and  C_9 
REMARK       I    between atoms: C_9  and  N_10 
REMARK    5  A    between atoms: C_12  and  C_13 
REMARK    6  A    between atoms: C_13  and  N_14 
REMARK       I    between atoms: N_14  and  C_15 
REMARK       I    between atoms: C_15  and  N_16 
REMARK    7  A    between atoms: N_16  and  C_17 
ROOT
HETATM    1  C   UNL     1       6.212  29.758  57.444  1.00  0.00     0.229 C 
HETATM    2  N   UNL     1       7.266  30.254  58.238  1.00  0.00    -0.351 N 
HETATM    3  C   UNL     1       6.882  31.331  59.158  1.00  0.00     0.132 C 
HETATM    4  C   UNL     1       7.935  31.581  60.245  1.00  0.00     0.021 C 
HETATM    5  C   UNL     1       9.264  31.921  59.561  1.00  0.00     0.009 C 
HETATM    6  C   UNL     1       9.694  30.732  58.714  1.00  0.00     0.020 C 
HETATM    7  C   UNL     1       8.625  30.317  57.710  1.00  0.00     0.126 C 
HETATM    8  O   UNL     1       5.081  30.256  57.535  1.00  0.00    -0.273 OA
ENDROOT
BRANCH   1   9
HETATM    9  C   UNL     1       6.379  28.450  56.675  1.00  0.00     0.185 C 
BRANCH   9  10
HETATM   10  S   UNL     1       7.193  28.441  55.069  1.00  0.00    -0.082 SA
BRANCH  10  11
HETATM   11  C   UNL     1       6.078  27.616  54.039  1.00  0.00     0.173 A 
HETATM   12  N   UNL     1       5.990  26.231  53.838  1.00  0.00    -0.300 N 
HETATM   13  C   UNL     1       4.879  26.094  53.010  1.00  0.00     0.118 A 
HETATM   14  C   UNL     1       4.403  27.353  52.753  1.00  0.00     0.137 A 
HETATM   15  N   UNL     1       5.152  28.285  53.391  1.00  0.00    -0.235 NA
BRANCH  12  16
HETATM   16  C   UNL     1       6.815  25.127  54.278  1.00  0.00     0.042 A 
HETATM   17  C   UNL     1       6.984  23.954  53.530  1.00  0.00     0.037 A 
HETATM   18  C   UNL     1       7.758  22.878  54.001  1.00  0.00    -0.059 A 
HETATM   19  C   UNL     1       7.950  21.653  53.152  1.00  0.00     0.048 C 
HETATM   20  C   UNL     1       8.394  22.979  55.237  1.00  0.00     0.013 A 
HETATM   21  C   UNL     1       8.243  24.129  56.013  1.00  0.00    -0.059 A 
HETATM   22  C   UNL     1       7.469  25.196  55.526  1.00  0.00     0.037 A 
HETATM   23  C   UNL     1       8.947  24.230  57.335  1.00  0.00     0.048 C 
ENDBRANCH  12  16
ENDBRANCH  10  11
ENDBRANCH   9  10
ENDBRANCH   1   9
BRANCH   4  24
HETATM   24  C   UNL     1       7.472  32.673  61.217  1.00  0.00     0.130 C 
BRANCH  24  25
HETATM   25  N   UNL     1       6.138  32.403  61.734  1.00  0.00    -0.342 N 
HETATM   26  C   UNL     1       5.584  32.693  62.943  1.00  0.00     0.320 C 
HETATM   27  N   UNL     1       6.324  33.492  63.767  1.00  0.00    -0.309 N 
HETATM   28  O   UNL     1       4.478  32.219  63.179  1.00  0.00    -0.247 OA
HETATM   29  H   UNL     1       7.190  33.841  63.392  1.00  0.00     0.170 HD
HETATM   30  H   UNL     1       5.537  31.772  61.216  1.00  0.00     0.164 HD
BRANCH  27  31
HETATM   31  C   UNL     1       5.977  33.949  65.058  1.00  0.00     0.039 A 
HETATM   32  C   UNL     1       6.815  33.858  66.171  1.00  0.00     0.071 A 
HETATM   33  C   UNL     1       6.380  34.330  67.406  1.00  0.00     0.118 A 
HETATM   34  F   UNL     1       7.190  34.239  68.470  1.00  0.00    -0.206 F 
HETATM   35  C   UNL     1       5.120  34.895  67.560  1.00  0.00     0.042 A 
HETATM   36  C   UNL     1       4.278  34.993  66.458  1.00  0.00     0.005 A 
HETATM   37  C   UNL     1       4.706  34.523  65.212  1.00  0.00     0.030 A 
ENDBRANCH  27  31
ENDBRANCH  24  25
ENDBRANCH   4  24
TORSDOF 7
ENDMDL
MODEL 10
REMARK VINA RESULT:      -9.8      3.692     11.625
REMARK  7 active torsions:
REMARK  status: ('A' for Active; 'I' for Inactive)
REMARK    1  A    between atoms: C_4  and  N_5 
REMARK    2  A    between atoms: C_6  and  S_7 
REMARK    3  A    between atoms: S_7  and  C_8 
REMARK    4  A    between atoms: C_8  and  C_9 
REMARK       I    between atoms: C_9  and  N_10 
REMARK    5  A    between atoms: C_12  and  C_13 
REMARK    6  A    between atoms: C_13  and  N_14 
REMARK       I    between atoms: N_14  and  C_15 
REMARK       I    between atoms: C_15  and  N_16 
REMARK    7  A    between atoms: N_16  and  C_17 
ROOT
HETATM    1  C   UNL     1       5.738  28.958  56.404  1.00  0.00     0.229 C 
HETATM    2  N   UNL     1       5.237  30.273  56.479  1.00  0.00    -0.351 N 
HETATM    3  C   UNL     1       4.505  30.577  57.714  1.00  0.00     0.132 C 
HETATM    4  C   UNL     1       4.306  32.083  57.926  1.00  0.00     0.021 C 
HETATM    5  C   UNL     1       3.552  32.646  56.715  1.00  0.00     0.009 C 
HETATM    6  C   UNL     1       4.397  32.424  55.470  1.00  0.00     0.020 C 
HETATM    7  C   UNL     1       4.777  30.960  55.277  1.00  0.00     0.126 C 
HETATM    8  O   UNL     1       5.518  28.158  57.323  1.00  0.00    -0.273 OA
ENDROOT
BRANCH   1   9
HETATM    9  C   UNL     1       6.769  28.588  55.340  1.00  0.00     0.185 C 
BRANCH   9  10
HETATM   10  S   UNL     1       7.368  26.895  55.210  1.00  0.00    -0.082 SA
BRANCH  10  11
HETATM   11  C   UNL     1       6.380  26.195  53.979  1.00  0.00     0.173 A 
HETATM   12  N   UNL     1       6.259  24.831  53.676  1.00  0.00    -0.300 N 
HETATM   13  C   UNL     1       5.276  24.803  52.690  1.00  0.00     0.118 A 
HETATM   14  C   UNL     1       4.901  26.099  52.451  1.00  0.00     0.137 A 
HETATM   15  N   UNL     1       5.590  26.950  53.250  1.00  0.00    -0.235 NA
BRANCH  12  16
HETATM   16  C   UNL     1       6.960  23.660  54.156  1.00  0.00     0.042 A 
HETATM   17  C   UNL     1       7.293  23.467  55.504  1.00  0.00     0.037 A 
HETATM   18  C   UNL     1       8.013  22.339  55.937  1.00  0.00    -0.059 A 
HETATM   19  C   UNL     1       8.314  22.146  57.397  1.00  0.00     0.048 C 
HETATM   20  C   UNL     1       8.394  21.370  55.010  1.00  0.00     0.013 A 
HETATM   21  C   UNL     1       8.087  21.531  53.659  1.00  0.00    -0.059 A 
HETATM   22  C   UNL     1       7.365  22.663  53.243  1.00  0.00     0.037 A 
HETATM   23  C   UNL     1       8.491  20.472  52.674  1.00  0.00     0.048 C 
ENDBRANCH  12  16
ENDBRANCH  10  11
ENDBRANCH   9  10
ENDBRANCH   1   9
BRANCH   4  24
HETATM   24  C   UNL     1       3.589  32.361  59.252  1.00  0.00     0.130 C 
BRANCH  24  25
HETATM   25  N   UNL     1       3.889  33.693  59.757  1.00  0.00    -0.342 N 
HETATM   26  C   UNL     1       4.444  34.086  60.936  1.00  0.00     0.320 C 
HETATM   27  N   UNL     1       4.943  33.091  61.728  1.00  0.00    -0.309 N 
HETATM   28  O   UNL     1       4.453  35.289  61.177  1.00  0.00    -0.247 OA
HETATM   29  H   UNL     1       4.904  32.159  61.350  1.00  0.00     0.170 HD
HETATM   30  H   UNL     1       3.511  34.495  59.265  1.00  0.00     0.164 HD
BRANCH  27  31
HETATM   31  C   UNL     1       5.575  33.228  62.983  1.00  0.00     0.039 A 
HETATM   32  C   UNL     1       4.899  33.501  64.174  1.00  0.00     0.071 A 
HETATM   33  C   UNL     1       5.613  33.626  65.363  1.00  0.00     0.118 A 
HETATM   34  F   UNL     1       4.956  33.887  66.501  1.00  0.00    -0.206 F 
HETATM   35  C   UNL     1       6.994  33.487  65.394  1.00  0.00     0.042 A 
HETATM   36  C   UNL     1       7.678  33.213  64.214  1.00  0.00     0.005 A 
HETATM   37  C   UNL     1       6.971  33.083  63.015  1.00  0.00     0.030 A 
ENDBRANCH  27  31
ENDBRANCH  24  25
ENDBRANCH   4  24
TORSDOF 7
ENDMDL
