MODEL 1
REMARK VINA RESULT:      -9.1      0.000      0.000
REMARK  7 active torsions:
REMARK  status: ('A' for Active; 'I' for Inactive)
REMARK    1  A    between atoms: C_2  and  C_3 
REMARK    2  A    between atoms: C_3  and  N_4 
REMARK    3  A    between atoms: C_3  and  C_20 
REMARK       I    between atoms: N_4  and  C_5 
REMARK       I    between atoms: C_5  and  N_6 
REMARK    4  A    between atoms: N_6  and  C_7 
REMARK    5  A    between atoms: C_7  and  C_8 
REMARK    6  A    between atoms: C_10  and  O_11 
REMARK    7  A    between atoms: O_11  and  C_12 
ROOT
HETATM    1  N   UNL     1       7.273  26.281  54.782  1.00  0.00    -0.334 N 
HETATM    2  C   UNL     1       7.300  27.590  54.432  1.00  0.00     0.316 C 
HETATM    3  N   UNL     1       7.657  28.472  55.396  1.00  0.00    -0.339 N 
HETATM    4  O   UNL     1       7.015  28.008  53.313  1.00  0.00    -0.247 OA
HETATM    5  H   UNL     1       7.385  26.027  55.748  1.00  0.00     0.165 HD
HETATM    6  H   UNL     1       7.631  29.430  55.071  1.00  0.00     0.164 HD
ENDROOT
BRANCH   3   7
HETATM    7  C   UNL     1       8.198  28.233  56.716  1.00  0.00     0.163 C 
BRANCH   7   8
HETATM    8  C   UNL     1       9.033  29.361  57.266  1.00  0.00    -0.035 A 
HETATM    9  C   UNL     1       8.533  30.340  58.132  1.00  0.00     0.066 A 
HETATM   10  C   UNL     1       9.377  31.363  58.541  1.00  0.00     0.164 A 
HETATM   11  N   UNL     1      10.670  31.471  58.174  1.00  0.00    -0.237 NA
HETATM   12  C   UNL     1      11.141  30.513  57.352  1.00  0.00     0.120 A 
HETATM   13  C   UNL     1      10.375  29.459  56.877  1.00  0.00     0.028 A 
BRANCH  10  14
HETATM   14  O   UNL     1       8.831  32.323  59.372  1.00  0.00    -0.329 OA
BRANCH  14  15
HETATM   15  C   UNL     1       8.315  31.845  60.634  1.00  0.00     0.130 C 
HETATM   16  C   UNL     1       9.331  31.728  61.803  1.00  0.00     0.032 C 
HETATM   17  C   UNL     1       8.232  32.271  62.733  1.00  0.00     0.005 C 
HETATM   18  C   UNL     1       7.594  32.918  61.491  1.00  0.00     0.032 C 
ENDBRANCH  14  15
ENDBRANCH  10  14
ENDBRANCH   7   8
ENDBRANCH   3   7
BRANCH   1  19
HETATM   19  C   UNL     1       7.012  25.220  53.821  1.00  0.00     0.119 C 
BRANCH  19  20
HETATM   20  C   UNL     1       5.507  24.919  53.720  1.00  0.00     0.025 C 
HETATM   21  C   UNL     1       5.004  24.956  52.283  1.00  0.00     0.007 C 
ENDBRANCH  19  20
BRANCH  19  22
HETATM   22  C   UNL     1       7.792  23.971  54.197  1.00  0.00    -0.033 A 
HETATM   23  C   UNL     1       8.130  23.034  53.214  1.00  0.00     0.028 A 
HETATM   24  C   UNL     1       8.827  21.895  53.586  1.00  0.00     0.116 A 
HETATM   25  N   UNL     1       9.209  21.626  54.852  1.00  0.00    -0.273 NA
HETATM   26  C   UNL     1       8.883  22.543  55.787  1.00  0.00     0.116 A 
HETATM   27  C   UNL     1       8.184  23.710  55.515  1.00  0.00     0.028 A 
ENDBRANCH  19  22
ENDBRANCH   1  19
TORSDOF 7
ENDMDL
MODEL 2
REMARK VINA RESULT:      -8.6      1.780      2.776
REMARK  7 active torsions:
REMARK  status: ('A' for Active; 'I' for Inactive)
REMARK    1  A    between atoms: C_2  and  C_3 
REMARK    2  A    between atoms: C_3  and  N_4 
REMARK    3  A    between atoms: C_3  and  C_20 
REMARK       I    between atoms: N_4  and  C_5 
REMARK       I    between atoms: C_5  and  N_6 
REMARK    4  A    between atoms: N_6  and  C_7 
REMARK    5  A    between atoms: C_7  and  C_8 
REMARK    6  A    between atoms: C_10  and  O_11 
REMARK    7  A    between atoms: O_11  and  C_12 
ROOT
HETATM    1  N   UNL     1       7.180  25.754  56.343  1.00  0.00    -0.334 N 
HETATM    2  C   UNL     1       6.498  26.822  56.827  1.00  0.00     0.316 C 
HETATM    3  N   UNL     1       7.236  27.838  57.333  1.00  0.00    -0.339 N 
HETATM    4  O   UNL     1       5.274  26.908  56.836  1.00  0.00    -0.247 OA
HETATM    5  H   UNL     1       8.172  25.694  56.493  1.00  0.00     0.165 HD
HETATM    6  H   UNL     1       6.662  28.587  57.697  1.00  0.00     0.164 HD
ENDROOT
BRANCH   3   7
HETATM    7  C   UNL     1       8.665  28.061  57.283  1.00  0.00     0.163 C 
BRANCH   7   8
HETATM    8  C   UNL     1       9.104  29.426  57.746  1.00  0.00    -0.035 A 
HETATM    9  C   UNL     1       8.316  30.260  58.547  1.00  0.00     0.066 A 
HETATM   10  C   UNL     1       8.798  31.520  58.876  1.00  0.00     0.164 A 
HETATM   11  N   UNL     1      10.000  31.994  58.492  1.00  0.00    -0.237 NA
HETATM   12  C   UNL     1      10.754  31.174  57.735  1.00  0.00     0.120 A 
HETATM   13  C   UNL     1      10.356  29.905  57.342  1.00  0.00     0.028 A 
BRANCH  10  14
HETATM   14  O   UNL     1       7.971  32.319  59.642  1.00  0.00    -0.329 OA
BRANCH  14  15
HETATM   15  C   UNL     1       7.745  31.876  60.999  1.00  0.00     0.130 C 
HETATM   16  C   UNL     1       8.990  31.806  61.926  1.00  0.00     0.032 C 
HETATM   17  C   UNL     1       8.106  32.367  63.054  1.00  0.00     0.005 C 
HETATM   18  C   UNL     1       7.207  32.968  61.960  1.00  0.00     0.032 C 
ENDBRANCH  14  15
ENDBRANCH  10  14
ENDBRANCH   7   8
ENDBRANCH   3   7
BRANCH   1  19
HETATM   19  C   UNL     1       6.520  24.644  55.674  1.00  0.00     0.119 C 
BRANCH  19  20
HETATM   20  C   UNL     1       7.264  23.321  55.927  1.00  0.00     0.025 C 
HETATM   21  C   UNL     1       8.568  23.526  56.687  1.00  0.00     0.007 C 
ENDBRANCH  19  20
BRANCH  19  22
HETATM   22  C   UNL     1       6.404  24.925  54.186  1.00  0.00    -0.033 A 
HETATM   23  C   UNL     1       7.555  24.973  53.390  1.00  0.00     0.028 A 
HETATM   24  C   UNL     1       7.425  25.247  52.038  1.00  0.00     0.116 A 
HETATM   25  N   UNL     1       6.242  25.472  51.427  1.00  0.00    -0.273 NA
HETATM   26  C   UNL     1       5.141  25.415  52.205  1.00  0.00     0.116 A 
HETATM   27  C   UNL     1       5.169  25.152  53.566  1.00  0.00     0.028 A 
ENDBRANCH  19  22
ENDBRANCH   1  19
TORSDOF 7
ENDMDL
MODEL 3
REMARK VINA RESULT:      -8.2      5.266      8.748
REMARK  7 active torsions:
REMARK  status: ('A' for Active; 'I' for Inactive)
REMARK    1  A    between atoms: C_2  and  C_3 
REMARK    2  A    between atoms: C_3  and  N_4 
REMARK    3  A    between atoms: C_3  and  C_20 
REMARK       I    between atoms: N_4  and  C_5 
REMARK       I    between atoms: C_5  and  N_6 
REMARK    4  A    between atoms: N_6  and  C_7 
REMARK    5  A    between atoms: C_7  and  C_8 
REMARK    6  A    between atoms: C_10  and  O_11 
REMARK    7  A    between atoms: O_11  and  C_12 
ROOT
HETATM    1  N   UNL     1       6.651  24.202  54.444  1.00  0.00    -0.334 N 
HETATM    2  C   UNL     1       5.626  25.046  54.723  1.00  0.00     0.316 C 
HETATM    3  N   UNL     1       4.950  25.553  53.665  1.00  0.00    -0.339 N 
HETATM    4  O   UNL     1       5.294  25.371  55.859  1.00  0.00    -0.247 OA
HETATM    5  H   UNL     1       6.951  24.090  53.492  1.00  0.00     0.165 HD
HETATM    6  H   UNL     1       4.218  26.193  53.947  1.00  0.00     0.164 HD
ENDROOT
BRANCH   3   7
HETATM    7  C   UNL     1       5.023  25.204  52.264  1.00  0.00     0.163 C 
BRANCH   7   8
HETATM    8  C   UNL     1       5.039  26.381  51.322  1.00  0.00    -0.035 A 
HETATM    9  C   UNL     1       4.734  26.284  49.960  1.00  0.00     0.066 A 
HETATM   10  C   UNL     1       4.826  27.423  49.173  1.00  0.00     0.164 A 
HETATM   11  N   UNL     1       5.172  28.639  49.639  1.00  0.00    -0.237 NA
HETATM   12  C   UNL     1       5.448  28.720  50.955  1.00  0.00     0.120 A 
HETATM   13  C   UNL     1       5.398  27.639  51.822  1.00  0.00     0.028 A 
BRANCH  10  14
HETATM   14  O   UNL     1       4.546  27.272  47.828  1.00  0.00    -0.329 OA
BRANCH  14  15
HETATM   15  C   UNL     1       3.195  27.589  47.426  1.00  0.00     0.130 C 
HETATM   16  C   UNL     1       2.297  26.396  46.995  1.00  0.00     0.032 C 
HETATM   17  C   UNL     1       1.138  27.077  47.744  1.00  0.00     0.005 C 
HETATM   18  C   UNL     1       2.198  27.796  48.596  1.00  0.00     0.032 C 
ENDBRANCH  14  15
ENDBRANCH  10  14
ENDBRANCH   7   8
ENDBRANCH   3   7
BRANCH   1  19
HETATM   19  C   UNL     1       7.390  23.502  55.484  1.00  0.00     0.119 C 
BRANCH  19  20
HETATM   20  C   UNL     1       8.568  24.350  55.995  1.00  0.00     0.025 C 
HETATM   21  C   UNL     1       8.380  24.790  57.441  1.00  0.00     0.007 C 
ENDBRANCH  19  20
BRANCH  19  22
HETATM   22  C   UNL     1       7.874  22.159  54.965  1.00  0.00    -0.033 A 
HETATM   23  C   UNL     1       7.875  21.897  53.590  1.00  0.00     0.028 A 
HETATM   24  C   UNL     1       8.306  20.658  53.142  1.00  0.00     0.116 A 
HETATM   25  N   UNL     1       8.734  19.672  53.958  1.00  0.00    -0.273 NA
HETATM   26  C   UNL     1       8.735  19.941  55.280  1.00  0.00     0.116 A 
HETATM   27  C   UNL     1       8.319  21.147  55.824  1.00  0.00     0.028 A 
ENDBRANCH  19  22
ENDBRANCH   1  19
TORSDOF 7
ENDMDL
MODEL 4
REMARK VINA RESULT:      -8.0      2.323      9.195
REMARK  7 active torsions:
REMARK  status: ('A' for Active; 'I' for Inactive)
REMARK    1  A    between atoms: C_2  and  C_3 
REMARK    2  A    between atoms: C_3  and  N_4 
REMARK    3  A    between atoms: C_3  and  C_20 
REMARK       I    between atoms: N_4  and  C_5 
REMARK       I    between atoms: C_5  and  N_6 
REMARK    4  A    between atoms: N_6  and  C_7 
REMARK    5  A    between atoms: C_7  and  C_8 
REMARK    6  A    between atoms: C_10  and  O_11 
REMARK    7  A    between atoms: O_11  and  C_12 
ROOT
HETATM    1  N   UNL     1       9.052  30.759  59.226  1.00  0.00    -0.334 N 
HETATM    2  C   UNL     1       9.826  30.705  58.114  1.00  0.00     0.316 C 
HETATM    3  N   UNL     1       9.734  29.583  57.361  1.00  0.00    -0.339 N 
HETATM    4  O   UNL     1      10.593  31.598  57.767  1.00  0.00    -0.247 OA
HETATM    5  H   UNL     1       8.553  29.937  59.519  1.00  0.00     0.165 HD
HETATM    6  H   UNL     1      10.357  29.602  56.564  1.00  0.00     0.164 HD
ENDROOT
BRANCH   3   7
HETATM    7  C   UNL     1       8.800  28.482  57.448  1.00  0.00     0.163 C 
BRANCH   7   8
HETATM    8  C   UNL     1       7.702  28.507  56.416  1.00  0.00    -0.035 A 
HETATM    9  C   UNL     1       7.588  27.566  55.388  1.00  0.00     0.066 A 
HETATM   10  C   UNL     1       6.564  27.710  54.461  1.00  0.00     0.164 A 
HETATM   11  N   UNL     1       5.646  28.696  54.495  1.00  0.00    -0.237 NA
HETATM   12  C   UNL     1       5.759  29.586  55.500  1.00  0.00     0.120 A 
HETATM   13  C   UNL     1       6.753  29.536  56.466  1.00  0.00     0.028 A 
BRANCH  10  14
HETATM   14  O   UNL     1       6.510  26.774  53.445  1.00  0.00    -0.329 OA
BRANCH  14  15
HETATM   15  C   UNL     1       7.422  25.660  53.566  1.00  0.00     0.130 C 
HETATM   16  C   UNL     1       6.787  24.260  53.790  1.00  0.00     0.032 C 
HETATM   17  C   UNL     1       7.845  23.693  52.828  1.00  0.00     0.005 C 
HETATM   18  C   UNL     1       7.951  25.102  52.219  1.00  0.00     0.032 C 
ENDBRANCH  14  15
ENDBRANCH  10  14
ENDBRANCH   7   8
ENDBRANCH   3   7
BRANCH   1  19
HETATM   19  C   UNL     1       8.971  31.946  60.063  1.00  0.00     0.119 C 
BRANCH  19  20
HETATM   20  C   UNL     1       9.666  31.720  61.417  1.00  0.00     0.025 C 
HETATM   21  C   UNL     1       9.498  30.293  61.923  1.00  0.00     0.007 C 
ENDBRANCH  19  20
BRANCH  19  22
HETATM   22  C   UNL     1       7.519  32.348  60.260  1.00  0.00    -0.033 A 
HETATM   23  C   UNL     1       7.127  33.012  61.428  1.00  0.00     0.028 A 
HETATM   24  C   UNL     1       5.794  33.354  61.590  1.00  0.00     0.116 A 
HETATM   25  N   UNL     1       4.833  33.086  60.681  1.00  0.00    -0.273 NA
HETATM   26  C   UNL     1       5.227  32.452  59.557  1.00  0.00     0.116 A 
HETATM   27  C   UNL     1       6.534  32.066  59.305  1.00  0.00     0.028 A 
ENDBRANCH  19  22
ENDBRANCH   1  19
TORSDOF 7
ENDMDL
MODEL 5
REMARK VINA RESULT:      -7.9      1.683      2.314
REMARK  7 active torsions:
REMARK  status: ('A' for Active; 'I' for Inactive)
REMARK    1  A    between atoms: C_2  and  C_3 
REMARK    2  A    between atoms: C_3  and  N_4 
REMARK    3  A    between atoms: C_3  and  C_20 
REMARK       I    between atoms: N_4  and  C_5 
REMARK       I    between atoms: C_5  and  N_6 
REMARK    4  A    between atoms: N_6  and  C_7 
REMARK    5  A    between atoms: C_7  and  C_8 
REMARK    6  A    between atoms: C_10  and  O_11 
REMARK    7  A    between atoms: O_11  and  C_12 
ROOT
HETATM    1  N   UNL     1       5.932  26.849  53.436  1.00  0.00    -0.334 N 
HETATM    2  C   UNL     1       6.010  28.174  53.160  1.00  0.00     0.316 C 
HETATM    3  N   UNL     1       5.646  29.025  54.148  1.00  0.00    -0.339 N 
HETATM    4  O   UNL     1       6.379  28.630  52.082  1.00  0.00    -0.247 OA
HETATM    5  H   UNL     1       5.493  26.548  54.289  1.00  0.00     0.165 HD
HETATM    6  H   UNL     1       5.705  29.994  53.863  1.00  0.00     0.164 HD
ENDROOT
BRANCH   3   7
HETATM    7  C   UNL     1       5.349  28.758  55.538  1.00  0.00     0.163 C 
BRANCH   7   8
HETATM    8  C   UNL     1       6.530  28.874  56.467  1.00  0.00    -0.035 A 
HETATM    9  C   UNL     1       6.524  29.650  57.631  1.00  0.00     0.066 A 
HETATM   10  C   UNL     1       7.683  29.725  58.390  1.00  0.00     0.164 A 
HETATM   11  N   UNL     1       8.827  29.076  58.091  1.00  0.00    -0.237 NA
HETATM   12  C   UNL     1       8.813  28.321  56.976  1.00  0.00     0.120 A 
HETATM   13  C   UNL     1       7.710  28.192  56.145  1.00  0.00     0.028 A 
BRANCH  10  14
HETATM   14  O   UNL     1       7.638  30.528  59.514  1.00  0.00    -0.329 OA
BRANCH  14  15
HETATM   15  C   UNL     1       8.906  30.776  60.162  1.00  0.00     0.130 C 
HETATM   16  C   UNL     1       9.344  32.260  60.294  1.00  0.00     0.032 C 
HETATM   17  C   UNL     1       9.857  31.921  61.704  1.00  0.00     0.005 C 
HETATM   18  C   UNL     1       8.861  30.749  61.713  1.00  0.00     0.032 C 
ENDBRANCH  14  15
ENDBRANCH  10  14
ENDBRANCH   7   8
ENDBRANCH   3   7
BRANCH   1  19
HETATM   19  C   UNL     1       6.394  25.829  52.507  1.00  0.00     0.119 C 
BRANCH  19  20
HETATM   20  C   UNL     1       5.218  25.207  51.734  1.00  0.00     0.025 C 
HETATM   21  C   UNL     1       4.937  25.933  50.425  1.00  0.00     0.007 C 
ENDBRANCH  19  20
BRANCH  19  22
HETATM   22  C   UNL     1       7.179  24.762  53.251  1.00  0.00    -0.033 A 
HETATM   23  C   UNL     1       7.447  24.913  54.616  1.00  0.00     0.028 A 
HETATM   24  C   UNL     1       8.179  23.933  55.268  1.00  0.00     0.116 A 
HETATM   25  N   UNL     1       8.655  22.824  54.665  1.00  0.00    -0.273 NA
HETATM   26  C   UNL     1       8.382  22.688  53.351  1.00  0.00     0.116 A 
HETATM   27  C   UNL     1       7.663  23.614  52.611  1.00  0.00     0.028 A 
ENDBRANCH  19  22
ENDBRANCH   1  19
TORSDOF 7
ENDMDL
MODEL 6
REMARK VINA RESULT:      -7.8      5.196      8.697
REMARK  7 active torsions:
REMARK  status: ('A' for Active; 'I' for Inactive)
REMARK    1  A    between atoms: C_2  and  C_3 
REMARK    2  A    between atoms: C_3  and  N_4 
REMARK    3  A    between atoms: C_3  and  C_20 
REMARK       I    between atoms: N_4  and  C_5 
REMARK       I    between atoms: C_5  and  N_6 
REMARK    4  A    between atoms: N_6  and  C_7 
REMARK    5  A    between atoms: C_7  and  C_8 
REMARK    6  A    between atoms: C_10  and  O_11 
REMARK    7  A    between atoms: O_11  and  C_12 
ROOT
HETATM    1  N   UNL     1       3.909  27.934  51.400  1.00  0.00    -0.334 N 
HETATM    2  C   UNL     1       5.136  28.204  51.910  1.00  0.00     0.316 C 
HETATM    3  N   UNL     1       5.575  27.395  52.904  1.00  0.00    -0.339 N 
HETATM    4  O   UNL     1       5.849  29.128  51.530  1.00  0.00    -0.247 OA
HETATM    5  H   UNL     1       3.328  27.249  51.851  1.00  0.00     0.165 HD
HETATM    6  H   UNL     1       6.484  27.671  53.252  1.00  0.00     0.164 HD
ENDROOT
BRANCH   3   7
HETATM    7  C   UNL     1       5.019  26.157  53.405  1.00  0.00     0.163 C 
BRANCH   7   8
HETATM    8  C   UNL     1       5.739  25.584  54.599  1.00  0.00    -0.035 A 
HETATM    9  C   UNL     1       6.544  24.441  54.539  1.00  0.00     0.066 A 
HETATM   10  C   UNL     1       7.122  23.970  55.709  1.00  0.00     0.164 A 
HETATM   11  N   UNL     1       6.977  24.557  56.915  1.00  0.00    -0.237 NA
HETATM   12  C   UNL     1       6.211  25.665  56.954  1.00  0.00     0.120 A 
HETATM   13  C   UNL     1       5.581  26.206  55.843  1.00  0.00     0.028 A 
BRANCH  10  14
HETATM   14  O   UNL     1       7.883  22.821  55.607  1.00  0.00    -0.329 OA
BRANCH  14  15
HETATM   15  C   UNL     1       7.691  22.043  54.405  1.00  0.00     0.130 C 
HETATM   16  C   UNL     1       8.880  21.997  53.406  1.00  0.00     0.032 C 
HETATM   17  C   UNL     1       8.562  20.507  53.190  1.00  0.00     0.005 C 
HETATM   18  C   UNL     1       7.898  20.515  54.578  1.00  0.00     0.032 C 
ENDBRANCH  14  15
ENDBRANCH  10  14
ENDBRANCH   7   8
ENDBRANCH   3   7
BRANCH   1  19
HETATM   19  C   UNL     1       3.363  28.653  50.259  1.00  0.00     0.119 C 
BRANCH  19  20
HETATM   20  C   UNL     1       2.012  29.303  50.607  1.00  0.00     0.025 C 
HETATM   21  C   UNL     1       2.030  30.813  50.413  1.00  0.00     0.007 C 
ENDBRANCH  19  20
BRANCH  19  22
HETATM   22  C   UNL     1       3.223  27.717  49.070  1.00  0.00    -0.033 A 
HETATM   23  C   UNL     1       4.303  26.917  48.678  1.00  0.00     0.028 A 
HETATM   24  C   UNL     1       4.156  26.083  47.580  1.00  0.00     0.116 A 
HETATM   25  N   UNL     1       3.022  25.988  46.855  1.00  0.00    -0.273 NA
HETATM   26  C   UNL     1       1.987  26.759  47.250  1.00  0.00     0.116 A 
HETATM   27  C   UNL     1       2.038  27.626  48.331  1.00  0.00     0.028 A 
ENDBRANCH  19  22
ENDBRANCH   1  19
TORSDOF 7
ENDMDL
MODEL 7
REMARK VINA RESULT:      -7.7      4.058      7.220
REMARK  7 active torsions:
REMARK  status: ('A' for Active; 'I' for Inactive)
REMARK    1  A    between atoms: C_2  and  C_3 
REMARK    2  A    between atoms: C_3  and  N_4 
REMARK    3  A    between atoms: C_3  and  C_20 
REMARK       I    between atoms: N_4  and  C_5 
REMARK       I    between atoms: C_5  and  N_6 
REMARK    4  A    between atoms: N_6  and  C_7 
REMARK    5  A    between atoms: C_7  and  C_8 
REMARK    6  A    between atoms: C_10  and  O_11 
REMARK    7  A    between atoms: O_11  and  C_12 
ROOT
HETATM    1  N   UNL     1       7.273  31.379  59.540  1.00  0.00    -0.334 N 
HETATM    2  C   UNL     1       8.475  31.911  59.872  1.00  0.00     0.316 C 
HETATM    3  N   UNL     1       8.810  31.889  61.184  1.00  0.00    -0.339 N 
HETATM    4  O   UNL     1       9.254  32.406  59.063  1.00  0.00    -0.247 OA
HETATM    5  H   UNL     1       6.632  31.118  60.269  1.00  0.00     0.165 HD
HETATM    6  H   UNL     1       9.707  32.323  61.360  1.00  0.00     0.164 HD
ENDROOT
BRANCH   3   7
HETATM    7  C   UNL     1       8.166  31.221  62.294  1.00  0.00     0.163 C 
BRANCH   7   8
HETATM    8  C   UNL     1       7.300  32.113  63.146  1.00  0.00    -0.035 A 
HETATM    9  C   UNL     1       5.905  32.156  63.048  1.00  0.00     0.066 A 
HETATM   10  C   UNL     1       5.206  33.050  63.848  1.00  0.00     0.164 A 
HETATM   11  N   UNL     1       5.785  33.877  64.742  1.00  0.00    -0.237 NA
HETATM   12  C   UNL     1       7.127  33.813  64.837  1.00  0.00     0.120 A 
HETATM   13  C   UNL     1       7.915  32.964  64.073  1.00  0.00     0.028 A 
BRANCH  10  14
HETATM   14  O   UNL     1       3.834  33.079  63.693  1.00  0.00    -0.329 OA
BRANCH  14  15
HETATM   15  C   UNL     1       3.350  33.642  62.453  1.00  0.00     0.130 C 
HETATM   16  C   UNL     1       2.000  34.407  62.514  1.00  0.00     0.032 C 
HETATM   17  C   UNL     1       2.611  35.439  61.550  1.00  0.00     0.005 C 
HETATM   18  C   UNL     1       3.994  34.997  62.058  1.00  0.00     0.032 C 
ENDBRANCH  14  15
ENDBRANCH  10  14
ENDBRANCH   7   8
ENDBRANCH   3   7
BRANCH   1  19
HETATM   19  C   UNL     1       6.835  31.240  58.160  1.00  0.00     0.119 C 
BRANCH  19  20
HETATM   20  C   UNL     1       5.528  32.013  57.910  1.00  0.00     0.025 C 
HETATM   21  C   UNL     1       4.916  32.546  59.198  1.00  0.00     0.007 C 
ENDBRANCH  19  20
BRANCH  19  22
HETATM   22  C   UNL     1       6.672  29.771  57.810  1.00  0.00    -0.033 A 
HETATM   23  C   UNL     1       7.748  28.889  57.966  1.00  0.00     0.028 A 
HETATM   24  C   UNL     1       7.578  27.556  57.625  1.00  0.00     0.116 A 
HETATM   25  N   UNL     1       6.424  27.043  57.147  1.00  0.00    -0.273 NA
HETATM   26  C   UNL     1       5.393  27.904  57.010  1.00  0.00     0.116 A 
HETATM   27  C   UNL     1       5.466  29.253  57.320  1.00  0.00     0.028 A 
ENDBRANCH  19  22
ENDBRANCH   1  19
TORSDOF 7
ENDMDL
MODEL 8
REMARK VINA RESULT:      -7.6      2.202      3.685
REMARK  7 active torsions:
REMARK  status: ('A' for Active; 'I' for Inactive)
REMARK    1  A    between atoms: C_2  and  C_3 
REMARK    2  A    between atoms: C_3  and  N_4 
REMARK    3  A    between atoms: C_3  and  C_20 
REMARK       I    between atoms: N_4  and  C_5 
REMARK       I    between atoms: C_5  and  N_6 
REMARK    4  A    between atoms: N_6  and  C_7 
REMARK    5  A    between atoms: C_7  and  C_8 
REMARK    6  A    between atoms: C_10  and  O_11 
REMARK    7  A    between atoms: O_11  and  C_12 
ROOT
HETATM    1  N   UNL     1       7.412  25.592  55.238  1.00  0.00    -0.334 N 
HETATM    2  C   UNL     1       6.835  25.448  56.457  1.00  0.00     0.316 C 
HETATM    3  N   UNL     1       7.295  26.249  57.447  1.00  0.00    -0.339 N 
HETATM    4  O   UNL     1       5.943  24.641  56.703  1.00  0.00    -0.247 OA
HETATM    5  H   UNL     1       8.226  26.174  55.144  1.00  0.00     0.165 HD
HETATM    6  H   UNL     1       6.837  26.069  58.332  1.00  0.00     0.164 HD
ENDROOT
BRANCH   3   7
HETATM    7  C   UNL     1       8.194  27.379  57.383  1.00  0.00     0.163 C 
BRANCH   7   8
HETATM    8  C   UNL     1       7.556  28.709  57.696  1.00  0.00    -0.035 A 
HETATM    9  C   UNL     1       8.141  29.669  58.528  1.00  0.00     0.066 A 
HETATM   10  C   UNL     1       7.444  30.841  58.788  1.00  0.00     0.164 A 
HETATM   11  N   UNL     1       6.234  31.133  58.270  1.00  0.00    -0.237 NA
HETATM   12  C   UNL     1       5.690  30.205  57.458  1.00  0.00     0.120 A 
HETATM   13  C   UNL     1       6.300  28.999  57.148  1.00  0.00     0.028 A 
BRANCH  10  14
HETATM   14  O   UNL     1       8.048  31.746  59.639  1.00  0.00    -0.329 OA
BRANCH  14  15
HETATM   15  C   UNL     1       7.951  31.446  61.050  1.00  0.00     0.130 C 
HETATM   16  C   UNL     1       9.159  31.857  61.935  1.00  0.00     0.032 C 
HETATM   17  C   UNL     1       8.147  32.294  63.008  1.00  0.00     0.005 C 
HETATM   18  C   UNL     1       7.119  32.462  61.876  1.00  0.00     0.032 C 
ENDBRANCH  14  15
ENDBRANCH  10  14
ENDBRANCH   7   8
ENDBRANCH   3   7
BRANCH   1  19
HETATM   19  C   UNL     1       6.942  24.875  54.063  1.00  0.00     0.119 C 
BRANCH  19  20
HETATM   20  C   UNL     1       8.079  24.063  53.416  1.00  0.00     0.025 C 
HETATM   21  C   UNL     1       7.766  22.574  53.358  1.00  0.00     0.007 C 
ENDBRANCH  19  20
BRANCH  19  22
HETATM   22  C   UNL     1       6.336  25.848  53.065  1.00  0.00    -0.033 A 
HETATM   23  C   UNL     1       5.724  25.368  51.902  1.00  0.00     0.028 A 
HETATM   24  C   UNL     1       5.192  26.277  51.000  1.00  0.00     0.116 A 
HETATM   25  N   UNL     1       5.224  27.615  51.173  1.00  0.00    -0.273 NA
HETATM   26  C   UNL     1       5.810  28.062  52.304  1.00  0.00     0.116 A 
HETATM   27  C   UNL     1       6.373  27.234  53.263  1.00  0.00     0.028 A 
ENDBRANCH  19  22
ENDBRANCH   1  19
TORSDOF 7
ENDMDL
MODEL 9
REMARK VINA RESULT:      -7.5      2.864      9.445
REMARK  7 active torsions:
REMARK  status: ('A' for Active; 'I' for Inactive)
REMARK    1  A    between atoms: C_2  and  C_3 
REMARK    2  A    between atoms: C_3  and  N_4 
REMARK    3  A    between atoms: C_3  and  C_20 
REMARK       I    between atoms: N_4  and  C_5 
REMARK       I    between atoms: C_5  and  N_6 
REMARK    4  A    between atoms: N_6  and  C_7 
REMARK    5  A    between atoms: C_7  and  C_8 
REMARK    6  A    between atoms: C_10  and  O_11 
REMARK    7  A    between atoms: O_11  and  C_12 
ROOT
HETATM    1  N   UNL     1       7.241  30.202  58.705  1.00  0.00    -0.334 N 
HETATM    2  C   UNL     1       8.388  29.697  58.188  1.00  0.00     0.316 C 
HETATM    3  N   UNL     1       8.336  28.433  57.708  1.00  0.00    -0.339 N 
HETATM    4  O   UNL     1       9.449  30.313  58.142  1.00  0.00    -0.247 OA
HETATM    5  H   UNL     1       6.450  29.595  58.834  1.00  0.00     0.165 HD
HETATM    6  H   UNL     1       9.232  28.114  57.362  1.00  0.00     0.164 HD
ENDROOT
BRANCH   3   7
HETATM    7  C   UNL     1       7.195  27.572  57.486  1.00  0.00     0.163 C 
BRANCH   7   8
HETATM    8  C   UNL     1       7.185  26.872  56.151  1.00  0.00    -0.035 A 
HETATM    9  C   UNL     1       6.912  25.509  55.996  1.00  0.00     0.066 A 
HETATM   10  C   UNL     1       6.977  24.955  54.725  1.00  0.00     0.164 A 
HETATM   11  N   UNL     1       7.268  25.653  53.609  1.00  0.00    -0.237 NA
HETATM   12  C   UNL     1       7.514  26.968  53.772  1.00  0.00     0.120 A 
HETATM   13  C   UNL     1       7.486  27.611  55.001  1.00  0.00     0.028 A 
BRANCH  10  14
HETATM   14  O   UNL     1       6.730  23.599  54.626  1.00  0.00    -0.329 OA
BRANCH  14  15
HETATM   15  C   UNL     1       7.878  22.768  54.345  1.00  0.00     0.130 C 
HETATM   16  C   UNL     1       7.870  21.338  54.952  1.00  0.00     0.032 C 
HETATM   17  C   UNL     1       8.474  20.838  53.629  1.00  0.00     0.005 C 
HETATM   18  C   UNL     1       7.859  22.078  52.956  1.00  0.00     0.032 C 
ENDBRANCH  14  15
ENDBRANCH  10  14
ENDBRANCH   7   8
ENDBRANCH   3   7
BRANCH   1  19
HETATM   19  C   UNL     1       7.128  31.581  59.156  1.00  0.00     0.119 C 
BRANCH  19  20
HETATM   20  C   UNL     1       7.441  31.702  60.658  1.00  0.00     0.025 C 
HETATM   21  C   UNL     1       8.788  32.365  60.917  1.00  0.00     0.007 C 
ENDBRANCH  19  20
BRANCH  19  22
HETATM   22  C   UNL     1       5.741  32.119  58.846  1.00  0.00    -0.033 A 
HETATM   23  C   UNL     1       4.846  32.390  59.887  1.00  0.00     0.028 A 
HETATM   24  C   UNL     1       3.581  32.866  59.577  1.00  0.00     0.116 A 
HETATM   25  N   UNL     1       3.150  33.090  58.318  1.00  0.00    -0.273 NA
HETATM   26  C   UNL     1       4.027  32.831  57.326  1.00  0.00     0.116 A 
HETATM   27  C   UNL     1       5.310  32.350  57.534  1.00  0.00     0.028 A 
ENDBRANCH  19  22
ENDBRANCH   1  19
TORSDOF 7
ENDMDL
MODEL 10
REMARK VINA RESULT:      -7.5      6.102      8.673
REMARK  7 active torsions:
REMARK  status: ('A' for Active; 'I' for Inactive)
REMARK    1  A    between atoms: C_2  and  C_3 
REMARK    2  A    between atoms: C_3  and  N_4 
REMARK    3  A    between atoms: C_3  and  C_20 
REMARK       I    between atoms: N_4  and  C_5 
REMARK       I    between atoms: C_5  and  N_6 
REMARK    4  A    between atoms: N_6  and  C_7 
REMARK    5  A    between atoms: C_7  and  C_8 
REMARK    6  A    between atoms: C_10  and  O_11 
REMARK    7  A    between atoms: O_11  and  C_12 
ROOT
HETATM    1  N   UNL     1       3.805  27.579  51.777  1.00  0.00    -0.334 N 
HETATM    2  C   UNL     1       4.298  27.962  52.980  1.00  0.00     0.316 C 
HETATM    3  N   UNL     1       4.563  26.977  53.871  1.00  0.00    -0.339 N 
HETATM    4  O   UNL     1       4.506  29.129  53.298  1.00  0.00    -0.247 OA
HETATM    5  H   UNL     1       3.533  26.622  51.637  1.00  0.00     0.165 HD
HETATM    6  H   UNL     1       4.903  27.337  54.753  1.00  0.00     0.164 HD
ENDROOT
BRANCH   3   7
HETATM    7  C   UNL     1       4.574  25.542  53.691  1.00  0.00     0.163 C 
BRANCH   7   8
HETATM    8  C   UNL     1       5.944  24.944  53.496  1.00  0.00    -0.035 A 
HETATM    9  C   UNL     1       6.670  24.329  54.522  1.00  0.00     0.066 A 
HETATM   10  C   UNL     1       7.945  23.854  54.245  1.00  0.00     0.164 A 
HETATM   11  N   UNL     1       8.533  23.925  53.034  1.00  0.00    -0.237 NA
HETATM   12  C   UNL     1       7.816  24.507  52.053  1.00  0.00     0.120 A 
HETATM   13  C   UNL     1       6.541  25.024  52.232  1.00  0.00     0.028 A 
BRANCH  10  14
HETATM   14  O   UNL     1       8.635  23.282  55.297  1.00  0.00    -0.329 OA
BRANCH  14  15
HETATM   15  C   UNL     1       8.988  21.890  55.136  1.00  0.00     0.130 C 
HETATM   16  C   UNL     1       8.866  20.989  56.396  1.00  0.00     0.032 C 
HETATM   17  C   UNL     1       8.303  19.888  55.481  1.00  0.00     0.005 C 
HETATM   18  C   UNL     1       7.879  21.004  54.510  1.00  0.00     0.032 C 
ENDBRANCH  14  15
ENDBRANCH  10  14
ENDBRANCH   7   8
ENDBRANCH   3   7
BRANCH   1  19
HETATM   19  C   UNL     1       3.580  28.521  50.690  1.00  0.00     0.119 C 
BRANCH  19  20
HETATM   20  C   UNL     1       2.248  29.271  50.872  1.00  0.00     0.025 C 
HETATM   21  C   UNL     1       2.416  30.781  50.772  1.00  0.00     0.007 C 
ENDBRANCH  19  20
BRANCH  19  22
HETATM   22  C   UNL     1       3.616  27.796  49.356  1.00  0.00    -0.033 A 
HETATM   23  C   UNL     1       2.473  27.755  48.549  1.00  0.00     0.028 A 
HETATM   24  C   UNL     1       2.527  27.074  47.343  1.00  0.00     0.116 A 
HETATM   25  N   UNL     1       3.627  26.439  46.886  1.00  0.00    -0.273 NA
HETATM   26  C   UNL     1       4.723  26.494  47.671  1.00  0.00     0.116 A 
HETATM   27  C   UNL     1       4.767  27.145  48.895  1.00  0.00     0.028 A 
ENDBRANCH  19  22
ENDBRANCH   1  19
TORSDOF 7
ENDMDL
