MODEL 1
REMARK VINA RESULT:     -10.1      0.000      0.000
REMARK  9 active torsions:
REMARK  status: ('A' for Active; 'I' for Inactive)
REMARK       I    between atoms: C_2  and  N_3 
REMARK    1  A    between atoms: N_3  and  C_4 
REMARK    2  A    between atoms: C_6  and  O_7 
REMARK    3  A    between atoms: O_7  and  C_8 
REMARK    4  A    between atoms: C_8  and  C_9 
REMARK    5  A    between atoms: C_9  and  C_10 
REMARK    6  A    between atoms: C_10  and  C_11 
REMARK    7  A    between atoms: C_11  and  N_12 
REMARK       I    between atoms: N_12  and  C_13 
REMARK    8  A    between atoms: C_13  and  C_14 
REMARK    9  A    between atoms: C_18  and  C_19 
ROOT
HETATM    1  N   UNL     1       9.520  30.096  58.306  1.00  0.00    -0.345 N 
HETATM    2  C   UNL     1       9.642  31.308  58.937  1.00  0.00     0.270 C 
HETATM    3  O   UNL     1      10.245  32.253  58.441  1.00  0.00    -0.266 OA
HETATM    4  H   UNL     1       8.924  29.382  58.696  1.00  0.00     0.163 HD
ENDROOT
BRANCH   1   5
HETATM    5  C   UNL     1      10.043  29.896  56.982  1.00  0.00     0.217 C 
BRANCH   5   6
HETATM    6  C   UNL     1       8.955  29.290  56.110  1.00  0.00    -0.085 C 
BRANCH   6   7
HETATM    7  C   UNL     1       8.021  28.771  55.362  1.00  0.00    -0.078 C 
BRANCH   7   8
HETATM    8  C   UNL     1       6.933  28.167  54.490  1.00  0.00     0.269 C 
BRANCH   8   9
HETATM    9  O   UNL     1       6.512  26.918  55.031  1.00  0.00    -0.339 OA
BRANCH   9  10
HETATM   10  C   UNL     1       6.992  25.799  54.394  1.00  0.00     0.072 A 
HETATM   11  C   UNL     1       7.054  24.510  54.938  1.00  0.00     0.066 A 
HETATM   12  C   UNL     1       7.542  23.436  54.186  1.00  0.00     0.037 A 
HETATM   13  C   UNL     1       7.989  23.671  52.881  1.00  0.00     0.029 A 
HETATM   14  C   UNL     1       7.939  24.954  52.335  1.00  0.00     0.005 A 
HETATM   15  C   UNL     1       7.439  26.013  53.091  1.00  0.00     0.037 A 
BRANCH  12  16
HETATM   16  N   UNL     1       7.609  22.109  54.665  1.00  0.00    -0.327 N 
HETATM   17  C   UNL     1       8.112  21.674  55.879  1.00  0.00     0.218 C 
HETATM   18  C   UNL     1       7.997  20.180  56.050  1.00  0.00     0.117 C 
HETATM   19  O   UNL     1       8.579  22.369  56.776  1.00  0.00    -0.274 OA
HETATM   20  H   UNL     1       7.220  21.401  54.056  1.00  0.00     0.169 HD
ENDBRANCH  12  16
ENDBRANCH   9  10
ENDBRANCH   8   9
ENDBRANCH   7   8
ENDBRANCH   6   7
ENDBRANCH   5   6
ENDBRANCH   1   5
BRANCH   2  21
HETATM   21  C   UNL     1       9.003  31.396  60.222  1.00  0.00     0.120 A 
HETATM   22  N   UNL     1       9.039  30.359  61.112  1.00  0.00    -0.272 N 
HETATM   23  H   UNL     1       9.492  29.459  60.978  1.00  0.00     0.189 HD
HETATM   24  N   UNL     1       8.398  30.599  62.264  1.00  0.00    -0.174 NA
HETATM   25  C   UNL     1       7.918  31.847  62.136  1.00  0.00     0.089 A 
HETATM   26  C   UNL     1       8.272  32.376  60.862  1.00  0.00     0.071 A 
BRANCH  25  27
HETATM   27  C   UNL     1       7.148  32.489  63.208  1.00  0.00    -0.005 A 
HETATM   28  C   UNL     1       7.790  33.129  64.282  1.00  0.00     0.017 A 
HETATM   29  C   UNL     1       7.045  33.736  65.298  1.00  0.00     0.043 A 
HETATM   30  C   UNL     1       5.657  33.706  65.244  1.00  0.00     0.116 A 
HETATM   31  F   UNL     1       4.946  34.288  66.219  1.00  0.00    -0.206 F 
HETATM   32  C   UNL     1       4.998  33.079  64.195  1.00  0.00     0.043 A 
HETATM   33  C   UNL     1       5.742  32.472  63.181  1.00  0.00     0.017 A 
ENDBRANCH  25  27
ENDBRANCH   2  21
TORSDOF 9
ENDMDL
MODEL 2
REMARK VINA RESULT:      -9.6      1.355      1.764
REMARK  9 active torsions:
REMARK  status: ('A' for Active; 'I' for Inactive)
REMARK       I    between atoms: C_2  and  N_3 
REMARK    1  A    between atoms: N_3  and  C_4 
REMARK    2  A    between atoms: C_6  and  O_7 
REMARK    3  A    between atoms: O_7  and  C_8 
REMARK    4  A    between atoms: C_8  and  C_9 
REMARK    5  A    between atoms: C_9  and  C_10 
REMARK    6  A    between atoms: C_10  and  C_11 
REMARK    7  A    between atoms: C_11  and  N_12 
REMARK       I    between atoms: N_12  and  C_13 
REMARK    8  A    between atoms: C_13  and  C_14 
REMARK    9  A    between atoms: C_18  and  C_19 
ROOT
HETATM    1  N   UNL     1       8.038  30.249  59.318  1.00  0.00    -0.345 N 
HETATM    2  C   UNL     1       8.208  31.552  59.710  1.00  0.00     0.270 C 
HETATM    3  O   UNL     1       8.991  32.313  59.152  1.00  0.00    -0.266 OA
HETATM    4  H   UNL     1       7.307  29.690  59.729  1.00  0.00     0.163 HD
ENDROOT
BRANCH   1   5
HETATM    5  C   UNL     1       8.732  29.724  58.173  1.00  0.00     0.217 C 
BRANCH   5   6
HETATM    6  C   UNL     1       7.820  28.744  57.453  1.00  0.00    -0.085 C 
BRANCH   6   7
HETATM    7  C   UNL     1       7.038  27.902  56.835  1.00  0.00    -0.078 C 
BRANCH   7   8
HETATM    8  C   UNL     1       6.127  26.922  56.115  1.00  0.00     0.269 C 
BRANCH   8   9
HETATM    9  O   UNL     1       6.378  26.963  54.713  1.00  0.00    -0.339 OA
BRANCH   9  10
HETATM   10  C   UNL     1       6.896  25.815  54.165  1.00  0.00     0.072 A 
HETATM   11  C   UNL     1       6.964  24.565  54.794  1.00  0.00     0.066 A 
HETATM   12  C   UNL     1       7.493  23.454  54.128  1.00  0.00     0.037 A 
HETATM   13  C   UNL     1       7.975  23.613  52.824  1.00  0.00     0.029 A 
HETATM   14  C   UNL     1       7.920  24.857  52.194  1.00  0.00     0.005 A 
HETATM   15  C   UNL     1       7.379  25.953  52.864  1.00  0.00     0.037 A 
BRANCH  12  16
HETATM   16  N   UNL     1       7.568  22.163  54.694  1.00  0.00    -0.327 N 
HETATM   17  C   UNL     1       8.101  21.809  55.921  1.00  0.00     0.218 C 
HETATM   18  C   UNL     1       7.986  20.330  56.196  1.00  0.00     0.117 C 
HETATM   19  O   UNL     1       8.594  22.561  56.756  1.00  0.00    -0.274 OA
HETATM   20  H   UNL     1       7.161  21.416  54.144  1.00  0.00     0.169 HD
ENDBRANCH  12  16
ENDBRANCH   9  10
ENDBRANCH   8   9
ENDBRANCH   7   8
ENDBRANCH   6   7
ENDBRANCH   5   6
ENDBRANCH   1   5
BRANCH   2  21
HETATM   21  C   UNL     1       7.394  31.969  60.819  1.00  0.00     0.120 A 
HETATM   22  N   UNL     1       6.030  31.905  60.769  1.00  0.00    -0.272 N 
HETATM   23  H   UNL     1       5.465  31.578  59.990  1.00  0.00     0.189 HD
HETATM   24  N   UNL     1       5.417  32.329  61.884  1.00  0.00    -0.174 NA
HETATM   25  C   UNL     1       6.415  32.687  62.708  1.00  0.00     0.089 A 
HETATM   26  C   UNL     1       7.671  32.483  62.070  1.00  0.00     0.071 A 
BRANCH  25  27
HETATM   27  C   UNL     1       6.151  33.207  64.055  1.00  0.00    -0.005 A 
HETATM   28  C   UNL     1       4.838  33.441  64.500  1.00  0.00     0.017 A 
HETATM   29  C   UNL     1       4.601  33.938  65.786  1.00  0.00     0.043 A 
HETATM   30  C   UNL     1       5.672  34.203  66.629  1.00  0.00     0.116 A 
HETATM   31  F   UNL     1       5.441  34.680  67.860  1.00  0.00    -0.206 F 
HETATM   32  C   UNL     1       6.978  33.982  66.214  1.00  0.00     0.043 A 
HETATM   33  C   UNL     1       7.216  33.487  64.930  1.00  0.00     0.017 A 
ENDBRANCH  25  27
ENDBRANCH   2  21
TORSDOF 9
ENDMDL
MODEL 3
REMARK VINA RESULT:      -9.5      1.800      3.084
REMARK  9 active torsions:
REMARK  status: ('A' for Active; 'I' for Inactive)
REMARK       I    between atoms: C_2  and  N_3 
REMARK    1  A    between atoms: N_3  and  C_4 
REMARK    2  A    between atoms: C_6  and  O_7 
REMARK    3  A    between atoms: O_7  and  C_8 
REMARK    4  A    between atoms: C_8  and  C_9 
REMARK    5  A    between atoms: C_9  and  C_10 
REMARK    6  A    between atoms: C_10  and  C_11 
REMARK    7  A    between atoms: C_11  and  N_12 
REMARK       I    between atoms: N_12  and  C_13 
REMARK    8  A    between atoms: C_13  and  C_14 
REMARK    9  A    between atoms: C_18  and  C_19 
ROOT
HETATM    1  N   UNL     1       7.549  29.375  58.254  1.00  0.00    -0.345 N 
HETATM    2  C   UNL     1       8.625  30.048  58.773  1.00  0.00     0.270 C 
HETATM    3  O   UNL     1       9.706  30.112  58.196  1.00  0.00    -0.266 OA
HETATM    4  H   UNL     1       6.649  29.439  58.704  1.00  0.00     0.163 HD
ENDROOT
BRANCH   1   5
HETATM    5  C   UNL     1       7.618  28.760  56.956  1.00  0.00     0.217 C 
BRANCH   5   6
HETATM    6  C   UNL     1       8.023  27.304  57.123  1.00  0.00    -0.085 C 
BRANCH   6   7
HETATM    7  C   UNL     1       8.369  26.055  57.267  1.00  0.00    -0.078 C 
BRANCH   7   8
HETATM    8  C   UNL     1       8.774  24.599  57.435  1.00  0.00     0.269 C 
BRANCH   8   9
HETATM    9  O   UNL     1       7.727  23.747  56.980  1.00  0.00    -0.339 OA
BRANCH   9  10
HETATM   10  C   UNL     1       7.694  23.511  55.628  1.00  0.00     0.072 A 
HETATM   11  C   UNL     1       6.820  24.111  54.712  1.00  0.00     0.066 A 
HETATM   12  C   UNL     1       6.893  23.811  53.347  1.00  0.00     0.037 A 
HETATM   13  C   UNL     1       7.844  22.883  52.908  1.00  0.00     0.029 A 
HETATM   14  C   UNL     1       8.712  22.274  53.815  1.00  0.00     0.005 A 
HETATM   15  C   UNL     1       8.637  22.591  55.170  1.00  0.00     0.037 A 
BRANCH  12  16
HETATM   16  N   UNL     1       6.060  24.397  52.370  1.00  0.00    -0.327 N 
HETATM   17  C   UNL     1       6.020  25.725  51.980  1.00  0.00     0.218 C 
HETATM   18  C   UNL     1       5.011  25.976  50.887  1.00  0.00     0.117 C 
HETATM   19  O   UNL     1       6.719  26.639  52.404  1.00  0.00    -0.274 OA
HETATM   20  H   UNL     1       5.439  23.763  51.883  1.00  0.00     0.169 HD
ENDBRANCH  12  16
ENDBRANCH   9  10
ENDBRANCH   8   9
ENDBRANCH   7   8
ENDBRANCH   6   7
ENDBRANCH   5   6
ENDBRANCH   1   5
BRANCH   2  21
HETATM   21  C   UNL     1       8.395  30.685  60.042  1.00  0.00     0.120 A 
HETATM   22  N   UNL     1       9.063  30.296  61.169  1.00  0.00    -0.272 N 
HETATM   23  H   UNL     1       9.755  29.556  61.240  1.00  0.00     0.189 HD
HETATM   24  N   UNL     1       8.737  30.989  62.269  1.00  0.00    -0.174 NA
HETATM   25  C   UNL     1       7.817  31.876  61.855  1.00  0.00     0.089 A 
HETATM   26  C   UNL     1       7.571  31.709  60.463  1.00  0.00     0.071 A 
BRANCH  25  27
HETATM   27  C   UNL     1       7.207  32.839  62.779  1.00  0.00    -0.005 A 
HETATM   28  C   UNL     1       7.613  32.917  64.123  1.00  0.00     0.017 A 
HETATM   29  C   UNL     1       7.021  33.838  64.993  1.00  0.00     0.043 A 
HETATM   30  C   UNL     1       6.024  34.684  64.525  1.00  0.00     0.116 A 
HETATM   31  F   UNL     1       5.459  35.565  65.362  1.00  0.00    -0.206 F 
HETATM   32  C   UNL     1       5.603  34.627  63.203  1.00  0.00     0.043 A 
HETATM   33  C   UNL     1       6.192  33.706  62.334  1.00  0.00     0.017 A 
ENDBRANCH  25  27
ENDBRANCH   2  21
TORSDOF 9
ENDMDL
MODEL 4
REMARK VINA RESULT:      -9.3      4.541     11.993
REMARK  9 active torsions:
REMARK  status: ('A' for Active; 'I' for Inactive)
REMARK       I    between atoms: C_2  and  N_3 
REMARK    1  A    between atoms: N_3  and  C_4 
REMARK    2  A    between atoms: C_6  and  O_7 
REMARK    3  A    between atoms: O_7  and  C_8 
REMARK    4  A    between atoms: C_8  and  C_9 
REMARK    5  A    between atoms: C_9  and  C_10 
REMARK    6  A    between atoms: C_10  and  C_11 
REMARK    7  A    between atoms: C_11  and  N_12 
REMARK       I    between atoms: N_12  and  C_13 
REMARK    8  A    between atoms: C_13  and  C_14 
REMARK    9  A    between atoms: C_18  and  C_19 
ROOT
HETATM    1  N   UNL     1       8.774  28.789  57.543  1.00  0.00    -0.345 N 
HETATM    2  C   UNL     1       7.554  28.173  57.427  1.00  0.00     0.270 C 
HETATM    3  O   UNL     1       6.495  28.761  57.622  1.00  0.00    -0.266 OA
HETATM    4  H   UNL     1       9.613  28.302  57.267  1.00  0.00     0.163 HD
ENDROOT
BRANCH   1   5
HETATM    5  C   UNL     1       8.868  30.194  57.835  1.00  0.00     0.217 C 
BRANCH   5   6
HETATM    6  C   UNL     1       8.729  30.393  59.336  1.00  0.00    -0.085 C 
BRANCH   6   7
HETATM    7  C   UNL     1       8.610  30.564  60.623  1.00  0.00    -0.078 C 
BRANCH   7   8
HETATM    8  C   UNL     1       8.471  30.764  62.124  1.00  0.00     0.269 C 
BRANCH   8   9
HETATM    9  O   UNL     1       8.558  32.149  62.442  1.00  0.00    -0.339 OA
BRANCH   9  10
HETATM   10  C   UNL     1       7.522  32.658  63.184  1.00  0.00     0.072 A 
HETATM   11  C   UNL     1       6.183  32.735  62.779  1.00  0.00     0.066 A 
HETATM   12  C   UNL     1       5.202  33.254  63.631  1.00  0.00     0.037 A 
HETATM   13  C   UNL     1       5.582  33.716  64.896  1.00  0.00     0.029 A 
HETATM   14  C   UNL     1       6.914  33.652  65.304  1.00  0.00     0.005 A 
HETATM   15  C   UNL     1       7.879  33.122  64.450  1.00  0.00     0.037 A 
BRANCH  12  16
HETATM   16  N   UNL     1       3.834  33.338  63.294  1.00  0.00    -0.327 N 
HETATM   17  C   UNL     1       3.090  34.482  63.059  1.00  0.00     0.218 C 
HETATM   18  C   UNL     1       1.657  34.176  62.703  1.00  0.00     0.117 C 
HETATM   19  O   UNL     1       3.492  35.640  63.085  1.00  0.00    -0.274 OA
HETATM   20  H   UNL     1       3.351  32.454  63.188  1.00  0.00     0.169 HD
ENDBRANCH  12  16
ENDBRANCH   9  10
ENDBRANCH   8   9
ENDBRANCH   7   8
ENDBRANCH   6   7
ENDBRANCH   5   6
ENDBRANCH   1   5
BRANCH   2  21
HETATM   21  C   UNL     1       7.601  26.786  57.051  1.00  0.00     0.120 A 
HETATM   22  N   UNL     1       7.531  25.790  57.984  1.00  0.00    -0.272 N 
HETATM   23  H   UNL     1       7.445  25.903  58.990  1.00  0.00     0.189 HD
HETATM   24  N   UNL     1       7.587  24.551  57.472  1.00  0.00    -0.174 NA
HETATM   25  C   UNL     1       7.697  24.733  56.146  1.00  0.00     0.089 A 
HETATM   26  C   UNL     1       7.717  26.125  55.845  1.00  0.00     0.071 A 
BRANCH  25  27
HETATM   27  C   UNL     1       7.780  23.599  55.218  1.00  0.00    -0.005 A 
HETATM   28  C   UNL     1       7.936  22.284  55.689  1.00  0.00     0.017 A 
HETATM   29  C   UNL     1       8.016  21.213  54.793  1.00  0.00     0.043 A 
HETATM   30  C   UNL     1       7.940  21.451  53.427  1.00  0.00     0.116 A 
HETATM   31  F   UNL     1       8.017  20.422  52.572  1.00  0.00    -0.206 F 
HETATM   32  C   UNL     1       7.788  22.740  52.936  1.00  0.00     0.043 A 
HETATM   33  C   UNL     1       7.709  23.811  53.829  1.00  0.00     0.017 A 
ENDBRANCH  25  27
ENDBRANCH   2  21
TORSDOF 9
ENDMDL
MODEL 5
REMARK VINA RESULT:      -9.2      4.444     11.650
REMARK  9 active torsions:
REMARK  status: ('A' for Active; 'I' for Inactive)
REMARK       I    between atoms: C_2  and  N_3 
REMARK    1  A    between atoms: N_3  and  C_4 
REMARK    2  A    between atoms: C_6  and  O_7 
REMARK    3  A    between atoms: O_7  and  C_8 
REMARK    4  A    between atoms: C_8  and  C_9 
REMARK    5  A    between atoms: C_9  and  C_10 
REMARK    6  A    between atoms: C_10  and  C_11 
REMARK    7  A    between atoms: C_11  and  N_12 
REMARK       I    between atoms: N_12  and  C_13 
REMARK    8  A    between atoms: C_13  and  C_14 
REMARK    9  A    between atoms: C_18  and  C_19 
ROOT
HETATM    1  N   UNL     1       5.573  27.906  56.783  1.00  0.00    -0.345 N 
HETATM    2  C   UNL     1       5.213  27.674  55.480  1.00  0.00     0.270 C 
HETATM    3  O   UNL     1       4.617  28.504  54.801  1.00  0.00    -0.266 OA
HETATM    4  H   UNL     1       6.158  27.245  57.270  1.00  0.00     0.163 HD
ENDROOT
BRANCH   1   5
HETATM    5  C   UNL     1       5.325  29.179  57.404  1.00  0.00     0.217 C 
BRANCH   5   6
HETATM    6  C   UNL     1       6.656  29.813  57.774  1.00  0.00    -0.085 C 
BRANCH   6   7
HETATM    7  C   UNL     1       7.799  30.356  58.090  1.00  0.00    -0.078 C 
BRANCH   7   8
HETATM    8  C   UNL     1       9.130  30.989  58.460  1.00  0.00     0.269 C 
BRANCH   8   9
HETATM    9  O   UNL     1       8.916  32.272  59.040  1.00  0.00    -0.339 OA
BRANCH   9  10
HETATM   10  C   UNL     1       8.304  32.278  60.269  1.00  0.00     0.072 A 
HETATM   11  C   UNL     1       6.950  32.548  60.509  1.00  0.00     0.066 A 
HETATM   12  C   UNL     1       6.427  32.501  61.806  1.00  0.00     0.037 A 
HETATM   13  C   UNL     1       7.284  32.199  62.870  1.00  0.00     0.029 A 
HETATM   14  C   UNL     1       8.635  31.938  62.641  1.00  0.00     0.005 A 
HETATM   15  C   UNL     1       9.141  31.975  61.342  1.00  0.00     0.037 A 
BRANCH  12  16
HETATM   16  N   UNL     1       5.070  32.739  62.113  1.00  0.00    -0.327 N 
HETATM   17  C   UNL     1       4.434  33.963  62.236  1.00  0.00     0.218 C 
HETATM   18  C   UNL     1       2.966  33.820  62.554  1.00  0.00     0.117 C 
HETATM   19  O   UNL     1       4.933  35.072  62.081  1.00  0.00    -0.274 OA
HETATM   20  H   UNL     1       4.494  31.915  62.232  1.00  0.00     0.169 HD
ENDBRANCH  12  16
ENDBRANCH   9  10
ENDBRANCH   8   9
ENDBRANCH   7   8
ENDBRANCH   6   7
ENDBRANCH   5   6
ENDBRANCH   1   5
BRANCH   2  21
HETATM   21  C   UNL     1       5.593  26.389  54.959  1.00  0.00     0.120 A 
HETATM   22  N   UNL     1       5.004  25.868  53.841  1.00  0.00    -0.272 N 
HETATM   23  H   UNL     1       4.272  26.298  53.283  1.00  0.00     0.189 HD
HETATM   24  N   UNL     1       5.471  24.663  53.484  1.00  0.00    -0.174 NA
HETATM   25  C   UNL     1       6.409  24.374  54.399  1.00  0.00     0.089 A 
HETATM   26  C   UNL     1       6.508  25.432  55.347  1.00  0.00     0.071 A 
BRANCH  25  27
HETATM   27  C   UNL     1       7.171  23.120  54.351  1.00  0.00    -0.005 A 
HETATM   28  C   UNL     1       7.530  22.441  55.528  1.00  0.00     0.017 A 
HETATM   29  C   UNL     1       8.258  21.248  55.468  1.00  0.00     0.043 A 
HETATM   30  C   UNL     1       8.628  20.730  54.233  1.00  0.00     0.116 A 
HETATM   31  F   UNL     1       9.325  19.587  54.180  1.00  0.00    -0.206 F 
HETATM   32  C   UNL     1       8.288  21.382  53.056  1.00  0.00     0.043 A 
HETATM   33  C   UNL     1       7.562  22.573  53.115  1.00  0.00     0.017 A 
ENDBRANCH  25  27
ENDBRANCH   2  21
TORSDOF 9
ENDMDL
MODEL 6
REMARK VINA RESULT:      -9.2      4.553     10.642
REMARK  9 active torsions:
REMARK  status: ('A' for Active; 'I' for Inactive)
REMARK       I    between atoms: C_2  and  N_3 
REMARK    1  A    between atoms: N_3  and  C_4 
REMARK    2  A    between atoms: C_6  and  O_7 
REMARK    3  A    between atoms: O_7  and  C_8 
REMARK    4  A    between atoms: C_8  and  C_9 
REMARK    5  A    between atoms: C_9  and  C_10 
REMARK    6  A    between atoms: C_10  and  C_11 
REMARK    7  A    between atoms: C_11  and  N_12 
REMARK       I    between atoms: N_12  and  C_13 
REMARK    8  A    between atoms: C_13  and  C_14 
REMARK    9  A    between atoms: C_18  and  C_19 
ROOT
HETATM    1  N   UNL     1       3.772  29.293  56.749  1.00  0.00    -0.345 N 
HETATM    2  C   UNL     1       4.124  28.781  55.526  1.00  0.00     0.270 C 
HETATM    3  O   UNL     1       3.920  29.381  54.475  1.00  0.00    -0.266 OA
HETATM    4  H   UNL     1       4.056  28.821  57.593  1.00  0.00     0.163 HD
ENDROOT
BRANCH   1   5
HETATM    5  C   UNL     1       3.200  30.607  56.864  1.00  0.00     0.217 C 
BRANCH   5   6
HETATM    6  C   UNL     1       3.528  31.166  58.239  1.00  0.00    -0.085 C 
BRANCH   6   7
HETATM    7  C   UNL     1       3.809  31.647  59.419  1.00  0.00    -0.078 C 
BRANCH   7   8
HETATM    8  C   UNL     1       4.137  32.207  60.793  1.00  0.00     0.269 C 
BRANCH   8   9
HETATM    9  O   UNL     1       5.158  33.193  60.687  1.00  0.00    -0.339 OA
BRANCH   9  10
HETATM   10  C   UNL     1       6.444  32.744  60.864  1.00  0.00     0.072 A 
HETATM   11  C   UNL     1       7.324  32.357  59.845  1.00  0.00     0.066 A 
HETATM   12  C   UNL     1       8.625  31.937  60.141  1.00  0.00     0.037 A 
HETATM   13  C   UNL     1       9.033  31.889  61.479  1.00  0.00     0.029 A 
HETATM   14  C   UNL     1       8.159  32.263  62.500  1.00  0.00     0.005 A 
HETATM   15  C   UNL     1       6.869  32.692  62.191  1.00  0.00     0.037 A 
BRANCH  12  16
HETATM   16  N   UNL     1       9.569  31.557  59.162  1.00  0.00    -0.327 N 
HETATM   17  C   UNL     1       9.609  30.376  58.442  1.00  0.00     0.218 C 
HETATM   18  C   UNL     1      10.758  30.334  57.465  1.00  0.00     0.117 C 
HETATM   19  O   UNL     1       8.816  29.443  58.510  1.00  0.00    -0.274 OA
HETATM   20  H   UNL     1      10.282  32.243  58.948  1.00  0.00     0.169 HD
ENDBRANCH  12  16
ENDBRANCH   9  10
ENDBRANCH   8   9
ENDBRANCH   7   8
ENDBRANCH   6   7
ENDBRANCH   5   6
ENDBRANCH   1   5
BRANCH   2  21
HETATM   21  C   UNL     1       4.760  27.492  55.561  1.00  0.00     0.120 A 
HETATM   22  N   UNL     1       4.696  26.694  56.668  1.00  0.00    -0.272 N 
HETATM   23  H   UNL     1       4.224  26.904  57.542  1.00  0.00     0.189 HD
HETATM   24  N   UNL     1       5.339  25.524  56.541  1.00  0.00    -0.174 NA
HETATM   25  C   UNL     1       5.847  25.545  55.298  1.00  0.00     0.089 A 
HETATM   26  C   UNL     1       5.511  26.771  54.656  1.00  0.00     0.071 A 
BRANCH  25  27
HETATM   27  C   UNL     1       6.628  24.422  54.767  1.00  0.00    -0.005 A 
HETATM   28  C   UNL     1       6.857  24.284  53.387  1.00  0.00     0.017 A 
HETATM   29  C   UNL     1       7.601  23.207  52.893  1.00  0.00     0.043 A 
HETATM   30  C   UNL     1       8.118  22.267  53.774  1.00  0.00     0.116 A 
HETATM   31  F   UNL     1       8.830  21.237  53.298  1.00  0.00    -0.206 F 
HETATM   32  C   UNL     1       7.905  22.379  55.142  1.00  0.00     0.043 A 
HETATM   33  C   UNL     1       7.161  23.452  55.636  1.00  0.00     0.017 A 
ENDBRANCH  25  27
ENDBRANCH   2  21
TORSDOF 9
ENDMDL
MODEL 7
REMARK VINA RESULT:      -9.1      4.589     11.875
REMARK  9 active torsions:
REMARK  status: ('A' for Active; 'I' for Inactive)
REMARK       I    between atoms: C_2  and  N_3 
REMARK    1  A    between atoms: N_3  and  C_4 
REMARK    2  A    between atoms: C_6  and  O_7 
REMARK    3  A    between atoms: O_7  and  C_8 
REMARK    4  A    between atoms: C_8  and  C_9 
REMARK    5  A    between atoms: C_9  and  C_10 
REMARK    6  A    between atoms: C_10  and  C_11 
REMARK    7  A    between atoms: C_11  and  N_12 
REMARK       I    between atoms: N_12  and  C_13 
REMARK    8  A    between atoms: C_13  and  C_14 
REMARK    9  A    between atoms: C_18  and  C_19 
ROOT
HETATM    1  N   UNL     1       5.958  29.282  56.892  1.00  0.00    -0.345 N 
HETATM    2  C   UNL     1       4.974  28.479  56.374  1.00  0.00     0.270 C 
HETATM    3  O   UNL     1       3.846  28.892  56.125  1.00  0.00    -0.266 OA
HETATM    4  H   UNL     1       6.900  28.934  56.978  1.00  0.00     0.163 HD
ENDROOT
BRANCH   1   5
HETATM    5  C   UNL     1       5.730  30.685  57.107  1.00  0.00     0.217 C 
BRANCH   5   6
HETATM    6  C   UNL     1       6.637  31.163  58.230  1.00  0.00    -0.085 C 
BRANCH   6   7
HETATM    7  C   UNL     1       7.415  31.575  59.192  1.00  0.00    -0.078 C 
BRANCH   7   8
HETATM    8  C   UNL     1       8.322  32.054  60.314  1.00  0.00     0.269 C 
BRANCH   8   9
HETATM    9  O   UNL     1       8.033  31.341  61.513  1.00  0.00    -0.339 OA
BRANCH   9  10
HETATM   10  C   UNL     1       7.315  32.030  62.459  1.00  0.00     0.072 A 
HETATM   11  C   UNL     1       5.927  32.220  62.459  1.00  0.00     0.066 A 
HETATM   12  C   UNL     1       5.298  32.922  63.492  1.00  0.00     0.037 A 
HETATM   13  C   UNL     1       6.080  33.454  64.524  1.00  0.00     0.029 A 
HETATM   14  C   UNL     1       7.464  33.278  64.526  1.00  0.00     0.005 A 
HETATM   15  C   UNL     1       8.077  32.565  63.498  1.00  0.00     0.037 A 
BRANCH  12  16
HETATM   16  N   UNL     1       3.902  33.128  63.565  1.00  0.00    -0.327 N 
HETATM   17  C   UNL     1       3.197  34.264  63.207  1.00  0.00     0.218 C 
HETATM   18  C   UNL     1       1.710  34.106  63.406  1.00  0.00     0.117 C 
HETATM   19  O   UNL     1       3.657  35.302  62.743  1.00  0.00    -0.274 OA
HETATM   20  H   UNL     1       3.357  32.340  63.893  1.00  0.00     0.169 HD
ENDBRANCH  12  16
ENDBRANCH   9  10
ENDBRANCH   8   9
ENDBRANCH   7   8
ENDBRANCH   6   7
ENDBRANCH   5   6
ENDBRANCH   1   5
BRANCH   2  21
HETATM   21  C   UNL     1       5.360  27.115  56.133  1.00  0.00     0.120 A 
HETATM   22  N   UNL     1       4.894  26.092  56.910  1.00  0.00    -0.272 N 
HETATM   23  H   UNL     1       4.261  26.169  57.700  1.00  0.00     0.189 HD
HETATM   24  N   UNL     1       5.347  24.881  56.554  1.00  0.00    -0.174 NA
HETATM   25  C   UNL     1       6.143  25.109  55.498  1.00  0.00     0.089 A 
HETATM   26  C   UNL     1       6.183  26.503  55.209  1.00  0.00     0.071 A 
BRANCH  25  27
HETATM   27  C   UNL     1       6.835  24.015  54.806  1.00  0.00    -0.005 A 
HETATM   28  C   UNL     1       7.267  22.872  55.500  1.00  0.00     0.017 A 
HETATM   29  C   UNL     1       7.927  21.838  54.828  1.00  0.00     0.043 A 
HETATM   30  C   UNL     1       8.157  21.942  53.463  1.00  0.00     0.116 A 
HETATM   31  F   UNL     1       8.790  20.949  52.823  1.00  0.00    -0.206 F 
HETATM   32  C   UNL     1       7.743  23.061  52.753  1.00  0.00     0.043 A 
HETATM   33  C   UNL     1       7.085  24.095  53.423  1.00  0.00     0.017 A 
ENDBRANCH  25  27
ENDBRANCH   2  21
TORSDOF 9
ENDMDL
MODEL 8
REMARK VINA RESULT:      -8.9      2.193      2.835
REMARK  9 active torsions:
REMARK  status: ('A' for Active; 'I' for Inactive)
REMARK       I    between atoms: C_2  and  N_3 
REMARK    1  A    between atoms: N_3  and  C_4 
REMARK    2  A    between atoms: C_6  and  O_7 
REMARK    3  A    between atoms: O_7  and  C_8 
REMARK    4  A    between atoms: C_8  and  C_9 
REMARK    5  A    between atoms: C_9  and  C_10 
REMARK    6  A    between atoms: C_10  and  C_11 
REMARK    7  A    between atoms: C_11  and  N_12 
REMARK       I    between atoms: N_12  and  C_13 
REMARK    8  A    between atoms: C_13  and  C_14 
REMARK    9  A    between atoms: C_18  and  C_19 
ROOT
HETATM    1  N   UNL     1       5.604  31.726  59.420  1.00  0.00    -0.345 N 
HETATM    2  C   UNL     1       6.533  32.289  60.257  1.00  0.00     0.270 C 
HETATM    3  O   UNL     1       7.636  32.659  59.867  1.00  0.00    -0.266 OA
HETATM    4  H   UNL     1       4.672  31.539  59.754  1.00  0.00     0.163 HD
ENDROOT
BRANCH   1   5
HETATM    5  C   UNL     1       5.857  31.604  58.009  1.00  0.00     0.217 C 
BRANCH   5   6
HETATM    6  C   UNL     1       6.809  30.440  57.781  1.00  0.00    -0.085 C 
BRANCH   6   7
HETATM    7  C   UNL     1       7.625  29.443  57.584  1.00  0.00    -0.078 C 
BRANCH   7   8
HETATM    8  C   UNL     1       8.577  28.280  57.354  1.00  0.00     0.269 C 
BRANCH   8   9
HETATM    9  O   UNL     1       7.955  27.057  57.734  1.00  0.00    -0.339 OA
BRANCH   9  10
HETATM   10  C   UNL     1       7.679  26.184  56.711  1.00  0.00     0.072 A 
HETATM   11  C   UNL     1       7.731  24.786  56.790  1.00  0.00     0.066 A 
HETATM   12  C   UNL     1       7.405  23.992  55.685  1.00  0.00     0.037 A 
HETATM   13  C   UNL     1       7.044  24.616  54.486  1.00  0.00     0.029 A 
HETATM   14  C   UNL     1       6.999  26.007  54.396  1.00  0.00     0.005 A 
HETATM   15  C   UNL     1       7.314  26.787  55.508  1.00  0.00     0.037 A 
BRANCH  12  16
HETATM   16  N   UNL     1       7.414  22.580  55.704  1.00  0.00    -0.327 N 
HETATM   17  C   UNL     1       8.480  21.738  55.438  1.00  0.00     0.218 C 
HETATM   18  C   UNL     1       8.114  20.281  55.578  1.00  0.00     0.117 C 
HETATM   19  O   UNL     1       9.626  22.068  55.151  1.00  0.00    -0.274 OA
HETATM   20  H   UNL     1       6.542  22.138  55.969  1.00  0.00     0.169 HD
ENDBRANCH  12  16
ENDBRANCH   9  10
ENDBRANCH   8   9
ENDBRANCH   7   8
ENDBRANCH   6   7
ENDBRANCH   5   6
ENDBRANCH   1   5
BRANCH   2  21
HETATM   21  C   UNL     1       6.120  32.425  61.627  1.00  0.00     0.120 A 
HETATM   22  N   UNL     1       5.209  31.575  62.187  1.00  0.00    -0.272 N 
HETATM   23  H   UNL     1       4.744  30.796  61.730  1.00  0.00     0.189 HD
HETATM   24  N   UNL     1       4.931  31.834  63.473  1.00  0.00    -0.174 NA
HETATM   25  C   UNL     1       5.689  32.899  63.779  1.00  0.00     0.089 A 
HETATM   26  C   UNL     1       6.444  33.304  62.641  1.00  0.00     0.071 A 
BRANCH  25  27
HETATM   27  C   UNL     1       5.675  33.494  65.121  1.00  0.00    -0.005 A 
HETATM   28  C   UNL     1       6.868  33.741  65.821  1.00  0.00     0.017 A 
HETATM   29  C   UNL     1       6.840  34.307  67.099  1.00  0.00     0.043 A 
HETATM   30  C   UNL     1       5.621  34.628  67.683  1.00  0.00     0.116 A 
HETATM   31  F   UNL     1       5.598  35.170  68.908  1.00  0.00    -0.206 F 
HETATM   32  C   UNL     1       4.427  34.392  67.014  1.00  0.00     0.043 A 
HETATM   33  C   UNL     1       4.454  33.826  65.738  1.00  0.00     0.017 A 
ENDBRANCH  25  27
ENDBRANCH   2  21
TORSDOF 9
ENDMDL
MODEL 9
REMARK VINA RESULT:      -8.9      4.525     11.268
REMARK  9 active torsions:
REMARK  status: ('A' for Active; 'I' for Inactive)
REMARK       I    between atoms: C_2  and  N_3 
REMARK    1  A    between atoms: N_3  and  C_4 
REMARK    2  A    between atoms: C_6  and  O_7 
REMARK    3  A    between atoms: O_7  and  C_8 
REMARK    4  A    between atoms: C_8  and  C_9 
REMARK    5  A    between atoms: C_9  and  C_10 
REMARK    6  A    between atoms: C_10  and  C_11 
REMARK    7  A    between atoms: C_11  and  N_12 
REMARK       I    between atoms: N_12  and  C_13 
REMARK    8  A    between atoms: C_13  and  C_14 
REMARK    9  A    between atoms: C_18  and  C_19 
ROOT
HETATM    1  N   UNL     1       4.328  27.518  53.581  1.00  0.00    -0.345 N 
HETATM    2  C   UNL     1       5.281  27.342  52.609  1.00  0.00     0.270 C 
HETATM    3  O   UNL     1       5.497  28.176  51.737  1.00  0.00    -0.266 OA
HETATM    4  H   UNL     1       4.257  26.861  54.343  1.00  0.00     0.163 HD
ENDROOT
BRANCH   1   5
HETATM    5  C   UNL     1       3.574  28.739  53.664  1.00  0.00     0.217 C 
BRANCH   5   6
HETATM    6  C   UNL     1       3.884  29.418  54.989  1.00  0.00    -0.085 C 
BRANCH   6   7
HETATM    7  C   UNL     1       4.151  30.000  56.125  1.00  0.00    -0.078 C 
BRANCH   7   8
HETATM    8  C   UNL     1       4.462  30.679  57.449  1.00  0.00     0.269 C 
BRANCH   8   9
HETATM    9  O   UNL     1       5.630  31.484  57.321  1.00  0.00    -0.339 OA
BRANCH   9  10
HETATM   10  C   UNL     1       6.628  31.239  58.232  1.00  0.00     0.072 A 
HETATM   11  C   UNL     1       6.792  31.886  59.464  1.00  0.00     0.066 A 
HETATM   12  C   UNL     1       7.835  31.536  60.326  1.00  0.00     0.037 A 
HETATM   13  C   UNL     1       8.733  30.537  59.932  1.00  0.00     0.029 A 
HETATM   14  C   UNL     1       8.582  29.894  58.703  1.00  0.00     0.005 A 
HETATM   15  C   UNL     1       7.530  30.243  57.859  1.00  0.00     0.037 A 
BRANCH  12  16
HETATM   16  N   UNL     1       8.043  32.132  61.590  1.00  0.00    -0.327 N 
HETATM   17  C   UNL     1       7.203  32.093  62.689  1.00  0.00     0.218 C 
HETATM   18  C   UNL     1       7.771  32.830  63.876  1.00  0.00     0.117 C 
HETATM   19  O   UNL     1       6.124  31.515  62.773  1.00  0.00    -0.274 OA
HETATM   20  H   UNL     1       8.921  32.621  61.707  1.00  0.00     0.169 HD
ENDBRANCH  12  16
ENDBRANCH   9  10
ENDBRANCH   8   9
ENDBRANCH   7   8
ENDBRANCH   6   7
ENDBRANCH   5   6
ENDBRANCH   1   5
BRANCH   2  21
HETATM   21  C   UNL     1       6.018  26.110  52.690  1.00  0.00     0.120 A 
HETATM   22  N   UNL     1       6.868  25.719  51.695  1.00  0.00    -0.272 N 
HETATM   23  H   UNL     1       7.067  26.219  50.834  1.00  0.00     0.189 HD
HETATM   24  N   UNL     1       7.480  24.547  51.922  1.00  0.00    -0.174 NA
HETATM   25  C   UNL     1       7.019  24.146  53.117  1.00  0.00     0.089 A 
HETATM   26  C   UNL     1       6.091  25.098  53.627  1.00  0.00     0.071 A 
BRANCH  25  27
HETATM   27  C   UNL     1       7.462  22.888  53.731  1.00  0.00    -0.005 A 
HETATM   28  C   UNL     1       7.967  21.835  52.948  1.00  0.00     0.017 A 
HETATM   29  C   UNL     1       8.385  20.641  53.545  1.00  0.00     0.043 A 
HETATM   30  C   UNL     1       8.299  20.495  54.924  1.00  0.00     0.116 A 
HETATM   31  F   UNL     1       8.700  19.350  55.492  1.00  0.00    -0.206 F 
HETATM   32  C   UNL     1       7.803  21.519  55.720  1.00  0.00     0.043 A 
HETATM   33  C   UNL     1       7.384  22.711  55.124  1.00  0.00     0.017 A 
ENDBRANCH  25  27
ENDBRANCH   2  21
TORSDOF 9
ENDMDL
MODEL 10
REMARK VINA RESULT:      -8.8      4.628     12.016
REMARK  9 active torsions:
REMARK  status: ('A' for Active; 'I' for Inactive)
REMARK       I    between atoms: C_2  and  N_3 
REMARK    1  A    between atoms: N_3  and  C_4 
REMARK    2  A    between atoms: C_6  and  O_7 
REMARK    3  A    between atoms: O_7  and  C_8 
REMARK    4  A    between atoms: C_8  and  C_9 
REMARK    5  A    between atoms: C_9  and  C_10 
REMARK    6  A    between atoms: C_10  and  C_11 
REMARK    7  A    between atoms: C_11  and  N_12 
REMARK       I    between atoms: N_12  and  C_13 
REMARK    8  A    between atoms: C_13  and  C_14 
REMARK    9  A    between atoms: C_18  and  C_19 
ROOT
HETATM    1  N   UNL     1       9.100  29.083  57.590  1.00  0.00    -0.345 N 
HETATM    2  C   UNL     1       7.760  28.843  57.414  1.00  0.00     0.270 C 
HETATM    3  O   UNL     1       6.900  29.678  57.673  1.00  0.00    -0.266 OA
HETATM    4  H   UNL     1       9.779  28.415  57.262  1.00  0.00     0.163 HD
ENDROOT
BRANCH   1   5
HETATM    5  C   UNL     1       9.569  30.369  58.030  1.00  0.00     0.217 C 
BRANCH   5   6
HETATM    6  C   UNL     1       9.200  30.552  59.494  1.00  0.00    -0.085 C 
BRANCH   6   7
HETATM    7  C   UNL     1       8.885  30.709  60.749  1.00  0.00    -0.078 C 
BRANCH   7   8
HETATM    8  C   UNL     1       8.517  30.892  62.213  1.00  0.00     0.269 C 
BRANCH   8   9
HETATM    9  O   UNL     1       7.123  31.158  62.336  1.00  0.00    -0.339 OA
BRANCH   9  10
HETATM   10  C   UNL     1       6.793  32.387  62.851  1.00  0.00     0.072 A 
HETATM   11  C   UNL     1       6.906  32.771  64.194  1.00  0.00     0.066 A 
HETATM   12  C   UNL     1       6.561  34.063  64.603  1.00  0.00     0.037 A 
HETATM   13  C   UNL     1       6.079  34.969  63.651  1.00  0.00     0.029 A 
HETATM   14  C   UNL     1       5.955  34.592  62.313  1.00  0.00     0.005 A 
HETATM   15  C   UNL     1       6.314  33.305  61.917  1.00  0.00     0.037 A 
BRANCH  12  16
HETATM   16  N   UNL     1       6.673  34.521  65.934  1.00  0.00    -0.327 N 
HETATM   17  C   UNL     1       5.775  34.332  66.971  1.00  0.00     0.218 C 
HETATM   18  C   UNL     1       6.246  34.952  68.263  1.00  0.00     0.117 C 
HETATM   19  O   UNL     1       4.718  33.712  66.926  1.00  0.00    -0.274 OA
HETATM   20  H   UNL     1       7.523  35.024  66.157  1.00  0.00     0.169 HD
ENDBRANCH  12  16
ENDBRANCH   9  10
ENDBRANCH   8   9
ENDBRANCH   7   8
ENDBRANCH   6   7
ENDBRANCH   5   6
ENDBRANCH   1   5
BRANCH   2  21
HETATM   21  C   UNL     1       7.435  27.543  56.892  1.00  0.00     0.120 A 
HETATM   22  N   UNL     1       6.306  26.879  57.282  1.00  0.00    -0.272 N 
HETATM   23  H   UNL     1       5.609  27.202  57.946  1.00  0.00     0.189 HD
HETATM   24  N   UNL     1       6.146  25.680  56.704  1.00  0.00    -0.174 NA
HETATM   25  C   UNL     1       7.209  25.544  55.895  1.00  0.00     0.089 A 
HETATM   26  C   UNL     1       8.046  26.692  55.994  1.00  0.00     0.071 A 
BRANCH  25  27
HETATM   27  C   UNL     1       7.400  24.347  55.068  1.00  0.00    -0.005 A 
HETATM   28  C   UNL     1       7.390  24.423  53.665  1.00  0.00     0.017 A 
HETATM   29  C   UNL     1       7.570  23.273  52.888  1.00  0.00     0.043 A 
HETATM   30  C   UNL     1       7.762  22.046  53.510  1.00  0.00     0.116 A 
HETATM   31  F   UNL     1       7.934  20.948  52.763  1.00  0.00    -0.206 F 
HETATM   32  C   UNL     1       7.774  21.943  54.894  1.00  0.00     0.043 A 
HETATM   33  C   UNL     1       7.593  23.090  55.670  1.00  0.00     0.017 A 
ENDBRANCH  25  27
ENDBRANCH   2  21
TORSDOF 9
ENDMDL
