MODEL 1
REMARK VINA RESULT:      -9.9      0.000      0.000
REMARK  9 active torsions:
REMARK  status: ('A' for Active; 'I' for Inactive)
REMARK    1  A    between atoms: C_2  and  O_3 
REMARK    2  A    between atoms: O_3  and  C_4 
REMARK    3  A    between atoms: C_5  and  C_6 
REMARK    4  A    between atoms: C_7  and  C_8 
REMARK       I    between atoms: C_8  and  N_9 
REMARK    5  A    between atoms: N_9  and  C_10 
REMARK    6  A    between atoms: C_20  and  S_21 
REMARK    7  A    between atoms: S_21  and  C_22 
REMARK    8  A    between atoms: C_22  and  C_23 
REMARK       I    between atoms: C_23  and  N_24 
REMARK    9  A    between atoms: N_24  and  C_25 
ROOT
HETATM    1  C   UNL     1       5.667  31.674  57.165  1.00  0.00     0.107 A 
HETATM    2  C   UNL     1       6.669  30.822  57.944  1.00  0.00     0.046 A 
HETATM    3  C   UNL     1       6.947  29.555  57.558  1.00  0.00     0.019 A 
HETATM    4  C   UNL     1       8.034  28.683  58.135  1.00  0.00     0.069 C 
HETATM    5  N   UNL     1       6.239  28.984  56.516  1.00  0.00    -0.353 N 
HETATM    6  C   UNL     1       5.251  29.608  55.771  1.00  0.00     0.087 A 
HETATM    7  C   UNL     1       4.987  30.919  56.020  1.00  0.00     0.055 A 
HETATM    8  C   UNL     1       4.028  31.708  55.142  1.00  0.00     0.019 C 
HETATM    9  N   UNL     1       3.234  32.363  54.414  1.00  0.00    -0.096 N 
HETATM   10  H   UNL     1       6.315  27.971  56.444  1.00  0.00     0.166 HD
ENDROOT
BRANCH   1  11
HETATM   11  C   UNL     1       4.663  32.393  58.080  1.00  0.00    -0.011 A 
HETATM   12  C   UNL     1       4.509  33.792  58.109  1.00  0.00     0.076 A 
HETATM   13  C   UNL     1       3.548  34.367  58.951  1.00  0.00     0.037 A 
HETATM   14  C   UNL     1       2.753  33.569  59.774  1.00  0.00     0.003 A 
HETATM   15  C   UNL     1       2.900  32.190  59.758  1.00  0.00     0.001 A 
HETATM   16  C   UNL     1       3.845  31.606  58.918  1.00  0.00     0.011 A 
BRANCH  12  17
HETATM   17  O   UNL     1       5.306  34.510  57.262  1.00  0.00    -0.351 OA
BRANCH  17  18
HETATM   18  C   UNL     1       4.683  35.353  56.293  1.00  0.00     0.171 C 
HETATM   19  C   UNL     1       5.333  35.214  54.926  1.00  0.00     0.034 C 
ENDBRANCH  17  18
ENDBRANCH  12  17
ENDBRANCH   1  11
BRANCH   6  20
HETATM   20  S   UNL     1       4.342  28.784  54.496  1.00  0.00    -0.102 SA
BRANCH  20  21
HETATM   21  C   UNL     1       5.587  28.075  53.394  1.00  0.00     0.184 C 
BRANCH  21  22
HETATM   22  C   UNL     1       5.624  26.560  53.483  1.00  0.00     0.231 C 
HETATM   23  N   UNL     1       6.823  26.059  53.954  1.00  0.00    -0.327 N 
HETATM   24  H   UNL     1       7.545  26.742  54.164  1.00  0.00     0.169 HD
HETATM   25  O   UNL     1       4.638  25.913  53.128  1.00  0.00    -0.272 OA
BRANCH  23  26
HETATM   26  C   UNL     1       7.219  24.707  54.028  1.00  0.00     0.034 A 
HETATM   27  C   UNL     1       7.172  23.943  55.194  1.00  0.00     0.030 A 
HETATM   28  C   UNL     1       7.480  22.576  55.162  1.00  0.00     0.009 A 
HETATM   29  C   UNL     1       7.849  21.955  53.966  1.00  0.00    -0.062 A 
HETATM   30  C   UNL     1       8.143  20.486  53.915  1.00  0.00     0.048 C 
HETATM   31  C   UNL     1       7.936  22.730  52.805  1.00  0.00     0.009 A 
HETATM   32  C   UNL     1       7.627  24.094  52.837  1.00  0.00     0.030 A 
ENDBRANCH  23  26
ENDBRANCH  21  22
ENDBRANCH  20  21
ENDBRANCH   6  20
BRANCH   2  33
HETATM   33  C   UNL     1       7.338  31.509  59.087  1.00  0.00     0.255 C 
HETATM   34  N   UNL     1       6.638  31.405  60.272  1.00  0.00    -0.323 N 
HETATM   35  H   UNL     1       5.840  30.783  60.289  1.00  0.00     0.169 HD
HETATM   36  O   UNL     1       8.392  32.103  58.904  1.00  0.00    -0.268 OA
BRANCH  34  37
HETATM   37  C   UNL     1       6.941  32.042  61.489  1.00  0.00     0.035 A 
HETATM   38  C   UNL     1       7.980  31.630  62.325  1.00  0.00     0.029 A 
HETATM   39  C   UNL     1       8.265  32.342  63.493  1.00  0.00     0.002 A 
HETATM   40  C   UNL     1       7.494  33.449  63.848  1.00  0.00     0.000 A 
HETATM   41  C   UNL     1       6.448  33.856  63.024  1.00  0.00     0.002 A 
HETATM   42  C   UNL     1       6.186  33.168  61.839  1.00  0.00     0.029 A 
ENDBRANCH  34  37
ENDBRANCH   2  33
TORSDOF 9
ENDMDL
MODEL 2
REMARK VINA RESULT:      -9.6      2.880     10.222
REMARK  9 active torsions:
REMARK  status: ('A' for Active; 'I' for Inactive)
REMARK    1  A    between atoms: C_2  and  O_3 
REMARK    2  A    between atoms: O_3  and  C_4 
REMARK    3  A    between atoms: C_5  and  C_6 
REMARK    4  A    between atoms: C_7  and  C_8 
REMARK       I    between atoms: C_8  and  N_9 
REMARK    5  A    between atoms: N_9  and  C_10 
REMARK    6  A    between atoms: C_20  and  S_21 
REMARK    7  A    between atoms: S_21  and  C_22 
REMARK    8  A    between atoms: C_22  and  C_23 
REMARK       I    between atoms: C_23  and  N_24 
REMARK    9  A    between atoms: N_24  and  C_25 
ROOT
HETATM    1  C   UNL     1       5.927  25.978  55.926  1.00  0.00     0.107 A 
HETATM    2  C   UNL     1       7.065  25.173  56.553  1.00  0.00     0.046 A 
HETATM    3  C   UNL     1       7.873  25.727  57.486  1.00  0.00     0.019 A 
HETATM    4  C   UNL     1       8.910  24.989  58.295  1.00  0.00     0.069 C 
HETATM    5  N   UNL     1       7.741  27.068  57.799  1.00  0.00    -0.353 N 
HETATM    6  C   UNL     1       6.809  27.938  57.256  1.00  0.00     0.087 A 
HETATM    7  C   UNL     1       5.886  27.436  56.392  1.00  0.00     0.055 A 
HETATM    8  C   UNL     1       4.741  28.296  55.878  1.00  0.00     0.019 C 
HETATM    9  N   UNL     1       3.792  29.008  55.452  1.00  0.00    -0.096 N 
HETATM   10  H   UNL     1       8.525  27.474  58.306  1.00  0.00     0.166 HD
ENDROOT
BRANCH   1  11
HETATM   11  C   UNL     1       5.878  25.843  54.396  1.00  0.00    -0.011 A 
HETATM   12  C   UNL     1       6.878  26.347  53.543  1.00  0.00     0.076 A 
HETATM   13  C   UNL     1       6.772  26.156  52.160  1.00  0.00     0.037 A 
HETATM   14  C   UNL     1       5.676  25.485  51.615  1.00  0.00     0.003 A 
HETATM   15  C   UNL     1       4.682  24.988  52.445  1.00  0.00     0.001 A 
HETATM   16  C   UNL     1       4.781  25.164  53.823  1.00  0.00     0.011 A 
BRANCH  12  17
HETATM   17  O   UNL     1       7.932  26.975  54.146  1.00  0.00    -0.351 OA
BRANCH  17  18
HETATM   18  C   UNL     1       8.082  28.382  53.960  1.00  0.00     0.171 C 
HETATM   19  C   UNL     1       9.220  28.942  54.798  1.00  0.00     0.034 C 
ENDBRANCH  17  18
ENDBRANCH  12  17
ENDBRANCH   1  11
BRANCH   6  20
HETATM   20  S   UNL     1       6.750  29.659  57.659  1.00  0.00    -0.102 SA
BRANCH  20  21
HETATM   21  C   UNL     1       8.396  30.069  58.282  1.00  0.00     0.184 C 
BRANCH  21  22
HETATM   22  C   UNL     1       8.353  31.197  59.297  1.00  0.00     0.231 C 
HETATM   23  N   UNL     1       7.699  30.864  60.469  1.00  0.00    -0.327 N 
HETATM   24  H   UNL     1       7.305  29.930  60.516  1.00  0.00     0.169 HD
HETATM   25  O   UNL     1       8.860  32.282  59.012  1.00  0.00    -0.272 OA
BRANCH  23  26
HETATM   26  C   UNL     1       7.376  31.720  61.544  1.00  0.00     0.034 A 
HETATM   27  C   UNL     1       6.150  32.370  61.683  1.00  0.00     0.030 A 
HETATM   28  C   UNL     1       5.867  33.117  62.834  1.00  0.00     0.009 A 
HETATM   29  C   UNL     1       6.809  33.233  63.860  1.00  0.00    -0.062 A 
HETATM   30  C   UNL     1       6.501  33.998  65.112  1.00  0.00     0.048 C 
HETATM   31  C   UNL     1       8.054  32.615  63.702  1.00  0.00     0.009 A 
HETATM   32  C   UNL     1       8.335  31.868  62.553  1.00  0.00     0.030 A 
ENDBRANCH  23  26
ENDBRANCH  21  22
ENDBRANCH  20  21
ENDBRANCH   6  20
BRANCH   2  33
HETATM   33  C   UNL     1       7.161  23.752  56.107  1.00  0.00     0.255 C 
HETATM   34  N   UNL     1       8.134  23.544  55.150  1.00  0.00    -0.323 N 
HETATM   35  H   UNL     1       8.759  24.312  54.947  1.00  0.00     0.169 HD
HETATM   36  O   UNL     1       6.401  22.916  56.578  1.00  0.00    -0.268 OA
BRANCH  34  37
HETATM   37  C   UNL     1       8.385  22.350  54.449  1.00  0.00     0.035 A 
HETATM   38  C   UNL     1       9.087  21.277  54.999  1.00  0.00     0.029 A 
HETATM   39  C   UNL     1       9.253  20.099  54.268  1.00  0.00     0.002 A 
HETATM   40  C   UNL     1       8.745  19.996  52.973  1.00  0.00     0.000 A 
HETATM   41  C   UNL     1       8.055  21.069  52.414  1.00  0.00     0.002 A 
HETATM   42  C   UNL     1       7.858  22.234  53.157  1.00  0.00     0.029 A 
ENDBRANCH  34  37
ENDBRANCH   2  33
TORSDOF 9
ENDMDL
MODEL 3
REMARK VINA RESULT:      -9.6      2.743      5.676
REMARK  9 active torsions:
REMARK  status: ('A' for Active; 'I' for Inactive)
REMARK    1  A    between atoms: C_2  and  O_3 
REMARK    2  A    between atoms: O_3  and  C_4 
REMARK    3  A    between atoms: C_5  and  C_6 
REMARK    4  A    between atoms: C_7  and  C_8 
REMARK       I    between atoms: C_8  and  N_9 
REMARK    5  A    between atoms: N_9  and  C_10 
REMARK    6  A    between atoms: C_20  and  S_21 
REMARK    7  A    between atoms: S_21  and  C_22 
REMARK    8  A    between atoms: C_22  and  C_23 
REMARK       I    between atoms: C_23  and  N_24 
REMARK    9  A    between atoms: N_24  and  C_25 
ROOT
HETATM    1  C   UNL     1       6.760  28.835  57.803  1.00  0.00     0.107 A 
HETATM    2  C   UNL     1       5.656  29.846  57.492  1.00  0.00     0.046 A 
HETATM    3  C   UNL     1       4.553  29.475  56.801  1.00  0.00     0.019 A 
HETATM    4  C   UNL     1       3.328  30.329  56.586  1.00  0.00     0.069 C 
HETATM    5  N   UNL     1       4.469  28.199  56.275  1.00  0.00    -0.353 N 
HETATM    6  C   UNL     1       5.424  27.204  56.409  1.00  0.00     0.087 A 
HETATM    7  C   UNL     1       6.515  27.457  57.182  1.00  0.00     0.055 A 
HETATM    8  C   UNL     1       7.523  26.364  57.500  1.00  0.00     0.019 C 
HETATM    9  N   UNL     1       8.360  25.459  57.763  1.00  0.00    -0.096 N 
HETATM   10  H   UNL     1       3.748  28.068  55.567  1.00  0.00     0.166 HD
ENDROOT
BRANCH   1  11
HETATM   11  C   UNL     1       8.164  29.380  57.500  1.00  0.00    -0.011 A 
HETATM   12  C   UNL     1       8.996  29.959  58.477  1.00  0.00     0.076 A 
HETATM   13  C   UNL     1      10.276  30.405  58.124  1.00  0.00     0.037 A 
HETATM   14  C   UNL     1      10.731  30.295  56.809  1.00  0.00     0.003 A 
HETATM   15  C   UNL     1       9.919  29.731  55.837  1.00  0.00     0.001 A 
HETATM   16  C   UNL     1       8.647  29.275  56.178  1.00  0.00     0.011 A 
BRANCH  12  17
HETATM   17  O   UNL     1       8.494  30.016  59.748  1.00  0.00    -0.351 OA
BRANCH  17  18
HETATM   18  C   UNL     1       9.137  30.866  60.695  1.00  0.00     0.171 C 
HETATM   19  C   UNL     1       9.275  30.194  62.052  1.00  0.00     0.034 C 
ENDBRANCH  17  18
ENDBRANCH  12  17
ENDBRANCH   1  11
BRANCH   6  20
HETATM   20  S   UNL     1       5.273  25.616  55.645  1.00  0.00    -0.102 SA
BRANCH  20  21
HETATM   21  C   UNL     1       6.122  25.758  54.056  1.00  0.00     0.184 C 
BRANCH  21  22
HETATM   22  C   UNL     1       5.241  26.399  52.999  1.00  0.00     0.231 C 
HETATM   23  N   UNL     1       5.758  26.317  51.719  1.00  0.00    -0.327 N 
HETATM   24  H   UNL     1       6.663  25.867  51.627  1.00  0.00     0.169 HD
HETATM   25  O   UNL     1       4.189  26.940  53.341  1.00  0.00    -0.272 OA
BRANCH  23  26
HETATM   26  C   UNL     1       5.253  26.923  50.549  1.00  0.00     0.034 A 
HETATM   27  C   UNL     1       4.526  26.245  49.571  1.00  0.00     0.030 A 
HETATM   28  C   UNL     1       3.966  26.940  48.490  1.00  0.00     0.009 A 
HETATM   29  C   UNL     1       4.132  28.322  48.368  1.00  0.00    -0.062 A 
HETATM   30  C   UNL     1       3.504  29.081  47.237  1.00  0.00     0.048 C 
HETATM   31  C   UNL     1       4.896  28.996  49.327  1.00  0.00     0.009 A 
HETATM   32  C   UNL     1       5.454  28.301  50.406  1.00  0.00     0.030 A 
ENDBRANCH  23  26
ENDBRANCH  21  22
ENDBRANCH  20  21
ENDBRANCH   6  20
BRANCH   2  33
HETATM   33  C   UNL     1       5.866  31.212  58.054  1.00  0.00     0.255 C 
HETATM   34  N   UNL     1       5.481  31.324  59.375  1.00  0.00    -0.323 N 
HETATM   35  H   UNL     1       5.231  30.473  59.861  1.00  0.00     0.169 HD
HETATM   36  O   UNL     1       6.320  32.098  57.342  1.00  0.00    -0.268 OA
BRANCH  34  37
HETATM   37  C   UNL     1       5.439  32.501  60.144  1.00  0.00     0.035 A 
HETATM   38  C   UNL     1       4.524  33.529  59.913  1.00  0.00     0.029 A 
HETATM   39  C   UNL     1       4.499  34.648  60.749  1.00  0.00     0.002 A 
HETATM   40  C   UNL     1       5.408  34.760  61.801  1.00  0.00     0.000 A 
HETATM   41  C   UNL     1       6.333  33.743  62.027  1.00  0.00     0.002 A 
HETATM   42  C   UNL     1       6.335  32.609  61.214  1.00  0.00     0.029 A 
ENDBRANCH  34  37
ENDBRANCH   2  33
TORSDOF 9
ENDMDL
MODEL 4
REMARK VINA RESULT:      -9.5      1.988      4.258
REMARK  9 active torsions:
REMARK  status: ('A' for Active; 'I' for Inactive)
REMARK    1  A    between atoms: C_2  and  O_3 
REMARK    2  A    between atoms: O_3  and  C_4 
REMARK    3  A    between atoms: C_5  and  C_6 
REMARK    4  A    between atoms: C_7  and  C_8 
REMARK       I    between atoms: C_8  and  N_9 
REMARK    5  A    between atoms: N_9  and  C_10 
REMARK    6  A    between atoms: C_20  and  S_21 
REMARK    7  A    between atoms: S_21  and  C_22 
REMARK    8  A    between atoms: C_22  and  C_23 
REMARK       I    between atoms: C_23  and  N_24 
REMARK    9  A    between atoms: N_24  and  C_25 
ROOT
HETATM    1  C   UNL     1       6.656  29.414  58.029  1.00  0.00     0.107 A 
HETATM    2  C   UNL     1       5.692  30.597  57.939  1.00  0.00     0.046 A 
HETATM    3  C   UNL     1       4.579  30.527  57.173  1.00  0.00     0.019 A 
HETATM    4  C   UNL     1       3.473  31.551  57.141  1.00  0.00     0.069 C 
HETATM    5  N   UNL     1       4.364  29.417  56.375  1.00  0.00    -0.353 N 
HETATM    6  C   UNL     1       5.188  28.306  56.294  1.00  0.00     0.087 A 
HETATM    7  C   UNL     1       6.272  28.247  57.115  1.00  0.00     0.055 A 
HETATM    8  C   UNL     1       7.131  26.994  57.192  1.00  0.00     0.019 C 
HETATM    9  N   UNL     1       7.844  25.957  57.256  1.00  0.00    -0.096 N 
HETATM   10  H   UNL     1       3.659  29.535  55.650  1.00  0.00     0.166 HD
ENDROOT
BRANCH   1  11
HETATM   11  C   UNL     1       8.125  29.833  57.868  1.00  0.00    -0.011 A 
HETATM   12  C   UNL     1       8.925  30.271  58.940  1.00  0.00     0.076 A 
HETATM   13  C   UNL     1      10.266  30.607  58.714  1.00  0.00     0.037 A 
HETATM   14  C   UNL     1      10.814  30.527  57.433  1.00  0.00     0.003 A 
HETATM   15  C   UNL     1      10.034  30.102  56.368  1.00  0.00     0.001 A 
HETATM   16  C   UNL     1       8.702  29.756  56.583  1.00  0.00     0.011 A 
BRANCH  12  17
HETATM   17  O   UNL     1       8.329  30.305  60.170  1.00  0.00    -0.351 OA
BRANCH  17  18
HETATM   18  C   UNL     1       9.156  30.470  61.322  1.00  0.00     0.171 C 
HETATM   19  C   UNL     1       9.491  31.932  61.569  1.00  0.00     0.034 C 
ENDBRANCH  17  18
ENDBRANCH  12  17
ENDBRANCH   1  11
BRANCH   6  20
HETATM   20  S   UNL     1       4.878  26.955  55.196  1.00  0.00    -0.102 SA
BRANCH  20  21
HETATM   21  C   UNL     1       5.987  27.207  53.791  1.00  0.00     0.184 C 
BRANCH  21  22
HETATM   22  C   UNL     1       6.909  26.020  53.578  1.00  0.00     0.231 C 
HETATM   23  N   UNL     1       6.452  24.850  54.154  1.00  0.00    -0.327 N 
HETATM   24  H   UNL     1       5.578  24.912  54.668  1.00  0.00     0.169 HD
HETATM   25  O   UNL     1       7.959  26.179  52.954  1.00  0.00    -0.272 OA
BRANCH  23  26
HETATM   26  C   UNL     1       7.131  23.616  54.248  1.00  0.00     0.034 A 
HETATM   27  C   UNL     1       7.371  22.947  55.448  1.00  0.00     0.030 A 
HETATM   28  C   UNL     1       7.957  21.674  55.449  1.00  0.00     0.009 A 
HETATM   29  C   UNL     1       8.320  21.056  54.250  1.00  0.00    -0.062 A 
HETATM   30  C   UNL     1       8.912  19.678  54.237  1.00  0.00     0.048 C 
HETATM   31  C   UNL     1       8.117  21.744  53.049  1.00  0.00     0.009 A 
HETATM   32  C   UNL     1       7.531  23.014  53.049  1.00  0.00     0.030 A 
ENDBRANCH  23  26
ENDBRANCH  21  22
ENDBRANCH  20  21
ENDBRANCH   6  20
BRANCH   2  33
HETATM   33  C   UNL     1       6.041  31.770  58.793  1.00  0.00     0.255 C 
HETATM   34  N   UNL     1       5.630  31.633  60.104  1.00  0.00    -0.323 N 
HETATM   35  H   UNL     1       5.268  30.733  60.387  1.00  0.00     0.169 HD
HETATM   36  O   UNL     1       6.618  32.729  58.299  1.00  0.00    -0.268 OA
BRANCH  34  37
HETATM   37  C   UNL     1       5.702  32.608  61.115  1.00  0.00     0.035 A 
HETATM   38  C   UNL     1       5.324  33.937  60.920  1.00  0.00     0.029 A 
HETATM   39  C   UNL     1       5.367  34.843  61.982  1.00  0.00     0.002 A 
HETATM   40  C   UNL     1       5.815  34.433  63.238  1.00  0.00     0.000 A 
HETATM   41  C   UNL     1       6.206  33.111  63.435  1.00  0.00     0.002 A 
HETATM   42  C   UNL     1       6.130  32.197  62.383  1.00  0.00     0.029 A 
ENDBRANCH  34  37
ENDBRANCH   2  33
TORSDOF 9
ENDMDL
MODEL 5
REMARK VINA RESULT:      -9.4      2.570     10.469
REMARK  9 active torsions:
REMARK  status: ('A' for Active; 'I' for Inactive)
REMARK    1  A    between atoms: C_2  and  O_3 
REMARK    2  A    between atoms: O_3  and  C_4 
REMARK    3  A    between atoms: C_5  and  C_6 
REMARK    4  A    between atoms: C_7  and  C_8 
REMARK       I    between atoms: C_8  and  N_9 
REMARK    5  A    between atoms: N_9  and  C_10 
REMARK    6  A    between atoms: C_20  and  S_21 
REMARK    7  A    between atoms: S_21  and  C_22 
REMARK    8  A    between atoms: C_22  and  C_23 
REMARK       I    between atoms: C_23  and  N_24 
REMARK    9  A    between atoms: N_24  and  C_25 
ROOT
HETATM    1  C   UNL     1       6.059  28.781  55.039  1.00  0.00     0.107 A 
HETATM    2  C   UNL     1       4.821  29.373  54.366  1.00  0.00     0.046 A 
HETATM    3  C   UNL     1       4.297  30.546  54.789  1.00  0.00     0.019 A 
HETATM    4  C   UNL     1       3.194  31.311  54.101  1.00  0.00     0.069 C 
HETATM    5  N   UNL     1       4.817  31.164  55.912  1.00  0.00    -0.353 N 
HETATM    6  C   UNL     1       5.884  30.706  56.668  1.00  0.00     0.087 A 
HETATM    7  C   UNL     1       6.540  29.590  56.247  1.00  0.00     0.055 A 
HETATM    8  C   UNL     1       7.811  29.119  56.936  1.00  0.00     0.019 C 
HETATM    9  N   UNL     1       8.864  28.728  57.507  1.00  0.00    -0.096 N 
HETATM   10  H   UNL     1       4.230  31.891  56.318  1.00  0.00     0.166 HD
ENDROOT
BRANCH   1  11
HETATM   11  C   UNL     1       5.905  27.284  55.353  1.00  0.00    -0.011 A 
HETATM   12  C   UNL     1       6.441  26.266  54.543  1.00  0.00     0.076 A 
HETATM   13  C   UNL     1       6.282  24.925  54.916  1.00  0.00     0.037 A 
HETATM   14  C   UNL     1       5.582  24.587  56.075  1.00  0.00     0.003 A 
HETATM   15  C   UNL     1       5.044  25.582  56.878  1.00  0.00     0.001 A 
HETATM   16  C   UNL     1       5.205  26.919  56.522  1.00  0.00     0.011 A 
BRANCH  12  17
HETATM   17  O   UNL     1       7.132  26.670  53.434  1.00  0.00    -0.351 OA
BRANCH  17  18
HETATM   18  C   UNL     1       8.104  25.785  52.878  1.00  0.00     0.171 C 
HETATM   19  C   UNL     1       7.492  24.859  51.840  1.00  0.00     0.034 C 
ENDBRANCH  17  18
ENDBRANCH  12  17
ENDBRANCH   1  11
BRANCH   6  20
HETATM   20  S   UNL     1       6.446  31.520  58.134  1.00  0.00    -0.102 SA
BRANCH  20  21
HETATM   21  C   UNL     1       4.951  31.940  59.060  1.00  0.00     0.184 C 
BRANCH  21  22
HETATM   22  C   UNL     1       5.264  32.760  60.298  1.00  0.00     0.231 C 
HETATM   23  N   UNL     1       5.896  32.041  61.296  1.00  0.00    -0.327 N 
HETATM   24  H   UNL     1       6.059  31.057  61.108  1.00  0.00     0.169 HD
HETATM   25  O   UNL     1       4.931  33.945  60.334  1.00  0.00    -0.272 OA
BRANCH  23  26
HETATM   26  C   UNL     1       6.199  32.473  62.605  1.00  0.00     0.034 A 
HETATM   27  C   UNL     1       7.491  32.738  63.060  1.00  0.00     0.030 A 
HETATM   28  C   UNL     1       7.699  33.268  64.341  1.00  0.00     0.009 A 
HETATM   29  C   UNL     1       6.620  33.532  65.188  1.00  0.00    -0.062 A 
HETATM   30  C   UNL     1       6.830  34.135  66.545  1.00  0.00     0.048 C 
HETATM   31  C   UNL     1       5.328  33.228  64.747  1.00  0.00     0.009 A 
HETATM   32  C   UNL     1       5.120  32.701  63.468  1.00  0.00     0.030 A 
ENDBRANCH  23  26
ENDBRANCH  21  22
ENDBRANCH  20  21
ENDBRANCH   6  20
BRANCH   2  33
HETATM   33  C   UNL     1       4.300  28.601  53.199  1.00  0.00     0.255 C 
HETATM   34  N   UNL     1       5.115  28.674  52.088  1.00  0.00    -0.323 N 
HETATM   35  H   UNL     1       6.021  29.110  52.202  1.00  0.00     0.169 HD
HETATM   36  O   UNL     1       3.235  28.006  53.293  1.00  0.00    -0.268 OA
BRANCH  34  37
HETATM   37  C   UNL     1       4.842  28.161  50.807  1.00  0.00     0.035 A 
HETATM   38  C   UNL     1       4.868  26.798  50.511  1.00  0.00     0.029 A 
HETATM   39  C   UNL     1       4.532  26.351  49.231  1.00  0.00     0.002 A 
HETATM   40  C   UNL     1       4.197  27.264  48.232  1.00  0.00     0.000 A 
HETATM   41  C   UNL     1       4.183  28.627  48.518  1.00  0.00     0.002 A 
HETATM   42  C   UNL     1       4.484  29.073  49.806  1.00  0.00     0.029 A 
ENDBRANCH  34  37
ENDBRANCH   2  33
TORSDOF 9
ENDMDL
MODEL 6
REMARK VINA RESULT:      -9.3      4.499      9.099
REMARK  9 active torsions:
REMARK  status: ('A' for Active; 'I' for Inactive)
REMARK    1  A    between atoms: C_2  and  O_3 
REMARK    2  A    between atoms: O_3  and  C_4 
REMARK    3  A    between atoms: C_5  and  C_6 
REMARK    4  A    between atoms: C_7  and  C_8 
REMARK       I    between atoms: C_8  and  N_9 
REMARK    5  A    between atoms: N_9  and  C_10 
REMARK    6  A    between atoms: C_20  and  S_21 
REMARK    7  A    between atoms: S_21  and  C_22 
REMARK    8  A    between atoms: C_22  and  C_23 
REMARK       I    between atoms: C_23  and  N_24 
REMARK    9  A    between atoms: N_24  and  C_25 
ROOT
HETATM    1  C   UNL     1       6.393  27.533  53.856  1.00  0.00     0.107 A 
HETATM    2  C   UNL     1       6.224  26.491  52.750  1.00  0.00     0.046 A 
HETATM    3  C   UNL     1       5.261  26.629  51.810  1.00  0.00     0.019 A 
HETATM    4  C   UNL     1       5.108  25.769  50.581  1.00  0.00     0.069 C 
HETATM    5  N   UNL     1       4.347  27.663  51.911  1.00  0.00    -0.353 N 
HETATM    6  C   UNL     1       4.328  28.633  52.900  1.00  0.00     0.087 A 
HETATM    7  C   UNL     1       5.329  28.634  53.821  1.00  0.00     0.055 A 
HETATM    8  C   UNL     1       5.460  29.757  54.839  1.00  0.00     0.019 C 
HETATM    9  N   UNL     1       5.569  30.687  55.682  1.00  0.00    -0.096 N 
HETATM   10  H   UNL     1       3.515  27.563  51.332  1.00  0.00     0.166 HD
ENDROOT
BRANCH   1  11
HETATM   11  C   UNL     1       6.545  26.900  55.248  1.00  0.00    -0.011 A 
HETATM   12  C   UNL     1       7.607  27.201  56.122  1.00  0.00     0.076 A 
HETATM   13  C   UNL     1       7.657  26.603  57.387  1.00  0.00     0.037 A 
HETATM   14  C   UNL     1       6.672  25.698  57.786  1.00  0.00     0.003 A 
HETATM   15  C   UNL     1       5.623  25.389  56.932  1.00  0.00     0.001 A 
HETATM   16  C   UNL     1       5.559  25.986  55.675  1.00  0.00     0.011 A 
BRANCH  12  17
HETATM   17  O   UNL     1       8.525  28.111  55.674  1.00  0.00    -0.351 OA
BRANCH  17  18
HETATM   18  C   UNL     1       8.871  29.202  56.525  1.00  0.00     0.171 C 
HETATM   19  C   UNL     1      10.303  29.660  56.298  1.00  0.00     0.034 C 
ENDBRANCH  17  18
ENDBRANCH  12  17
ENDBRANCH   1  11
BRANCH   6  20
HETATM   20  S   UNL     1       3.082  29.884  52.997  1.00  0.00    -0.102 SA
BRANCH  20  21
HETATM   21  C   UNL     1       3.502  31.089  51.717  1.00  0.00     0.184 C 
BRANCH  21  22
HETATM   22  C   UNL     1       3.292  30.530  50.322  1.00  0.00     0.231 C 
HETATM   23  N   UNL     1       2.024  30.021  50.112  1.00  0.00    -0.327 N 
HETATM   24  H   UNL     1       1.389  30.053  50.903  1.00  0.00     0.169 HD
HETATM   25  O   UNL     1       4.227  30.549  49.519  1.00  0.00    -0.272 OA
BRANCH  23  26
HETATM   26  C   UNL     1       1.558  29.318  48.980  1.00  0.00     0.034 A 
HETATM   27  C   UNL     1       1.613  27.931  48.844  1.00  0.00     0.030 A 
HETATM   28  C   UNL     1       1.030  27.301  47.737  1.00  0.00     0.009 A 
HETATM   29  C   UNL     1       0.392  28.048  46.744  1.00  0.00    -0.062 A 
HETATM   30  C   UNL     1      -0.268  27.380  45.575  1.00  0.00     0.048 C 
HETATM   31  C   UNL     1       0.373  29.442  46.859  1.00  0.00     0.009 A 
HETATM   32  C   UNL     1       0.953  30.071  47.966  1.00  0.00     0.030 A 
ENDBRANCH  23  26
ENDBRANCH  21  22
ENDBRANCH  20  21
ENDBRANCH   6  20
BRANCH   2  33
HETATM   33  C   UNL     1       7.224  25.383  52.761  1.00  0.00     0.255 C 
HETATM   34  N   UNL     1       6.778  24.251  53.414  1.00  0.00    -0.323 N 
HETATM   35  H   UNL     1       5.806  24.227  53.693  1.00  0.00     0.169 HD
HETATM   36  O   UNL     1       8.318  25.548  52.238  1.00  0.00    -0.268 OA
BRANCH  34  37
HETATM   37  C   UNL     1       7.523  23.093  53.698  1.00  0.00     0.035 A 
HETATM   38  C   UNL     1       7.582  21.996  52.837  1.00  0.00     0.029 A 
HETATM   39  C   UNL     1       8.387  20.899  53.153  1.00  0.00     0.002 A 
HETATM   40  C   UNL     1       9.112  20.878  54.344  1.00  0.00     0.000 A 
HETATM   41  C   UNL     1       9.047  21.964  55.212  1.00  0.00     0.002 A 
HETATM   42  C   UNL     1       8.271  23.076  54.881  1.00  0.00     0.029 A 
ENDBRANCH  34  37
ENDBRANCH   2  33
TORSDOF 9
ENDMDL
MODEL 7
REMARK VINA RESULT:      -8.8      5.003      9.023
REMARK  9 active torsions:
REMARK  status: ('A' for Active; 'I' for Inactive)
REMARK    1  A    between atoms: C_2  and  O_3 
REMARK    2  A    between atoms: O_3  and  C_4 
REMARK    3  A    between atoms: C_5  and  C_6 
REMARK    4  A    between atoms: C_7  and  C_8 
REMARK       I    between atoms: C_8  and  N_9 
REMARK    5  A    between atoms: N_9  and  C_10 
REMARK    6  A    between atoms: C_20  and  S_21 
REMARK    7  A    between atoms: S_21  and  C_22 
REMARK    8  A    between atoms: C_22  and  C_23 
REMARK       I    between atoms: C_23  and  N_24 
REMARK    9  A    between atoms: N_24  and  C_25 
ROOT
HETATM    1  C   UNL     1       3.802  29.760  51.784  1.00  0.00     0.107 A 
HETATM    2  C   UNL     1       4.189  28.522  50.976  1.00  0.00     0.046 A 
HETATM    3  C   UNL     1       4.889  27.514  51.545  1.00  0.00     0.019 A 
HETATM    4  C   UNL     1       5.175  26.178  50.907  1.00  0.00     0.069 C 
HETATM    5  N   UNL     1       5.356  27.649  52.841  1.00  0.00    -0.353 N 
HETATM    6  C   UNL     1       5.151  28.744  53.665  1.00  0.00     0.087 A 
HETATM    7  C   UNL     1       4.363  29.755  53.209  1.00  0.00     0.055 A 
HETATM    8  C   UNL     1       3.969  30.912  54.114  1.00  0.00     0.019 C 
HETATM    9  N   UNL     1       3.642  31.872  54.863  1.00  0.00    -0.096 N 
HETATM   10  H   UNL     1       6.074  26.981  53.114  1.00  0.00     0.166 HD
ENDROOT
BRANCH   1  11
HETATM   11  C   UNL     1       4.095  31.071  51.038  1.00  0.00    -0.011 A 
HETATM   12  C   UNL     1       3.093  31.981  50.652  1.00  0.00     0.076 A 
HETATM   13  C   UNL     1       3.447  33.170  50.000  1.00  0.00     0.037 A 
HETATM   14  C   UNL     1       4.783  33.454  49.714  1.00  0.00     0.003 A 
HETATM   15  C   UNL     1       5.779  32.562  50.084  1.00  0.00     0.001 A 
HETATM   16  C   UNL     1       5.439  31.382  50.741  1.00  0.00     0.011 A 
BRANCH  12  17
HETATM   17  O   UNL     1       1.809  31.649  50.983  1.00  0.00    -0.351 OA
BRANCH  17  18
HETATM   18  C   UNL     1       0.757  32.532  50.598  1.00  0.00     0.171 C 
HETATM   19  C   UNL     1      -0.484  31.772  50.160  1.00  0.00     0.034 C 
ENDBRANCH  17  18
ENDBRANCH  12  17
ENDBRANCH   1  11
BRANCH   6  20
HETATM   20  S   UNL     1       5.842  28.869  55.288  1.00  0.00    -0.102 SA
BRANCH  20  21
HETATM   21  C   UNL     1       5.540  27.267  56.069  1.00  0.00     0.184 C 
BRANCH  21  22
HETATM   22  C   UNL     1       6.616  26.255  55.719  1.00  0.00     0.231 C 
HETATM   23  N   UNL     1       6.155  25.190  54.968  1.00  0.00    -0.327 N 
HETATM   24  H   UNL     1       5.163  25.185  54.755  1.00  0.00     0.169 HD
HETATM   25  O   UNL     1       7.765  26.434  56.126  1.00  0.00    -0.272 OA
BRANCH  23  26
HETATM   26  C   UNL     1       6.866  24.029  54.598  1.00  0.00     0.034 A 
HETATM   27  C   UNL     1       7.265  23.038  55.495  1.00  0.00     0.030 A 
HETATM   28  C   UNL     1       7.873  21.863  55.034  1.00  0.00     0.009 A 
HETATM   29  C   UNL     1       8.099  21.665  53.669  1.00  0.00    -0.062 A 
HETATM   30  C   UNL     1       8.714  20.394  53.163  1.00  0.00     0.048 C 
HETATM   31  C   UNL     1       7.737  22.676  52.773  1.00  0.00     0.009 A 
HETATM   32  C   UNL     1       7.128  23.848  53.234  1.00  0.00     0.030 A 
ENDBRANCH  23  26
ENDBRANCH  21  22
ENDBRANCH  20  21
ENDBRANCH   6  20
BRANCH   2  33
HETATM   33  C   UNL     1       3.687  28.496  49.571  1.00  0.00     0.255 C 
HETATM   34  N   UNL     1       2.328  28.717  49.472  1.00  0.00    -0.323 N 
HETATM   35  H   UNL     1       1.840  29.002  50.311  1.00  0.00     0.169 HD
HETATM   36  O   UNL     1       4.465  28.273  48.653  1.00  0.00    -0.268 OA
BRANCH  34  37
HETATM   37  C   UNL     1       1.543  28.634  48.308  1.00  0.00     0.035 A 
HETATM   38  C   UNL     1       1.118  29.756  47.595  1.00  0.00     0.029 A 
HETATM   39  C   UNL     1       0.387  29.602  46.414  1.00  0.00     0.002 A 
HETATM   40  C   UNL     1       0.050  28.328  45.957  1.00  0.00     0.000 A 
HETATM   41  C   UNL     1       0.460  27.206  46.672  1.00  0.00     0.002 A 
HETATM   42  C   UNL     1       1.221  27.357  47.832  1.00  0.00     0.029 A 
ENDBRANCH  34  37
ENDBRANCH   2  33
TORSDOF 9
ENDMDL
MODEL 8
REMARK VINA RESULT:      -8.7      4.491      9.304
REMARK  9 active torsions:
REMARK  status: ('A' for Active; 'I' for Inactive)
REMARK    1  A    between atoms: C_2  and  O_3 
REMARK    2  A    between atoms: O_3  and  C_4 
REMARK    3  A    between atoms: C_5  and  C_6 
REMARK    4  A    between atoms: C_7  and  C_8 
REMARK       I    between atoms: C_8  and  N_9 
REMARK    5  A    between atoms: N_9  and  C_10 
REMARK    6  A    between atoms: C_20  and  S_21 
REMARK    7  A    between atoms: S_21  and  C_22 
REMARK    8  A    between atoms: C_22  and  C_23 
REMARK       I    between atoms: C_23  and  N_24 
REMARK    9  A    between atoms: N_24  and  C_25 
ROOT
HETATM    1  C   UNL     1       6.251  27.583  53.817  1.00  0.00     0.107 A 
HETATM    2  C   UNL     1       6.125  26.521  52.726  1.00  0.00     0.046 A 
HETATM    3  C   UNL     1       5.229  26.662  51.722  1.00  0.00     0.019 A 
HETATM    4  C   UNL     1       5.132  25.777  50.504  1.00  0.00     0.069 C 
HETATM    5  N   UNL     1       4.341  27.723  51.740  1.00  0.00    -0.353 N 
HETATM    6  C   UNL     1       4.286  28.717  52.703  1.00  0.00     0.087 A 
HETATM    7  C   UNL     1       5.224  28.712  53.688  1.00  0.00     0.055 A 
HETATM    8  C   UNL     1       5.320  29.855  54.687  1.00  0.00     0.019 C 
HETATM    9  N   UNL     1       5.400  30.802  55.515  1.00  0.00    -0.096 N 
HETATM   10  H   UNL     1       3.546  27.632  51.109  1.00  0.00     0.166 HD
ENDROOT
BRANCH   1  11
HETATM   11  C   UNL     1       6.294  26.981  55.230  1.00  0.00    -0.011 A 
HETATM   12  C   UNL     1       7.372  27.165  56.116  1.00  0.00     0.076 A 
HETATM   13  C   UNL     1       7.320  26.605  57.400  1.00  0.00     0.037 A 
HETATM   14  C   UNL     1       6.216  25.853  57.804  1.00  0.00     0.003 A 
HETATM   15  C   UNL     1       5.150  25.660  56.937  1.00  0.00     0.001 A 
HETATM   16  C   UNL     1       5.187  26.220  55.662  1.00  0.00     0.011 A 
BRANCH  12  17
HETATM   17  O   UNL     1       8.410  27.930  55.662  1.00  0.00    -0.351 OA
BRANCH  17  18
HETATM   18  C   UNL     1       8.642  29.196  56.277  1.00  0.00     0.171 C 
HETATM   19  C   UNL     1       9.982  29.237  56.993  1.00  0.00     0.034 C 
ENDBRANCH  17  18
ENDBRANCH  12  17
ENDBRANCH   1  11
BRANCH   6  20
HETATM   20  S   UNL     1       3.072  30.003  52.690  1.00  0.00    -0.102 SA
BRANCH  20  21
HETATM   21  C   UNL     1       2.477  30.093  50.986  1.00  0.00     0.184 C 
BRANCH  21  22
HETATM   22  C   UNL     1       3.598  30.400  50.010  1.00  0.00     0.231 C 
HETATM   23  N   UNL     1       3.884  31.748  49.899  1.00  0.00    -0.327 N 
HETATM   24  H   UNL     1       3.311  32.378  50.451  1.00  0.00     0.169 HD
HETATM   25  O   UNL     1       4.135  29.474  49.400  1.00  0.00    -0.272 OA
BRANCH  23  26
HETATM   26  C   UNL     1       4.771  32.365  48.990  1.00  0.00     0.034 A 
HETATM   27  C   UNL     1       6.060  32.785  49.320  1.00  0.00     0.030 A 
HETATM   28  C   UNL     1       6.918  33.291  48.335  1.00  0.00     0.009 A 
HETATM   29  C   UNL     1       6.497  33.393  47.006  1.00  0.00    -0.062 A 
HETATM   30  C   UNL     1       7.421  33.896  45.938  1.00  0.00     0.048 C 
HETATM   31  C   UNL     1       5.191  33.011  46.683  1.00  0.00     0.009 A 
HETATM   32  C   UNL     1       4.335  32.505  47.667  1.00  0.00     0.030 A 
ENDBRANCH  23  26
ENDBRANCH  21  22
ENDBRANCH  20  21
ENDBRANCH   6  20
BRANCH   2  33
HETATM   33  C   UNL     1       7.089  25.386  52.827  1.00  0.00     0.255 C 
HETATM   34  N   UNL     1       6.562  24.275  53.454  1.00  0.00    -0.323 N 
HETATM   35  H   UNL     1       5.571  24.281  53.657  1.00  0.00     0.169 HD
HETATM   36  O   UNL     1       8.225  25.515  52.391  1.00  0.00    -0.268 OA
BRANCH  34  37
HETATM   37  C   UNL     1       7.251  23.101  53.808  1.00  0.00     0.035 A 
HETATM   38  C   UNL     1       7.764  22.207  52.868  1.00  0.00     0.029 A 
HETATM   39  C   UNL     1       8.487  21.087  53.285  1.00  0.00     0.002 A 
HETATM   40  C   UNL     1       8.675  20.838  54.644  1.00  0.00     0.000 A 
HETATM   41  C   UNL     1       8.154  21.720  55.587  1.00  0.00     0.002 A 
HETATM   42  C   UNL     1       7.462  22.858  55.171  1.00  0.00     0.029 A 
ENDBRANCH  34  37
ENDBRANCH   2  33
TORSDOF 9
ENDMDL
MODEL 9
REMARK VINA RESULT:      -8.6      2.390      9.630
REMARK  9 active torsions:
REMARK  status: ('A' for Active; 'I' for Inactive)
REMARK    1  A    between atoms: C_2  and  O_3 
REMARK    2  A    between atoms: O_3  and  C_4 
REMARK    3  A    between atoms: C_5  and  C_6 
REMARK    4  A    between atoms: C_7  and  C_8 
REMARK       I    between atoms: C_8  and  N_9 
REMARK    5  A    between atoms: N_9  and  C_10 
REMARK    6  A    between atoms: C_20  and  S_21 
REMARK    7  A    between atoms: S_21  and  C_22 
REMARK    8  A    between atoms: C_22  and  C_23 
REMARK       I    between atoms: C_23  and  N_24 
REMARK    9  A    between atoms: N_24  and  C_25 
ROOT
HETATM    1  C   UNL     1       5.861  29.098  56.553  1.00  0.00     0.107 A 
HETATM    2  C   UNL     1       7.325  28.853  56.190  1.00  0.00     0.046 A 
HETATM    3  C   UNL     1       8.319  29.484  56.858  1.00  0.00     0.019 A 
HETATM    4  C   UNL     1       9.792  29.196  56.710  1.00  0.00     0.069 C 
HETATM    5  N   UNL     1       8.008  30.443  57.804  1.00  0.00    -0.353 N 
HETATM    6  C   UNL     1       6.730  30.825  58.180  1.00  0.00     0.087 A 
HETATM    7  C   UNL     1       5.673  30.162  57.638  1.00  0.00     0.055 A 
HETATM    8  C   UNL     1       4.254  30.420  58.118  1.00  0.00     0.019 C 
HETATM    9  N   UNL     1       3.076  30.634  58.515  1.00  0.00    -0.096 N 
HETATM   10  H   UNL     1       8.780  31.047  58.079  1.00  0.00     0.166 HD
ENDROOT
BRANCH   1  11
HETATM   11  C   UNL     1       4.978  29.348  55.320  1.00  0.00    -0.011 A 
HETATM   12  C   UNL     1       4.767  30.625  54.767  1.00  0.00     0.076 A 
HETATM   13  C   UNL     1       3.971  30.764  53.623  1.00  0.00     0.037 A 
HETATM   14  C   UNL     1       3.371  29.649  53.033  1.00  0.00     0.003 A 
HETATM   15  C   UNL     1       3.568  28.387  53.572  1.00  0.00     0.001 A 
HETATM   16  C   UNL     1       4.366  28.236  54.704  1.00  0.00     0.011 A 
BRANCH  12  17
HETATM   17  O   UNL     1       5.401  31.668  55.384  1.00  0.00    -0.351 OA
BRANCH  17  18
HETATM   18  C   UNL     1       4.883  32.984  55.198  1.00  0.00     0.171 C 
HETATM   19  C   UNL     1       3.578  33.187  55.951  1.00  0.00     0.034 C 
ENDBRANCH  17  18
ENDBRANCH  12  17
ENDBRANCH   1  11
BRANCH   6  20
HETATM   20  S   UNL     1       6.416  32.112  59.352  1.00  0.00    -0.102 SA
BRANCH  20  21
HETATM   21  C   UNL     1       7.864  32.149  60.433  1.00  0.00     0.184 C 
BRANCH  21  22
HETATM   22  C   UNL     1       7.482  32.008  61.896  1.00  0.00     0.231 C 
HETATM   23  N   UNL     1       6.831  33.113  62.410  1.00  0.00    -0.327 N 
HETATM   24  H   UNL     1       6.700  33.895  61.775  1.00  0.00     0.169 HD
HETATM   25  O   UNL     1       7.783  30.976  62.498  1.00  0.00    -0.272 OA
BRANCH  23  26
HETATM   26  C   UNL     1       6.467  33.347  63.753  1.00  0.00     0.034 A 
HETATM   27  C   UNL     1       7.378  33.623  64.772  1.00  0.00     0.030 A 
HETATM   28  C   UNL     1       6.930  33.951  66.058  1.00  0.00     0.009 A 
HETATM   29  C   UNL     1       5.564  34.000  66.347  1.00  0.00    -0.062 A 
HETATM   30  C   UNL     1       5.073  34.388  67.710  1.00  0.00     0.048 C 
HETATM   31  C   UNL     1       4.651  33.683  65.336  1.00  0.00     0.009 A 
HETATM   32  C   UNL     1       5.099  33.357  64.052  1.00  0.00     0.030 A 
ENDBRANCH  23  26
ENDBRANCH  21  22
ENDBRANCH  20  21
ENDBRANCH   6  20
BRANCH   2  33
HETATM   33  C   UNL     1       7.555  27.842  55.116  1.00  0.00     0.255 C 
HETATM   34  N   UNL     1       7.206  26.560  55.489  1.00  0.00    -0.323 N 
HETATM   35  H   UNL     1       6.719  26.446  56.368  1.00  0.00     0.169 HD
HETATM   36  O   UNL     1       8.030  28.194  54.045  1.00  0.00    -0.268 OA
BRANCH  34  37
HETATM   37  C   UNL     1       7.416  25.381  54.751  1.00  0.00     0.035 A 
HETATM   38  C   UNL     1       8.220  24.333  55.203  1.00  0.00     0.029 A 
HETATM   39  C   UNL     1       8.342  23.165  54.446  1.00  0.00     0.002 A 
HETATM   40  C   UNL     1       7.686  23.050  53.221  1.00  0.00     0.000 A 
HETATM   41  C   UNL     1       6.894  24.098  52.759  1.00  0.00     0.002 A 
HETATM   42  C   UNL     1       6.743  25.251  53.531  1.00  0.00     0.029 A 
ENDBRANCH  34  37
ENDBRANCH   2  33
TORSDOF 9
ENDMDL
MODEL 10
REMARK VINA RESULT:      -8.5      2.588      3.931
REMARK  9 active torsions:
REMARK  status: ('A' for Active; 'I' for Inactive)
REMARK    1  A    between atoms: C_2  and  O_3 
REMARK    2  A    between atoms: O_3  and  C_4 
REMARK    3  A    between atoms: C_5  and  C_6 
REMARK    4  A    between atoms: C_7  and  C_8 
REMARK       I    between atoms: C_8  and  N_9 
REMARK    5  A    between atoms: N_9  and  C_10 
REMARK    6  A    between atoms: C_20  and  S_21 
REMARK    7  A    between atoms: S_21  and  C_22 
REMARK    8  A    between atoms: C_22  and  C_23 
REMARK       I    between atoms: C_23  and  N_24 
REMARK    9  A    between atoms: N_24  and  C_25 
ROOT
HETATM    1  C   UNL     1       5.689  33.639  60.378  1.00  0.00     0.107 A 
HETATM    2  C   UNL     1       6.403  33.091  61.613  1.00  0.00     0.046 A 
HETATM    3  C   UNL     1       7.134  31.955  61.544  1.00  0.00     0.019 A 
HETATM    4  C   UNL     1       8.018  31.415  62.640  1.00  0.00     0.069 C 
HETATM    5  N   UNL     1       7.148  31.219  60.372  1.00  0.00    -0.353 N 
HETATM    6  C   UNL     1       6.487  31.550  59.201  1.00  0.00     0.087 A 
HETATM    7  C   UNL     1       5.819  32.734  59.150  1.00  0.00     0.055 A 
HETATM    8  C   UNL     1       5.203  33.233  57.852  1.00  0.00     0.019 C 
HETATM    9  N   UNL     1       4.692  33.648  56.777  1.00  0.00    -0.096 N 
HETATM   10  H   UNL     1       7.500  30.268  60.463  1.00  0.00     0.166 HD
ENDROOT
BRANCH   1  11
HETATM   11  C   UNL     1       4.234  34.043  60.664  1.00  0.00    -0.011 A 
HETATM   12  C   UNL     1       3.749  35.354  60.500  1.00  0.00     0.076 A 
HETATM   13  C   UNL     1       2.400  35.633  60.754  1.00  0.00     0.037 A 
HETATM   14  C   UNL     1       1.534  34.627  61.185  1.00  0.00     0.003 A 
HETATM   15  C   UNL     1       2.001  33.332  61.356  1.00  0.00     0.001 A 
HETATM   16  C   UNL     1       3.339  33.041  61.096  1.00  0.00     0.011 A 
BRANCH  12  17
HETATM   17  O   UNL     1       4.648  36.284  60.055  1.00  0.00    -0.351 OA
BRANCH  17  18
HETATM   18  C   UNL     1       4.170  37.358  59.247  1.00  0.00     0.171 C 
HETATM   19  C   UNL     1       4.512  37.153  57.780  1.00  0.00     0.034 C 
ENDBRANCH  17  18
ENDBRANCH  12  17
ENDBRANCH   1  11
BRANCH   6  20
HETATM   20  S   UNL     1       6.500  30.518  57.765  1.00  0.00    -0.102 SA
BRANCH  20  21
HETATM   21  C   UNL     1       7.798  29.294  58.057  1.00  0.00     0.184 C 
BRANCH  21  22
HETATM   22  C   UNL     1       7.793  28.201  57.003  1.00  0.00     0.231 C 
HETATM   23  N   UNL     1       7.425  26.961  57.491  1.00  0.00    -0.327 N 
HETATM   24  H   UNL     1       7.224  26.909  58.484  1.00  0.00     0.169 HD
HETATM   25  O   UNL     1       8.121  28.478  55.849  1.00  0.00    -0.272 OA
BRANCH  23  26
HETATM   26  C   UNL     1       7.448  25.728  56.805  1.00  0.00     0.034 A 
HETATM   27  C   UNL     1       6.489  25.335  55.872  1.00  0.00     0.030 A 
HETATM   28  C   UNL     1       6.641  24.141  55.154  1.00  0.00     0.009 A 
HETATM   29  C   UNL     1       7.750  23.319  55.364  1.00  0.00    -0.062 A 
HETATM   30  C   UNL     1       7.941  22.059  54.573  1.00  0.00     0.048 C 
HETATM   31  C   UNL     1       8.691  23.692  56.329  1.00  0.00     0.009 A 
HETATM   32  C   UNL     1       8.540  24.884  57.044  1.00  0.00     0.030 A 
ENDBRANCH  23  26
ENDBRANCH  21  22
ENDBRANCH  20  21
ENDBRANCH   6  20
BRANCH   2  33
HETATM   33  C   UNL     1       6.280  33.928  62.844  1.00  0.00     0.255 C 
HETATM   34  N   UNL     1       5.971  33.197  63.973  1.00  0.00    -0.323 N 
HETATM   35  H   UNL     1       5.990  32.189  63.895  1.00  0.00     0.169 HD
HETATM   36  O   UNL     1       6.433  35.140  62.770  1.00  0.00    -0.268 OA
BRANCH  34  37
HETATM   37  C   UNL     1       5.671  33.705  65.250  1.00  0.00     0.035 A 
HETATM   38  C   UNL     1       4.372  33.996  65.667  1.00  0.00     0.029 A 
HETATM   39  C   UNL     1       4.136  34.445  66.968  1.00  0.00     0.002 A 
HETATM   40  C   UNL     1       5.200  34.635  67.850  1.00  0.00     0.000 A 
HETATM   41  C   UNL     1       6.500  34.359  67.434  1.00  0.00     0.002 A 
HETATM   42  C   UNL     1       6.733  33.876  66.146  1.00  0.00     0.029 A 
ENDBRANCH  34  37
ENDBRANCH   2  33
TORSDOF 9
ENDMDL
