MODEL 1
REMARK VINA RESULT:      -9.8      0.000      0.000
REMARK  6 active torsions:
REMARK  status: ('A' for Active; 'I' for Inactive)
REMARK    1  A    between atoms: C_3  and  C_4 
REMARK    2  A    between atoms: C_9  and  O_10 
REMARK    3  A    between atoms: O_10  and  C_11 
REMARK    4  A    between atoms: C_11  and  C_12 
REMARK       I    between atoms: C_12  and  N_13 
REMARK    5  A    between atoms: N_13  and  C_14 
REMARK    6  A    between atoms: C_21  and  C_22 
REMARK       I    between atoms: C_22  and  N_23 
ROOT
HETATM    1  C   UNL     1       6.170  28.231  55.480  1.00  0.00     0.246 C 
HETATM    2  N   UNL     1       7.183  28.003  56.398  1.00  0.00    -0.325 N 
HETATM    3  O   UNL     1       5.791  29.322  55.067  1.00  0.00    -0.271 OA
HETATM    4  H   UNL     1       7.368  27.028  56.607  1.00  0.00     0.169 HD
ENDROOT
BRANCH   2   5
HETATM    5  C   UNL     1       7.984  28.967  57.047  1.00  0.00     0.035 A 
HETATM    6  C   UNL     1       7.543  29.735  58.134  1.00  0.00     0.046 A 
HETATM    7  C   UNL     1       8.407  30.691  58.714  1.00  0.00     0.030 A 
HETATM    8  C   UNL     1       9.679  30.852  58.182  1.00  0.00     0.063 A 
HETATM    9  C   UNL     1       8.334  31.620  59.795  1.00  0.00     0.156 A 
HETATM   10  N   UNL     1      10.260  31.838  58.931  1.00  0.00    -0.277 N 
HETATM   11  C   UNL     1      10.155  30.103  57.104  1.00  0.00     0.034 A 
HETATM   12  H   UNL     1      11.192  32.223  58.821  1.00  0.00     0.189 HD
HETATM   13  N   UNL     1       9.485  32.323  59.914  1.00  0.00    -0.168 NA
HETATM   14  C   UNL     1       9.283  29.153  56.555  1.00  0.00     0.032 A 
BRANCH   9  15
HETATM   15  C   UNL     1       7.205  31.846  60.709  1.00  0.00     0.270 C 
HETATM   16  N   UNL     1       7.239  31.075  61.841  1.00  0.00    -0.365 N 
HETATM   17  H   UNL     1       8.002  30.420  61.959  1.00  0.00     0.159 HD
HETATM   18  H   UNL     1       6.495  31.150  62.515  1.00  0.00     0.159 HD
HETATM   19  O   UNL     1       6.292  32.638  60.513  1.00  0.00    -0.266 OA
ENDBRANCH   9  15
ENDBRANCH   2   5
BRANCH   1  20
HETATM   20  C   UNL     1       5.596  26.945  54.887  1.00  0.00     0.278 C 
BRANCH  20  21
HETATM   21  O   UNL     1       6.383  26.448  53.807  1.00  0.00    -0.342 OA
BRANCH  21  22
HETATM   22  C   UNL     1       6.909  25.201  54.028  1.00  0.00     0.069 A 
HETATM   23  C   UNL     1       6.853  24.314  52.960  1.00  0.00     0.037 A 
HETATM   24  C   UNL     1       7.385  23.026  53.083  1.00  0.00     0.011 A 
HETATM   25  C   UNL     1       7.984  22.592  54.281  1.00  0.00    -0.049 A 
HETATM   26  C   UNL     1       7.992  23.478  55.381  1.00  0.00    -0.053 A 
HETATM   27  C   UNL     1       8.568  23.092  56.719  1.00  0.00     0.049 C 
HETATM   28  C   UNL     1       7.454  24.773  55.239  1.00  0.00     0.044 A 
BRANCH  25  29
HETATM   29  C   UNL     1       8.563  21.184  54.389  1.00  0.00     0.011 C 
HETATM   30  C   UNL     1       7.738  20.338  55.360  1.00  0.00     0.015 C 
HETATM   31  C   UNL     1       8.706  20.465  53.041  1.00  0.00     0.015 C 
ENDBRANCH  25  29
ENDBRANCH  21  22
ENDBRANCH  20  21
ENDBRANCH   1  20
TORSDOF 6
ENDMDL
MODEL 2
REMARK VINA RESULT:      -9.6      4.185     10.405
REMARK  6 active torsions:
REMARK  status: ('A' for Active; 'I' for Inactive)
REMARK    1  A    between atoms: C_3  and  C_4 
REMARK    2  A    between atoms: C_9  and  O_10 
REMARK    3  A    between atoms: O_10  and  C_11 
REMARK    4  A    between atoms: C_11  and  C_12 
REMARK       I    between atoms: C_12  and  N_13 
REMARK    5  A    between atoms: N_13  and  C_14 
REMARK    6  A    between atoms: C_21  and  C_22 
REMARK       I    between atoms: C_22  and  N_23 
ROOT
HETATM    1  C   UNL     1       9.232  31.618  59.979  1.00  0.00     0.246 C 
HETATM    2  N   UNL     1       9.006  30.318  59.556  1.00  0.00    -0.325 N 
HETATM    3  O   UNL     1       9.234  32.624  59.276  1.00  0.00    -0.271 OA
HETATM    4  H   UNL     1       9.026  29.615  60.287  1.00  0.00     0.169 HD
ENDROOT
BRANCH   2   5
HETATM    5  C   UNL     1       8.738  29.878  58.243  1.00  0.00     0.035 A 
HETATM    6  C   UNL     1       7.475  29.446  57.813  1.00  0.00     0.046 A 
HETATM    7  C   UNL     1       7.299  29.006  56.482  1.00  0.00     0.030 A 
HETATM    8  C   UNL     1       8.393  29.006  55.628  1.00  0.00     0.063 A 
HETATM    9  C   UNL     1       6.211  28.522  55.695  1.00  0.00     0.156 A 
HETATM   10  N   UNL     1       7.922  28.524  54.439  1.00  0.00    -0.277 N 
HETATM   11  C   UNL     1       9.665  29.433  56.018  1.00  0.00     0.034 A 
HETATM   12  H   UNL     1       8.448  28.379  53.584  1.00  0.00     0.189 HD
HETATM   13  N   UNL     1       6.612  28.226  54.437  1.00  0.00    -0.168 NA
HETATM   14  C   UNL     1       9.810  29.876  57.340  1.00  0.00     0.032 A 
BRANCH   9  15
HETATM   15  C   UNL     1       4.813  28.343  56.112  1.00  0.00     0.270 C 
HETATM   16  N   UNL     1       4.547  27.121  56.670  1.00  0.00    -0.365 N 
HETATM   17  H   UNL     1       5.300  26.447  56.743  1.00  0.00     0.159 HD
HETATM   18  H   UNL     1       3.611  26.904  56.968  1.00  0.00     0.159 HD
HETATM   19  O   UNL     1       3.931  29.183  55.985  1.00  0.00    -0.266 OA
ENDBRANCH   9  15
ENDBRANCH   2   5
BRANCH   1  20
HETATM   20  C   UNL     1       9.369  31.743  61.496  1.00  0.00     0.278 C 
BRANCH  20  21
HETATM   21  O   UNL     1       8.165  31.397  62.178  1.00  0.00    -0.342 OA
BRANCH  21  22
HETATM   22  C   UNL     1       7.541  32.461  62.780  1.00  0.00     0.069 A 
HETATM   23  C   UNL     1       6.878  33.342  61.933  1.00  0.00     0.037 A 
HETATM   24  C   UNL     1       6.193  34.443  62.457  1.00  0.00     0.011 A 
HETATM   25  C   UNL     1       6.158  34.693  63.842  1.00  0.00    -0.049 A 
HETATM   26  C   UNL     1       6.877  33.825  64.695  1.00  0.00    -0.053 A 
HETATM   27  C   UNL     1       6.938  34.034  66.186  1.00  0.00     0.049 C 
HETATM   28  C   UNL     1       7.560  32.719  64.151  1.00  0.00     0.044 A 
BRANCH  25  29
HETATM   29  C   UNL     1       5.398  35.897  64.391  1.00  0.00     0.011 C 
HETATM   30  C   UNL     1       5.572  37.105  63.468  1.00  0.00     0.015 C 
HETATM   31  C   UNL     1       3.910  35.631  64.647  1.00  0.00     0.015 C 
ENDBRANCH  25  29
ENDBRANCH  21  22
ENDBRANCH  20  21
ENDBRANCH   1  20
TORSDOF 6
ENDMDL
MODEL 3
REMARK VINA RESULT:      -9.5      2.823      5.383
REMARK  6 active torsions:
REMARK  status: ('A' for Active; 'I' for Inactive)
REMARK    1  A    between atoms: C_3  and  C_4 
REMARK    2  A    between atoms: C_9  and  O_10 
REMARK    3  A    between atoms: O_10  and  C_11 
REMARK    4  A    between atoms: C_11  and  C_12 
REMARK       I    between atoms: C_12  and  N_13 
REMARK    5  A    between atoms: N_13  and  C_14 
REMARK    6  A    between atoms: C_21  and  C_22 
REMARK       I    between atoms: C_22  and  N_23 
ROOT
HETATM    1  C   UNL     1       8.530  31.242  59.275  1.00  0.00     0.246 C 
HETATM    2  N   UNL     1       7.703  30.887  60.329  1.00  0.00    -0.325 N 
HETATM    3  O   UNL     1       9.097  32.319  59.124  1.00  0.00    -0.271 OA
HETATM    4  H   UNL     1       7.336  29.942  60.293  1.00  0.00     0.169 HD
ENDROOT
BRANCH   2   5
HETATM    5  C   UNL     1       7.338  31.681  61.437  1.00  0.00     0.035 A 
HETATM    6  C   UNL     1       6.092  32.313  61.560  1.00  0.00     0.046 A 
HETATM    7  C   UNL     1       5.817  33.104  62.697  1.00  0.00     0.030 A 
HETATM    8  C   UNL     1       6.798  33.243  63.669  1.00  0.00     0.063 A 
HETATM    9  C   UNL     1       4.709  33.868  63.174  1.00  0.00     0.156 A 
HETATM   10  N   UNL     1       6.251  34.061  64.619  1.00  0.00    -0.277 N 
HETATM   11  C   UNL     1       8.048  32.625  63.584  1.00  0.00     0.034 A 
HETATM   12  H   UNL     1       6.689  34.385  65.474  1.00  0.00     0.189 HD
HETATM   13  N   UNL     1       4.994  34.455  64.360  1.00  0.00    -0.168 NA
HETATM   14  C   UNL     1       8.292  31.836  62.452  1.00  0.00     0.032 A 
BRANCH   9  15
HETATM   15  C   UNL     1       3.398  34.043  62.532  1.00  0.00     0.270 C 
HETATM   16  N   UNL     1       2.376  33.379  63.157  1.00  0.00    -0.365 N 
HETATM   17  H   UNL     1       2.587  32.825  63.978  1.00  0.00     0.159 HD
HETATM   18  H   UNL     1       1.445  33.428  62.776  1.00  0.00     0.159 HD
HETATM   19  O   UNL     1       3.194  34.709  61.526  1.00  0.00    -0.266 OA
ENDBRANCH   9  15
ENDBRANCH   2   5
BRANCH   1  20
HETATM   20  C   UNL     1       8.805  30.088  58.311  1.00  0.00     0.278 C 
BRANCH  20  21
HETATM   21  O   UNL     1       8.056  28.920  58.639  1.00  0.00    -0.342 OA
BRANCH  21  22
HETATM   22  C   UNL     1       7.844  28.078  57.576  1.00  0.00     0.069 A 
HETATM   23  C   UNL     1       7.657  26.736  57.884  1.00  0.00     0.037 A 
HETATM   24  C   UNL     1       7.410  25.807  56.870  1.00  0.00     0.011 A 
HETATM   25  C   UNL     1       7.348  26.196  55.518  1.00  0.00    -0.049 A 
HETATM   26  C   UNL     1       7.590  27.553  55.203  1.00  0.00    -0.053 A 
HETATM   27  C   UNL     1       7.590  28.060  53.784  1.00  0.00     0.049 C 
HETATM   28  C   UNL     1       7.835  28.477  56.239  1.00  0.00     0.044 A 
BRANCH  25  29
HETATM   29  C   UNL     1       7.071  25.165  54.428  1.00  0.00     0.011 C 
HETATM   30  C   UNL     1       7.677  23.811  54.805  1.00  0.00     0.015 C 
HETATM   31  C   UNL     1       5.584  25.007  54.084  1.00  0.00     0.015 C 
ENDBRANCH  25  29
ENDBRANCH  21  22
ENDBRANCH  20  21
ENDBRANCH   1  20
TORSDOF 6
ENDMDL
MODEL 4
REMARK VINA RESULT:      -9.4      2.845      9.936
REMARK  6 active torsions:
REMARK  status: ('A' for Active; 'I' for Inactive)
REMARK    1  A    between atoms: C_3  and  C_4 
REMARK    2  A    between atoms: C_9  and  O_10 
REMARK    3  A    between atoms: O_10  and  C_11 
REMARK    4  A    between atoms: C_11  and  C_12 
REMARK       I    between atoms: C_12  and  N_13 
REMARK    5  A    between atoms: N_13  and  C_14 
REMARK    6  A    between atoms: C_21  and  C_22 
REMARK       I    between atoms: C_22  and  N_23 
ROOT
HETATM    1  C   UNL     1       8.382  28.649  57.692  1.00  0.00     0.246 C 
HETATM    2  N   UNL     1       7.481  27.599  57.621  1.00  0.00    -0.325 N 
HETATM    3  O   UNL     1       9.450  28.736  57.094  1.00  0.00    -0.271 OA
HETATM    4  H   UNL     1       6.640  27.711  58.176  1.00  0.00     0.169 HD
ENDROOT
BRANCH   2   5
HETATM    5  C   UNL     1       7.600  26.418  56.858  1.00  0.00     0.035 A 
HETATM    6  C   UNL     1       6.901  26.193  55.664  1.00  0.00     0.046 A 
HETATM    7  C   UNL     1       7.067  24.973  54.973  1.00  0.00     0.030 A 
HETATM    8  C   UNL     1       7.922  24.016  55.501  1.00  0.00     0.063 A 
HETATM    9  C   UNL     1       6.561  24.397  53.768  1.00  0.00     0.156 A 
HETATM   10  N   UNL     1       7.865  22.962  54.632  1.00  0.00    -0.277 N 
HETATM   11  C   UNL     1       8.639  24.205  56.685  1.00  0.00     0.034 A 
HETATM   12  H   UNL     1       8.358  22.079  54.705  1.00  0.00     0.189 HD
HETATM   13  N   UNL     1       7.060  23.154  53.574  1.00  0.00    -0.168 NA
HETATM   14  C   UNL     1       8.466  25.429  57.346  1.00  0.00     0.032 A 
BRANCH   9  15
HETATM   15  C   UNL     1       5.626  25.002  52.809  1.00  0.00     0.270 C 
HETATM   16  N   UNL     1       4.340  25.103  53.268  1.00  0.00    -0.365 N 
HETATM   17  H   UNL     1       4.127  24.756  54.196  1.00  0.00     0.159 HD
HETATM   18  H   UNL     1       3.628  25.488  52.670  1.00  0.00     0.159 HD
HETATM   19  O   UNL     1       5.927  25.389  51.687  1.00  0.00    -0.266 OA
ENDBRANCH   9  15
ENDBRANCH   2   5
BRANCH   1  20
HETATM   20  C   UNL     1       7.872  29.824  58.526  1.00  0.00     0.278 C 
BRANCH  20  21
HETATM   21  O   UNL     1       8.700  30.084  59.657  1.00  0.00    -0.342 OA
BRANCH  21  22
HETATM   22  C   UNL     1       8.137  30.934  60.576  1.00  0.00     0.069 A 
HETATM   23  C   UNL     1       8.667  30.887  61.860  1.00  0.00     0.037 A 
HETATM   24  C   UNL     1       8.174  31.732  62.858  1.00  0.00     0.011 A 
HETATM   25  C   UNL     1       7.133  32.645  62.598  1.00  0.00    -0.049 A 
HETATM   26  C   UNL     1       6.562  32.653  61.306  1.00  0.00    -0.053 A 
HETATM   27  C   UNL     1       5.415  33.560  60.941  1.00  0.00     0.049 C 
HETATM   28  C   UNL     1       7.073  31.796  60.311  1.00  0.00     0.044 A 
BRANCH  25  29
HETATM   29  C   UNL     1       6.616  33.562  63.702  1.00  0.00     0.011 C 
HETATM   30  C   UNL     1       5.287  33.041  64.253  1.00  0.00     0.015 C 
HETATM   31  C   UNL     1       7.616  33.788  64.844  1.00  0.00     0.015 C 
ENDBRANCH  25  29
ENDBRANCH  21  22
ENDBRANCH  20  21
ENDBRANCH   1  20
TORSDOF 6
ENDMDL
MODEL 5
REMARK VINA RESULT:      -8.9      1.762      2.287
REMARK  6 active torsions:
REMARK  status: ('A' for Active; 'I' for Inactive)
REMARK    1  A    between atoms: C_3  and  C_4 
REMARK    2  A    between atoms: C_9  and  O_10 
REMARK    3  A    between atoms: O_10  and  C_11 
REMARK    4  A    between atoms: C_11  and  C_12 
REMARK       I    between atoms: C_12  and  N_13 
REMARK    5  A    between atoms: N_13  and  C_14 
REMARK    6  A    between atoms: C_21  and  C_22 
REMARK       I    between atoms: C_22  and  N_23 
ROOT
HETATM    1  C   UNL     1       6.742  28.281  56.127  1.00  0.00     0.246 C 
HETATM    2  N   UNL     1       7.135  29.601  56.283  1.00  0.00    -0.325 N 
HETATM    3  O   UNL     1       6.031  27.636  56.892  1.00  0.00    -0.271 OA
HETATM    4  H   UNL     1       7.713  29.972  55.536  1.00  0.00     0.169 HD
ENDROOT
BRANCH   2   5
HETATM    5  C   UNL     1       6.808  30.473  57.343  1.00  0.00     0.035 A 
HETATM    6  C   UNL     1       7.564  30.582  58.518  1.00  0.00     0.046 A 
HETATM    7  C   UNL     1       7.153  31.470  59.537  1.00  0.00     0.030 A 
HETATM    8  C   UNL     1       5.997  32.214  59.349  1.00  0.00     0.063 A 
HETATM    9  C   UNL     1       7.642  31.857  60.822  1.00  0.00     0.156 A 
HETATM   10  N   UNL     1       5.856  32.955  60.490  1.00  0.00    -0.277 N 
HETATM   11  C   UNL     1       5.221  32.136  58.191  1.00  0.00     0.034 A 
HETATM   12  H   UNL     1       5.114  33.611  60.707  1.00  0.00     0.189 HD
HETATM   13  N   UNL     1       6.828  32.772  61.398  1.00  0.00    -0.168 NA
HETATM   14  C   UNL     1       5.656  31.256  57.191  1.00  0.00     0.032 A 
BRANCH   9  15
HETATM   15  C   UNL     1       8.856  31.382  61.500  1.00  0.00     0.270 C 
HETATM   16  N   UNL     1       8.701  30.190  62.156  1.00  0.00    -0.365 N 
HETATM   17  H   UNL     1       7.793  29.742  62.139  1.00  0.00     0.159 HD
HETATM   18  H   UNL     1       9.477  29.798  62.663  1.00  0.00     0.159 HD
HETATM   19  O   UNL     1       9.930  31.970  61.508  1.00  0.00    -0.266 OA
ENDBRANCH   9  15
ENDBRANCH   2   5
BRANCH   1  20
HETATM   20  C   UNL     1       7.183  27.675  54.795  1.00  0.00     0.278 C 
BRANCH  20  21
HETATM   21  O   UNL     1       6.291  26.659  54.342  1.00  0.00    -0.342 OA
BRANCH  21  22
HETATM   22  C   UNL     1       6.809  25.391  54.414  1.00  0.00     0.069 A 
HETATM   23  C   UNL     1       6.619  24.586  53.297  1.00  0.00     0.037 A 
HETATM   24  C   UNL     1       7.132  23.285  53.269  1.00  0.00     0.011 A 
HETATM   25  C   UNL     1       7.846  22.755  54.361  1.00  0.00    -0.049 A 
HETATM   26  C   UNL     1       7.992  23.558  55.515  1.00  0.00    -0.053 A 
HETATM   27  C   UNL     1       8.699  23.065  56.751  1.00  0.00     0.049 C 
HETATM   28  C   UNL     1       7.471  24.866  55.526  1.00  0.00     0.044 A 
BRANCH  25  29
HETATM   29  C   UNL     1       8.402  21.335  54.304  1.00  0.00     0.011 C 
HETATM   30  C   UNL     1       7.651  20.426  55.279  1.00  0.00     0.015 C 
HETATM   31  C   UNL     1       8.404  20.723  52.897  1.00  0.00     0.015 C 
ENDBRANCH  25  29
ENDBRANCH  21  22
ENDBRANCH  20  21
ENDBRANCH   1  20
TORSDOF 6
ENDMDL
MODEL 6
REMARK VINA RESULT:      -8.7      5.300      8.294
REMARK  6 active torsions:
REMARK  status: ('A' for Active; 'I' for Inactive)
REMARK    1  A    between atoms: C_3  and  C_4 
REMARK    2  A    between atoms: C_9  and  O_10 
REMARK    3  A    between atoms: O_10  and  C_11 
REMARK    4  A    between atoms: C_11  and  C_12 
REMARK       I    between atoms: C_12  and  N_13 
REMARK    5  A    between atoms: N_13  and  C_14 
REMARK    6  A    between atoms: C_21  and  C_22 
REMARK       I    between atoms: C_22  and  N_23 
ROOT
HETATM    1  C   UNL     1       5.276  28.076  53.168  1.00  0.00     0.246 C 
HETATM    2  N   UNL     1       5.710  27.927  51.860  1.00  0.00    -0.325 N 
HETATM    3  O   UNL     1       4.296  28.711  53.543  1.00  0.00    -0.271 OA
HETATM    4  H   UNL     1       6.535  27.348  51.740  1.00  0.00     0.169 HD
ENDROOT
BRANCH   2   5
HETATM    5  C   UNL     1       5.126  28.469  50.696  1.00  0.00     0.035 A 
HETATM    6  C   UNL     1       4.076  27.857  49.998  1.00  0.00     0.046 A 
HETATM    7  C   UNL     1       3.562  28.463  48.830  1.00  0.00     0.030 A 
HETATM    8  C   UNL     1       4.120  29.657  48.396  1.00  0.00     0.063 A 
HETATM    9  C   UNL     1       2.531  28.168  47.888  1.00  0.00     0.156 A 
HETATM   10  N   UNL     1       3.434  29.983  47.258  1.00  0.00    -0.277 N 
HETATM   11  C   UNL     1       5.162  30.300  49.067  1.00  0.00     0.034 A 
HETATM   12  H   UNL     1       3.578  30.793  46.666  1.00  0.00     0.189 HD
HETATM   13  N   UNL     1       2.467  29.114  46.922  1.00  0.00    -0.168 NA
HETATM   14  C   UNL     1       5.647  29.684  50.229  1.00  0.00     0.032 A 
BRANCH   9  15
HETATM   15  C   UNL     1       1.614  27.019  47.892  1.00  0.00     0.270 C 
HETATM   16  N   UNL     1       2.223  25.818  48.138  1.00  0.00    -0.365 N 
HETATM   17  H   UNL     1       3.226  25.802  48.281  1.00  0.00     0.159 HD
HETATM   18  H   UNL     1       1.674  24.974  48.141  1.00  0.00     0.159 HD
HETATM   19  O   UNL     1       0.407  27.085  47.693  1.00  0.00    -0.266 OA
ENDBRANCH   9  15
ENDBRANCH   2   5
BRANCH   1  20
HETATM   20  C   UNL     1       6.081  27.246  54.167  1.00  0.00     0.278 C 
BRANCH  20  21
HETATM   21  O   UNL     1       7.336  26.825  53.634  1.00  0.00    -0.342 OA
BRANCH  21  22
HETATM   22  C   UNL     1       7.613  25.498  53.845  1.00  0.00     0.069 A 
HETATM   23  C   UNL     1       7.556  24.676  52.726  1.00  0.00     0.037 A 
HETATM   24  C   UNL     1       7.846  23.313  52.837  1.00  0.00     0.011 A 
HETATM   25  C   UNL     1       8.197  22.736  54.072  1.00  0.00    -0.049 A 
HETATM   26  C   UNL     1       8.202  23.565  55.217  1.00  0.00    -0.053 A 
HETATM   27  C   UNL     1       8.520  23.034  56.591  1.00  0.00     0.049 C 
HETATM   28  C   UNL     1       7.910  24.937  55.087  1.00  0.00     0.044 A 
BRANCH  25  29
HETATM   29  C   UNL     1       8.516  21.247  54.168  1.00  0.00     0.011 C 
HETATM   30  C   UNL     1       7.593  20.565  55.180  1.00  0.00     0.015 C 
HETATM   31  C   UNL     1       8.467  20.512  52.821  1.00  0.00     0.015 C 
ENDBRANCH  25  29
ENDBRANCH  21  22
ENDBRANCH  20  21
ENDBRANCH   1  20
TORSDOF 6
ENDMDL
MODEL 7
REMARK VINA RESULT:      -8.6      3.039      9.944
REMARK  6 active torsions:
REMARK  status: ('A' for Active; 'I' for Inactive)
REMARK    1  A    between atoms: C_3  and  C_4 
REMARK    2  A    between atoms: C_9  and  O_10 
REMARK    3  A    between atoms: O_10  and  C_11 
REMARK    4  A    between atoms: C_11  and  C_12 
REMARK       I    between atoms: C_12  and  N_13 
REMARK    5  A    between atoms: N_13  and  C_14 
REMARK    6  A    between atoms: C_21  and  C_22 
REMARK       I    between atoms: C_22  and  N_23 
ROOT
HETATM    1  C   UNL     1       8.121  29.164  57.702  1.00  0.00     0.246 C 
HETATM    2  N   UNL     1       7.121  28.548  56.966  1.00  0.00    -0.325 N 
HETATM    3  O   UNL     1       9.329  28.983  57.586  1.00  0.00    -0.271 OA
HETATM    4  H   UNL     1       6.176  28.837  57.192  1.00  0.00     0.169 HD
ENDROOT
BRANCH   2   5
HETATM    5  C   UNL     1       7.278  27.592  55.940  1.00  0.00     0.035 A 
HETATM    6  C   UNL     1       7.504  26.229  56.180  1.00  0.00     0.046 A 
HETATM    7  C   UNL     1       7.666  25.343  55.091  1.00  0.00     0.030 A 
HETATM    8  C   UNL     1       7.604  25.851  53.801  1.00  0.00     0.063 A 
HETATM    9  C   UNL     1       7.892  23.942  54.931  1.00  0.00     0.156 A 
HETATM   10  N   UNL     1       7.806  24.775  52.981  1.00  0.00    -0.277 N 
HETATM   11  C   UNL     1       7.375  27.200  53.523  1.00  0.00     0.034 A 
HETATM   12  H   UNL     1       7.833  24.774  51.967  1.00  0.00     0.189 HD
HETATM   13  N   UNL     1       7.979  23.608  53.622  1.00  0.00    -0.168 NA
HETATM   14  C   UNL     1       7.206  28.056  54.620  1.00  0.00     0.032 A 
BRANCH   9  15
HETATM   15  C   UNL     1       8.020  22.928  55.987  1.00  0.00     0.270 C 
HETATM   16  N   UNL     1       7.632  21.671  55.606  1.00  0.00    -0.365 N 
HETATM   17  H   UNL     1       7.286  21.535  54.663  1.00  0.00     0.159 HD
HETATM   18  H   UNL     1       7.669  20.917  56.271  1.00  0.00     0.159 HD
HETATM   19  O   UNL     1       8.426  23.145  57.122  1.00  0.00    -0.266 OA
ENDBRANCH   9  15
ENDBRANCH   2   5
BRANCH   1  20
HETATM   20  C   UNL     1       7.594  30.241  58.650  1.00  0.00     0.278 C 
BRANCH  20  21
HETATM   21  O   UNL     1       8.437  30.421  59.786  1.00  0.00    -0.342 OA
BRANCH  21  22
HETATM   22  C   UNL     1       7.907  31.245  60.747  1.00  0.00     0.069 A 
HETATM   23  C   UNL     1       8.431  31.110  62.027  1.00  0.00     0.037 A 
HETATM   24  C   UNL     1       7.971  31.923  63.067  1.00  0.00     0.011 A 
HETATM   25  C   UNL     1       6.971  32.891  62.854  1.00  0.00    -0.049 A 
HETATM   26  C   UNL     1       6.404  32.990  61.563  1.00  0.00    -0.053 A 
HETATM   27  C   UNL     1       5.297  33.962  61.245  1.00  0.00     0.049 C 
HETATM   28  C   UNL     1       6.881  32.164  60.526  1.00  0.00     0.044 A 
BRANCH  25  29
HETATM   29  C   UNL     1       6.490  33.771  64.003  1.00  0.00     0.011 C 
HETATM   30  C   UNL     1       5.167  33.244  64.564  1.00  0.00     0.015 C 
HETATM   31  C   UNL     1       7.517  33.941  65.130  1.00  0.00     0.015 C 
ENDBRANCH  25  29
ENDBRANCH  21  22
ENDBRANCH  20  21
ENDBRANCH   1  20
TORSDOF 6
ENDMDL
MODEL 8
REMARK VINA RESULT:      -8.6      2.289      3.901
REMARK  6 active torsions:
REMARK  status: ('A' for Active; 'I' for Inactive)
REMARK    1  A    between atoms: C_3  and  C_4 
REMARK    2  A    between atoms: C_9  and  O_10 
REMARK    3  A    between atoms: O_10  and  C_11 
REMARK    4  A    between atoms: C_11  and  C_12 
REMARK       I    between atoms: C_12  and  N_13 
REMARK    5  A    between atoms: N_13  and  C_14 
REMARK    6  A    between atoms: C_21  and  C_22 
REMARK       I    between atoms: C_22  and  N_23 
ROOT
HETATM    1  C   UNL     1       8.918  30.080  57.892  1.00  0.00     0.246 C 
HETATM    2  N   UNL     1       7.987  30.053  58.918  1.00  0.00    -0.325 N 
HETATM    3  O   UNL     1       9.960  30.728  57.869  1.00  0.00    -0.271 OA
HETATM    4  H   UNL     1       7.192  29.441  58.765  1.00  0.00     0.169 HD
ENDROOT
BRANCH   2   5
HETATM    5  C   UNL     1       8.035  30.759  60.139  1.00  0.00     0.035 A 
HETATM    6  C   UNL     1       6.970  31.524  60.634  1.00  0.00     0.046 A 
HETATM    7  C   UNL     1       7.112  32.213  61.859  1.00  0.00     0.030 A 
HETATM    8  C   UNL     1       8.316  32.119  62.544  1.00  0.00     0.063 A 
HETATM    9  C   UNL     1       6.287  33.051  62.668  1.00  0.00     0.156 A 
HETATM   10  N   UNL     1       8.155  32.889  63.663  1.00  0.00    -0.277 N 
HETATM   11  C   UNL     1       9.397  31.364  62.085  1.00  0.00     0.034 A 
HETATM   12  H   UNL     1       8.837  33.059  64.393  1.00  0.00     0.189 HD
HETATM   13  N   UNL     1       6.946  33.463  63.776  1.00  0.00    -0.168 NA
HETATM   14  C   UNL     1       9.227  30.680  60.873  1.00  0.00     0.032 A 
BRANCH   9  15
HETATM   15  C   UNL     1       4.898  33.459  62.412  1.00  0.00     0.270 C 
HETATM   16  N   UNL     1       4.773  34.489  61.519  1.00  0.00    -0.365 N 
HETATM   17  H   UNL     1       5.613  34.892  61.122  1.00  0.00     0.159 HD
HETATM   18  H   UNL     1       3.858  34.846  61.297  1.00  0.00     0.159 HD
HETATM   19  O   UNL     1       3.912  32.953  62.933  1.00  0.00    -0.266 OA
ENDBRANCH   9  15
ENDBRANCH   2   5
BRANCH   1  20
HETATM   20  C   UNL     1       8.603  29.094  56.767  1.00  0.00     0.278 C 
BRANCH  20  21
HETATM   21  O   UNL     1       7.396  28.372  57.003  1.00  0.00    -0.342 OA
BRANCH  21  22
HETATM   22  C   UNL     1       7.418  27.083  56.536  1.00  0.00     0.069 A 
HETATM   23  C   UNL     1       8.306  26.218  57.165  1.00  0.00     0.037 A 
HETATM   24  C   UNL     1       8.383  24.878  56.774  1.00  0.00     0.011 A 
HETATM   25  C   UNL     1       7.575  24.369  55.739  1.00  0.00    -0.049 A 
HETATM   26  C   UNL     1       6.712  25.263  55.066  1.00  0.00    -0.053 A 
HETATM   27  C   UNL     1       5.841  24.826  53.917  1.00  0.00     0.049 C 
HETATM   28  C   UNL     1       6.645  26.610  55.475  1.00  0.00     0.044 A 
BRANCH  25  29
HETATM   29  C   UNL     1       7.672  22.901  55.334  1.00  0.00     0.011 C 
HETATM   30  C   UNL     1       8.575  22.742  54.109  1.00  0.00     0.015 C 
HETATM   31  C   UNL     1       8.137  21.973  56.463  1.00  0.00     0.015 C 
ENDBRANCH  25  29
ENDBRANCH  21  22
ENDBRANCH  20  21
ENDBRANCH   1  20
TORSDOF 6
ENDMDL
MODEL 9
REMARK VINA RESULT:      -8.6      4.440      9.993
REMARK  6 active torsions:
REMARK  status: ('A' for Active; 'I' for Inactive)
REMARK    1  A    between atoms: C_3  and  C_4 
REMARK    2  A    between atoms: C_9  and  O_10 
REMARK    3  A    between atoms: O_10  and  C_11 
REMARK    4  A    between atoms: C_11  and  C_12 
REMARK       I    between atoms: C_12  and  N_13 
REMARK    5  A    between atoms: N_13  and  C_14 
REMARK    6  A    between atoms: C_21  and  C_22 
REMARK       I    between atoms: C_22  and  N_23 
ROOT
HETATM    1  C   UNL     1       9.351  31.650  59.841  1.00  0.00     0.246 C 
HETATM    2  N   UNL     1       8.543  30.550  59.603  1.00  0.00    -0.325 N 
HETATM    3  O   UNL     1       9.800  32.422  58.999  1.00  0.00    -0.271 OA
HETATM    4  H   UNL     1       8.254  30.037  60.429  1.00  0.00     0.169 HD
ENDROOT
BRANCH   2   5
HETATM    5  C   UNL     1       8.072  30.086  58.356  1.00  0.00     0.035 A 
HETATM    6  C   UNL     1       6.780  30.340  57.873  1.00  0.00     0.046 A 
HETATM    7  C   UNL     1       6.386  29.823  56.619  1.00  0.00     0.030 A 
HETATM    8  C   UNL     1       7.294  29.063  55.894  1.00  0.00     0.063 A 
HETATM    9  C   UNL     1       5.210  29.870  55.812  1.00  0.00     0.156 A 
HETATM   10  N   UNL     1       6.630  28.700  54.755  1.00  0.00    -0.277 N 
HETATM   11  C   UNL     1       8.589  28.793  56.340  1.00  0.00     0.034 A 
HETATM   12  H   UNL     1       6.985  28.132  53.993  1.00  0.00     0.189 HD
HETATM   13  N   UNL     1       5.376  29.170  54.665  1.00  0.00    -0.168 NA
HETATM   14  C   UNL     1       8.960  29.328  57.581  1.00  0.00     0.032 A 
BRANCH   9  15
HETATM   15  C   UNL     1       3.948  30.566  56.105  1.00  0.00     0.270 C 
HETATM   16  N   UNL     1       3.749  31.700  55.364  1.00  0.00    -0.365 N 
HETATM   17  H   UNL     1       4.462  31.977  54.700  1.00  0.00     0.159 HD
HETATM   18  H   UNL     1       2.919  32.250  55.511  1.00  0.00     0.159 HD
HETATM   19  O   UNL     1       3.124  30.201  56.933  1.00  0.00    -0.266 OA
ENDBRANCH   9  15
ENDBRANCH   2   5
BRANCH   1  20
HETATM   20  C   UNL     1       9.566  31.928  61.328  1.00  0.00     0.278 C 
BRANCH  20  21
HETATM   21  O   UNL     1       8.699  31.153  62.154  1.00  0.00    -0.342 OA
BRANCH  21  22
HETATM   22  C   UNL     1       7.672  31.871  62.713  1.00  0.00     0.069 A 
HETATM   23  C   UNL     1       7.988  32.611  63.846  1.00  0.00     0.037 A 
HETATM   24  C   UNL     1       7.012  33.394  64.472  1.00  0.00     0.011 A 
HETATM   25  C   UNL     1       5.694  33.453  63.981  1.00  0.00    -0.049 A 
HETATM   26  C   UNL     1       5.364  32.659  62.860  1.00  0.00    -0.053 A 
HETATM   27  C   UNL     1       3.970  32.618  62.287  1.00  0.00     0.049 C 
HETATM   28  C   UNL     1       6.359  31.878  62.240  1.00  0.00     0.044 A 
BRANCH  25  29
HETATM   29  C   UNL     1       4.648  34.319  64.677  1.00  0.00     0.011 C 
HETATM   30  C   UNL     1       4.617  34.020  66.177  1.00  0.00     0.015 C 
HETATM   31  C   UNL     1       4.826  35.824  64.436  1.00  0.00     0.015 C 
ENDBRANCH  25  29
ENDBRANCH  21  22
ENDBRANCH  20  21
ENDBRANCH   1  20
TORSDOF 6
ENDMDL
MODEL 10
REMARK VINA RESULT:      -8.5      2.229      2.531
REMARK  6 active torsions:
REMARK  status: ('A' for Active; 'I' for Inactive)
REMARK    1  A    between atoms: C_3  and  C_4 
REMARK    2  A    between atoms: C_9  and  O_10 
REMARK    3  A    between atoms: O_10  and  C_11 
REMARK    4  A    between atoms: C_11  and  C_12 
REMARK       I    between atoms: C_12  and  N_13 
REMARK    5  A    between atoms: N_13  and  C_14 
REMARK    6  A    between atoms: C_21  and  C_22 
REMARK       I    between atoms: C_22  and  N_23 
ROOT
HETATM    1  C   UNL     1       6.487  27.756  53.891  1.00  0.00     0.246 C 
HETATM    2  N   UNL     1       6.009  27.789  55.191  1.00  0.00    -0.325 N 
HETATM    3  O   UNL     1       7.272  28.550  53.381  1.00  0.00    -0.271 OA
HETATM    4  H   UNL     1       5.378  27.035  55.440  1.00  0.00     0.169 HD
ENDROOT
BRANCH   2   5
HETATM    5  C   UNL     1       6.318  28.733  56.193  1.00  0.00     0.035 A 
HETATM    6  C   UNL     1       5.619  29.936  56.366  1.00  0.00     0.046 A 
HETATM    7  C   UNL     1       6.007  30.833  57.386  1.00  0.00     0.030 A 
HETATM    8  C   UNL     1       7.084  30.499  58.195  1.00  0.00     0.063 A 
HETATM    9  C   UNL     1       5.558  32.100  57.867  1.00  0.00     0.156 A 
HETATM   10  N   UNL     1       7.223  31.548  59.062  1.00  0.00    -0.277 N 
HETATM   11  C   UNL     1       7.801  29.308  58.058  1.00  0.00     0.034 A 
HETATM   12  H   UNL     1       7.917  31.651  59.794  1.00  0.00     0.189 HD
HETATM   13  N   UNL     1       6.321  32.529  58.899  1.00  0.00    -0.168 NA
HETATM   14  C   UNL     1       7.389  28.431  57.046  1.00  0.00     0.032 A 
BRANCH   9  15
HETATM   15  C   UNL     1       4.427  32.897  57.371  1.00  0.00     0.270 C 
HETATM   16  N   UNL     1       4.795  34.024  56.686  1.00  0.00    -0.365 N 
HETATM   17  H   UNL     1       5.781  34.230  56.583  1.00  0.00     0.159 HD
HETATM   18  H   UNL     1       4.085  34.640  56.325  1.00  0.00     0.159 HD
HETATM   19  O   UNL     1       3.247  32.618  57.537  1.00  0.00    -0.266 OA
ENDBRANCH   9  15
ENDBRANCH   2   5
BRANCH   1  20
HETATM   20  C   UNL     1       6.036  26.518  53.116  1.00  0.00     0.278 C 
BRANCH  20  21
HETATM   21  O   UNL     1       7.135  25.797  52.562  1.00  0.00    -0.342 OA
BRANCH  21  22
HETATM   22  C   UNL     1       7.494  24.687  53.285  1.00  0.00     0.069 A 
HETATM   23  C   UNL     1       7.475  23.478  52.600  1.00  0.00     0.037 A 
HETATM   24  C   UNL     1       7.848  22.295  53.247  1.00  0.00     0.011 A 
HETATM   25  C   UNL     1       8.245  22.293  54.598  1.00  0.00    -0.049 A 
HETATM   26  C   UNL     1       8.212  23.516  55.305  1.00  0.00    -0.053 A 
HETATM   27  C   UNL     1       8.575  23.609  56.765  1.00  0.00     0.049 C 
HETATM   28  C   UNL     1       7.837  24.698  54.637  1.00  0.00     0.044 A 
BRANCH  25  29
HETATM   29  C   UNL     1       8.654  20.990  55.280  1.00  0.00     0.011 C 
HETATM   30  C   UNL     1       7.505  20.448  56.132  1.00  0.00     0.015 C 
HETATM   31  C   UNL     1       9.157  19.912  54.312  1.00  0.00     0.015 C 
ENDBRANCH  25  29
ENDBRANCH  21  22
ENDBRANCH  20  21
ENDBRANCH   1  20
TORSDOF 6
ENDMDL
