MODEL 1
REMARK VINA RESULT:     -10.9      0.000      0.000
REMARK  4 active torsions:
REMARK  status: ('A' for Active; 'I' for Inactive)
REMARK    1  A    between atoms: C_4  and  C_5 
REMARK    2  A    between atoms: C_5  and  N_6 
REMARK    3  A    between atoms: C_9  and  C_10 
REMARK    4  A    between atoms: C_22  and  C_23 
ROOT
HETATM    1  N   UNL     1       6.475  28.780  56.392  1.00  0.00    -0.314 N 
HETATM    2  N   UNL     1       6.775  27.442  56.571  1.00  0.00    -0.203 NA
HETATM    3  C   UNL     1       6.788  26.821  55.322  1.00  0.00     0.041 C 
HETATM    4  C   UNL     1       7.190  25.592  54.964  1.00  0.00     0.044 C 
HETATM    5  C   UNL     1       6.271  27.837  54.370  1.00  0.00     0.015 C 
HETATM    6  C   UNL     1       6.100  28.974  55.077  1.00  0.00     0.119 C 
HETATM    7  H   UNL     1       7.574  27.244  57.181  1.00  0.00     0.153 HD
ENDROOT
BRANCH   4   8
HETATM    8  C   UNL     1       7.670  24.535  55.817  1.00  0.00     0.046 A 
HETATM    9  C   UNL     1       8.046  24.651  57.241  1.00  0.00     0.257 A 
HETATM   10  O   UNL     1       8.148  25.570  58.016  1.00  0.00    -0.267 OA
HETATM   11  N   UNL     1       8.452  23.271  57.727  1.00  0.00    -0.322 N 
HETATM   12  C   UNL     1       8.362  22.518  56.701  1.00  0.00     0.046 A 
HETATM   13  H   UNL     1       8.752  23.066  58.672  1.00  0.00     0.169 HD
HETATM   14  C   UNL     1       7.893  23.247  55.492  1.00  0.00     0.008 A 
HETATM   15  C   UNL     1       8.663  21.083  56.604  1.00  0.00     0.032 A 
HETATM   16  C   UNL     1       7.747  22.524  54.257  1.00  0.00     0.038 A 
HETATM   17  C   UNL     1       8.044  21.213  54.223  1.00  0.00     0.035 A 
HETATM   18  C   UNL     1       8.502  20.497  55.405  1.00  0.00     0.026 A 
HETATM   19 CL   UNL     1       7.893  20.323  52.755  1.00  0.00    -0.084 Cl
ENDBRANCH   4   8
BRANCH   5  20
HETATM   20  C   UNL     1       5.921  27.711  52.958  1.00  0.00    -0.005 A 
HETATM   21  C   UNL     1       5.767  28.837  52.154  1.00  0.00     0.128 A 
HETATM   22  N   UNL     1       5.415  28.801  50.847  1.00  0.00    -0.272 NA
HETATM   23  C   UNL     1       5.245  27.577  50.301  1.00  0.00     0.116 A 
HETATM   24  C   UNL     1       5.393  26.394  51.005  1.00  0.00     0.020 A 
HETATM   25  C   UNL     1       5.731  26.465  52.356  1.00  0.00     0.015 A 
ENDBRANCH   5  20
BRANCH   1  26
HETATM   26  C   UNL     1       6.142  29.646  57.520  1.00  0.00     0.181 C 
BRANCH  26  27
HETATM   27  C   UNL     1       7.385  30.302  58.081  1.00  0.00    -0.039 A 
HETATM   28  C   UNL     1       8.658  29.927  57.621  1.00  0.00     0.009 A 
HETATM   29  C   UNL     1       9.804  30.559  58.104  1.00  0.00     0.001 A 
HETATM   30  C   UNL     1       9.692  31.578  59.048  1.00  0.00     0.000 A 
HETATM   31  C   UNL     1       8.434  31.964  59.510  1.00  0.00     0.001 A 
HETATM   32  C   UNL     1       7.286  31.330  59.029  1.00  0.00     0.009 A 
ENDBRANCH  26  27
ENDBRANCH   1  26
TORSDOF 4
ENDMDL
MODEL 2
REMARK VINA RESULT:     -10.7      2.419      5.808
REMARK  4 active torsions:
REMARK  status: ('A' for Active; 'I' for Inactive)
REMARK    1  A    between atoms: C_4  and  C_5 
REMARK    2  A    between atoms: C_5  and  N_6 
REMARK    3  A    between atoms: C_9  and  C_10 
REMARK    4  A    between atoms: C_22  and  C_23 
ROOT
HETATM    1  N   UNL     1       4.882  27.858  53.843  1.00  0.00    -0.314 N 
HETATM    2  N   UNL     1       5.660  26.740  53.607  1.00  0.00    -0.203 NA
HETATM    3  C   UNL     1       6.703  26.721  54.534  1.00  0.00     0.041 C 
HETATM    4  C   UNL     1       7.600  25.765  54.816  1.00  0.00     0.044 C 
HETATM    5  C   UNL     1       6.629  28.028  55.237  1.00  0.00     0.015 C 
HETATM    6  C   UNL     1       5.527  28.653  54.770  1.00  0.00     0.119 C 
HETATM    7  H   UNL     1       5.148  25.860  53.487  1.00  0.00     0.153 HD
ENDROOT
BRANCH   4   8
HETATM    8  C   UNL     1       7.768  24.490  54.168  1.00  0.00     0.046 A 
HETATM    9  C   UNL     1       7.737  24.226  52.715  1.00  0.00     0.257 A 
HETATM   10  O   UNL     1       7.498  24.895  51.740  1.00  0.00    -0.267 OA
HETATM   11  N   UNL     1       7.999  22.745  52.507  1.00  0.00    -0.322 N 
HETATM   12  C   UNL     1       8.106  22.259  53.681  1.00  0.00     0.046 A 
HETATM   13  H   UNL     1       8.038  22.297  51.600  1.00  0.00     0.169 HD
HETATM   14  C   UNL     1       7.962  23.288  54.745  1.00  0.00     0.008 A 
HETATM   15  C   UNL     1       8.340  20.859  54.061  1.00  0.00     0.032 A 
HETATM   16  C   UNL     1       8.056  22.882  56.122  1.00  0.00     0.038 A 
HETATM   17  C   UNL     1       8.263  21.586  56.413  1.00  0.00     0.035 A 
HETATM   18  C   UNL     1       8.406  20.578  55.374  1.00  0.00     0.026 A 
HETATM   19 CL   UNL     1       8.367  21.068  58.053  1.00  0.00    -0.084 Cl
ENDBRANCH   4   8
BRANCH   5  20
HETATM   20  C   UNL     1       7.547  28.631  56.198  1.00  0.00    -0.005 A 
HETATM   21  C   UNL     1       7.237  28.676  57.555  1.00  0.00     0.128 A 
HETATM   22  N   UNL     1       8.022  29.245  58.499  1.00  0.00    -0.272 NA
HETATM   23  C   UNL     1       9.197  29.761  58.078  1.00  0.00     0.116 A 
HETATM   24  C   UNL     1       9.611  29.750  56.757  1.00  0.00     0.020 A 
HETATM   25  C   UNL     1       8.769  29.180  55.803  1.00  0.00     0.015 A 
ENDBRANCH   5  20
BRANCH   1  26
HETATM   26  C   UNL     1       3.864  28.296  52.893  1.00  0.00     0.181 C 
BRANCH  26  27
HETATM   27  C   UNL     1       4.475  28.568  51.535  1.00  0.00    -0.039 A 
HETATM   28  C   UNL     1       4.269  27.676  50.469  1.00  0.00     0.009 A 
HETATM   29  C   UNL     1       4.795  27.945  49.205  1.00  0.00     0.001 A 
HETATM   30  C   UNL     1       5.527  29.111  48.989  1.00  0.00     0.000 A 
HETATM   31  C   UNL     1       5.736  30.006  50.037  1.00  0.00     0.001 A 
HETATM   32  C   UNL     1       5.213  29.738  51.303  1.00  0.00     0.009 A 
ENDBRANCH  26  27
ENDBRANCH   1  26
TORSDOF 4
ENDMDL
MODEL 3
REMARK VINA RESULT:     -10.7      3.240      7.687
REMARK  4 active torsions:
REMARK  status: ('A' for Active; 'I' for Inactive)
REMARK    1  A    between atoms: C_4  and  C_5 
REMARK    2  A    between atoms: C_5  and  N_6 
REMARK    3  A    between atoms: C_9  and  C_10 
REMARK    4  A    between atoms: C_22  and  C_23 
ROOT
HETATM    1  N   UNL     1       8.012  25.353  57.096  1.00  0.00    -0.314 N 
HETATM    2  N   UNL     1       8.558  26.610  57.281  1.00  0.00    -0.203 NA
HETATM    3  C   UNL     1       7.726  27.548  56.670  1.00  0.00     0.041 C 
HETATM    4  C   UNL     1       7.737  28.889  56.724  1.00  0.00     0.044 C 
HETATM    5  C   UNL     1       6.724  26.754  55.914  1.00  0.00     0.015 C 
HETATM    6  C   UNL     1       6.959  25.458  56.209  1.00  0.00     0.119 C 
HETATM    7  H   UNL     1       8.858  26.828  58.236  1.00  0.00     0.153 HD
ENDROOT
BRANCH   4   8
HETATM    8  C   UNL     1       8.684  29.739  57.399  1.00  0.00     0.046 A 
HETATM    9  C   UNL     1      10.132  29.840  57.126  1.00  0.00     0.257 A 
HETATM   10  O   UNL     1      10.899  29.249  56.406  1.00  0.00    -0.267 OA
HETATM   11  N   UNL     1      10.707  30.892  58.058  1.00  0.00    -0.322 N 
HETATM   12  C   UNL     1       9.724  31.274  58.775  1.00  0.00     0.046 A 
HETATM   13  H   UNL     1      11.682  31.163  58.076  1.00  0.00     0.169 HD
HETATM   14  C   UNL     1       8.452  30.588  58.419  1.00  0.00     0.008 A 
HETATM   15  C   UNL     1       9.727  32.264  59.860  1.00  0.00     0.032 A 
HETATM   16  C   UNL     1       7.257  30.917  59.149  1.00  0.00     0.038 A 
HETATM   17  C   UNL     1       7.319  31.826  60.138  1.00  0.00     0.035 A 
HETATM   18  C   UNL     1       8.561  32.498  60.487  1.00  0.00     0.026 A 
HETATM   19 CL   UNL     1       5.907  32.230  61.040  1.00  0.00    -0.084 Cl
ENDBRANCH   4   8
BRANCH   5  20
HETATM   20  C   UNL     1       5.700  27.189  54.968  1.00  0.00    -0.005 A 
HETATM   21  C   UNL     1       5.566  26.576  53.724  1.00  0.00     0.128 A 
HETATM   22  N   UNL     1       4.663  26.942  52.785  1.00  0.00    -0.272 NA
HETATM   23  C   UNL     1       3.823  27.947  53.115  1.00  0.00     0.116 A 
HETATM   24  C   UNL     1       3.857  28.610  54.330  1.00  0.00     0.020 A 
HETATM   25  C   UNL     1       4.815  28.226  55.267  1.00  0.00     0.015 A 
ENDBRANCH   5  20
BRANCH   1  26
HETATM   26  C   UNL     1       8.767  24.140  57.398  1.00  0.00     0.181 C 
BRANCH  26  27
HETATM   27  C   UNL     1       8.517  23.075  56.352  1.00  0.00    -0.039 A 
HETATM   28  C   UNL     1       8.787  23.330  54.997  1.00  0.00     0.009 A 
HETATM   29  C   UNL     1       8.598  22.338  54.035  1.00  0.00     0.001 A 
HETATM   30  C   UNL     1       8.145  21.076  54.416  1.00  0.00     0.000 A 
HETATM   31  C   UNL     1       7.877  20.808  55.757  1.00  0.00     0.001 A 
HETATM   32  C   UNL     1       8.063  21.802  56.721  1.00  0.00     0.009 A 
ENDBRANCH  26  27
ENDBRANCH   1  26
TORSDOF 4
ENDMDL
MODEL 4
REMARK VINA RESULT:     -10.7      2.836      7.931
REMARK  4 active torsions:
REMARK  status: ('A' for Active; 'I' for Inactive)
REMARK    1  A    between atoms: C_4  and  C_5 
REMARK    2  A    between atoms: C_5  and  N_6 
REMARK    3  A    between atoms: C_9  and  C_10 
REMARK    4  A    between atoms: C_22  and  C_23 
ROOT
HETATM    1  N   UNL     1       7.862  24.564  56.217  1.00  0.00    -0.314 N 
HETATM    2  N   UNL     1       7.211  25.101  55.122  1.00  0.00    -0.203 NA
HETATM    3  C   UNL     1       7.375  26.486  55.144  1.00  0.00     0.041 C 
HETATM    4  C   UNL     1       7.083  27.413  54.220  1.00  0.00     0.044 C 
HETATM    5  C   UNL     1       8.008  26.787  56.454  1.00  0.00     0.015 C 
HETATM    6  C   UNL     1       8.263  25.598  57.040  1.00  0.00     0.119 C 
HETATM    7  H   UNL     1       7.396  24.639  54.225  1.00  0.00     0.153 HD
ENDROOT
BRANCH   4   8
HETATM    8  C   UNL     1       6.442  27.219  52.945  1.00  0.00     0.046 A 
HETATM    9  C   UNL     1       6.716  26.142  51.972  1.00  0.00     0.257 A 
HETATM   10  O   UNL     1       7.527  25.251  51.905  1.00  0.00    -0.267 OA
HETATM   11  N   UNL     1       5.771  26.325  50.798  1.00  0.00    -0.322 N 
HETATM   12  C   UNL     1       5.110  27.382  51.066  1.00  0.00     0.046 A 
HETATM   13  H   UNL     1       5.744  25.716  49.990  1.00  0.00     0.169 HD
HETATM   14  C   UNL     1       5.489  27.982  52.374  1.00  0.00     0.008 A 
HETATM   15  C   UNL     1       4.073  28.030  50.252  1.00  0.00     0.032 A 
HETATM   16  C   UNL     1       4.827  29.183  52.806  1.00  0.00     0.038 A 
HETATM   17  C   UNL     1       3.891  29.739  52.017  1.00  0.00     0.035 A 
HETATM   18  C   UNL     1       3.517  29.153  50.738  1.00  0.00     0.026 A 
HETATM   19 CL   UNL     1       3.090  31.186  52.501  1.00  0.00    -0.084 Cl
ENDBRANCH   4   8
BRANCH   5  20
HETATM   20  C   UNL     1       8.278  28.071  57.094  1.00  0.00    -0.005 A 
HETATM   21  C   UNL     1       7.301  28.717  57.847  1.00  0.00     0.128 A 
HETATM   22  N   UNL     1       7.467  29.920  58.444  1.00  0.00    -0.272 NA
HETATM   23  C   UNL     1       8.682  30.495  58.318  1.00  0.00     0.116 A 
HETATM   24  C   UNL     1       9.729  29.930  57.609  1.00  0.00     0.020 A 
HETATM   25  C   UNL     1       9.520  28.701  56.984  1.00  0.00     0.015 A 
ENDBRANCH   5  20
BRANCH   1  26
HETATM   26  C   UNL     1       7.669  23.172  56.614  1.00  0.00     0.181 C 
BRANCH  26  27
HETATM   27  C   UNL     1       7.970  22.236  55.462  1.00  0.00    -0.039 A 
HETATM   28  C   UNL     1       8.502  20.958  55.704  1.00  0.00     0.009 A 
HETATM   29  C   UNL     1       8.741  20.077  54.649  1.00  0.00     0.001 A 
HETATM   30  C   UNL     1       8.445  20.459  53.342  1.00  0.00     0.000 A 
HETATM   31  C   UNL     1       7.914  21.722  53.089  1.00  0.00     0.001 A 
HETATM   32  C   UNL     1       7.676  22.607  54.143  1.00  0.00     0.009 A 
ENDBRANCH  26  27
ENDBRANCH   1  26
TORSDOF 4
ENDMDL
MODEL 5
REMARK VINA RESULT:     -10.6      2.561      7.081
REMARK  4 active torsions:
REMARK  status: ('A' for Active; 'I' for Inactive)
REMARK    1  A    between atoms: C_4  and  C_5 
REMARK    2  A    between atoms: C_5  and  N_6 
REMARK    3  A    between atoms: C_9  and  C_10 
REMARK    4  A    between atoms: C_22  and  C_23 
ROOT
HETATM    1  N   UNL     1       7.506  25.167  55.368  1.00  0.00    -0.314 N 
HETATM    2  N   UNL     1       7.427  26.405  55.980  1.00  0.00    -0.203 NA
HETATM    3  C   UNL     1       6.715  27.267  55.145  1.00  0.00     0.041 C 
HETATM    4  C   UNL     1       6.235  28.499  55.371  1.00  0.00     0.044 C 
HETATM    5  C   UNL     1       6.534  26.524  53.872  1.00  0.00     0.015 C 
HETATM    6  C   UNL     1       7.034  25.286  54.076  1.00  0.00     0.119 C 
HETATM    7  H   UNL     1       7.144  26.395  56.965  1.00  0.00     0.153 HD
ENDROOT
BRANCH   4   8
HETATM    8  C   UNL     1       6.391  29.306  56.555  1.00  0.00     0.046 A 
HETATM    9  C   UNL     1       5.310  29.888  57.376  1.00  0.00     0.257 A 
HETATM   10  O   UNL     1       4.109  29.944  57.275  1.00  0.00    -0.267 OA
HETATM   11  N   UNL     1       5.955  30.622  58.538  1.00  0.00    -0.322 N 
HETATM   12  C   UNL     1       7.211  30.503  58.350  1.00  0.00     0.046 A 
HETATM   13  H   UNL     1       5.438  31.110  59.259  1.00  0.00     0.169 HD
HETATM   14  C   UNL     1       7.538  29.708  57.136  1.00  0.00     0.008 A 
HETATM   15  C   UNL     1       8.303  31.048  59.169  1.00  0.00     0.032 A 
HETATM   16  C   UNL     1       8.919  29.495  56.796  1.00  0.00     0.038 A 
HETATM   17  C   UNL     1       9.878  30.023  57.576  1.00  0.00     0.035 A 
HETATM   18  C   UNL     1       9.561  30.799  58.765  1.00  0.00     0.026 A 
HETATM   19 CL   UNL     1      11.541  29.796  57.187  1.00  0.00    -0.084 Cl
ENDBRANCH   4   8
BRANCH   5  20
HETATM   20  C   UNL     1       5.999  26.972  52.590  1.00  0.00    -0.005 A 
HETATM   21  C   UNL     1       5.953  28.326  52.266  1.00  0.00     0.128 A 
HETATM   22  N   UNL     1       5.445  28.818  51.112  1.00  0.00    -0.272 NA
HETATM   23  C   UNL     1       4.994  27.915  50.216  1.00  0.00     0.116 A 
HETATM   24  C   UNL     1       5.012  26.546  50.430  1.00  0.00     0.020 A 
HETATM   25  C   UNL     1       5.518  26.071  51.638  1.00  0.00     0.015 A 
ENDBRANCH   5  20
BRANCH   1  26
HETATM   26  C   UNL     1       8.396  24.123  55.868  1.00  0.00     0.181 C 
BRANCH  26  27
HETATM   27  C   UNL     1       8.200  22.834  55.099  1.00  0.00    -0.039 A 
HETATM   28  C   UNL     1       8.416  22.793  53.711  1.00  0.00     0.009 A 
HETATM   29  C   UNL     1       8.278  21.598  53.005  1.00  0.00     0.001 A 
HETATM   30  C   UNL     1       7.930  20.428  53.678  1.00  0.00     0.000 A 
HETATM   31  C   UNL     1       7.716  20.454  55.055  1.00  0.00     0.001 A 
HETATM   32  C   UNL     1       7.851  21.650  55.763  1.00  0.00     0.009 A 
ENDBRANCH  26  27
ENDBRANCH   1  26
TORSDOF 4
ENDMDL
MODEL 6
REMARK VINA RESULT:     -10.5      2.741      7.566
REMARK  4 active torsions:
REMARK  status: ('A' for Active; 'I' for Inactive)
REMARK    1  A    between atoms: C_4  and  C_5 
REMARK    2  A    between atoms: C_5  and  N_6 
REMARK    3  A    between atoms: C_9  and  C_10 
REMARK    4  A    between atoms: C_22  and  C_23 
ROOT
HETATM    1  N   UNL     1       5.337  26.377  52.439  1.00  0.00    -0.314 N 
HETATM    2  N   UNL     1       5.495  26.979  53.674  1.00  0.00    -0.203 NA
HETATM    3  C   UNL     1       6.492  26.298  54.374  1.00  0.00     0.041 C 
HETATM    4  C   UNL     1       7.114  26.604  55.522  1.00  0.00     0.044 C 
HETATM    5  C   UNL     1       6.799  25.097  53.556  1.00  0.00     0.015 C 
HETATM    6  C   UNL     1       6.071  25.208  52.423  1.00  0.00     0.119 C 
HETATM    7  H   UNL     1       5.570  28.002  53.663  1.00  0.00     0.153 HD
ENDROOT
BRANCH   4   8
HETATM    8  C   UNL     1       6.860  27.722  56.395  1.00  0.00     0.046 A 
HETATM    9  C   UNL     1       5.544  28.180  56.885  1.00  0.00     0.257 A 
HETATM   10  O   UNL     1       4.401  27.861  56.661  1.00  0.00    -0.267 OA
HETATM   11  N   UNL     1       5.778  29.364  57.806  1.00  0.00    -0.322 N 
HETATM   12  C   UNL     1       7.038  29.559  57.782  1.00  0.00     0.046 A 
HETATM   13  H   UNL     1       5.040  29.867  58.283  1.00  0.00     0.169 HD
HETATM   14  C   UNL     1       7.755  28.581  56.920  1.00  0.00     0.008 A 
HETATM   15  C   UNL     1       7.805  30.599  58.481  1.00  0.00     0.032 A 
HETATM   16  C   UNL     1       9.184  28.682  56.795  1.00  0.00     0.038 A 
HETATM   17  C   UNL     1       9.835  29.659  57.451  1.00  0.00     0.035 A 
HETATM   18  C   UNL     1       9.136  30.615  58.295  1.00  0.00     0.026 A 
HETATM   19 CL   UNL     1      11.545  29.814  57.309  1.00  0.00    -0.084 Cl
ENDBRANCH   4   8
BRANCH   5  20
HETATM   20  C   UNL     1       7.645  23.947  53.856  1.00  0.00    -0.005 A 
HETATM   21  C   UNL     1       8.344  23.864  55.058  1.00  0.00     0.128 A 
HETATM   22  N   UNL     1       9.170  22.846  55.393  1.00  0.00    -0.272 NA
HETATM   23  C   UNL     1       9.277  21.837  54.502  1.00  0.00     0.116 A 
HETATM   24  C   UNL     1       8.611  21.809  53.288  1.00  0.00     0.020 A 
HETATM   25  C   UNL     1       7.787  22.884  52.960  1.00  0.00     0.015 A 
ENDBRANCH   5  20
BRANCH   1  26
HETATM   26  C   UNL     1       4.205  26.697  51.573  1.00  0.00     0.181 C 
BRANCH  26  27
HETATM   27  C   UNL     1       4.681  27.135  50.205  1.00  0.00    -0.039 A 
HETATM   28  C   UNL     1       4.438  26.334  49.076  1.00  0.00     0.009 A 
HETATM   29  C   UNL     1       4.836  26.753  47.806  1.00  0.00     0.001 A 
HETATM   30  C   UNL     1       5.476  27.981  47.648  1.00  0.00     0.000 A 
HETATM   31  C   UNL     1       5.720  28.788  48.759  1.00  0.00     0.001 A 
HETATM   32  C   UNL     1       5.324  28.368  50.031  1.00  0.00     0.009 A 
ENDBRANCH  26  27
ENDBRANCH   1  26
TORSDOF 4
ENDMDL
MODEL 7
REMARK VINA RESULT:     -10.3      2.682      6.281
REMARK  4 active torsions:
REMARK  status: ('A' for Active; 'I' for Inactive)
REMARK    1  A    between atoms: C_4  and  C_5 
REMARK    2  A    between atoms: C_5  and  N_6 
REMARK    3  A    between atoms: C_9  and  C_10 
REMARK    4  A    between atoms: C_22  and  C_23 
ROOT
HETATM    1  N   UNL     1       6.245  27.946  55.321  1.00  0.00    -0.314 N 
HETATM    2  N   UNL     1       6.030  28.137  53.968  1.00  0.00    -0.203 NA
HETATM    3  C   UNL     1       6.181  26.911  53.319  1.00  0.00     0.041 C 
HETATM    4  C   UNL     1       5.906  26.556  52.055  1.00  0.00     0.044 C 
HETATM    5  C   UNL     1       6.708  25.981  54.349  1.00  0.00     0.015 C 
HETATM    6  C   UNL     1       6.726  26.667  55.512  1.00  0.00     0.119 C 
HETATM    7  H   UNL     1       5.194  28.677  53.723  1.00  0.00     0.153 HD
ENDROOT
BRANCH   4   8
HETATM    8  C   UNL     1       5.428  27.393  50.984  1.00  0.00     0.046 A 
HETATM    9  C   UNL     1       5.620  28.851  50.850  1.00  0.00     0.257 A 
HETATM   10  O   UNL     1       6.095  29.709  51.552  1.00  0.00    -0.267 OA
HETATM   11  N   UNL     1       4.975  29.285  49.545  1.00  0.00    -0.322 N 
HETATM   12  C   UNL     1       4.459  28.224  49.061  1.00  0.00     0.046 A 
HETATM   13  H   UNL     1       4.966  30.238  49.205  1.00  0.00     0.169 HD
HETATM   14  C   UNL     1       4.699  27.027  49.912  1.00  0.00     0.008 A 
HETATM   15  C   UNL     1       3.690  28.079  47.817  1.00  0.00     0.032 A 
HETATM   16  C   UNL     1       4.170  25.758  49.491  1.00  0.00     0.038 A 
HETATM   17  C   UNL     1       3.467  25.684  48.347  1.00  0.00     0.035 A 
HETATM   18  C   UNL     1       3.232  26.852  47.513  1.00  0.00     0.026 A 
HETATM   19 CL   UNL     1       2.809  24.180  47.825  1.00  0.00    -0.084 Cl
ENDBRANCH   4   8
BRANCH   5  20
HETATM   20  C   UNL     1       7.198  24.612  54.217  1.00  0.00    -0.005 A 
HETATM   21  C   UNL     1       7.085  23.706  55.268  1.00  0.00     0.128 A 
HETATM   22  N   UNL     1       7.542  22.432  55.231  1.00  0.00    -0.272 NA
HETATM   23  C   UNL     1       8.106  22.026  54.074  1.00  0.00     0.116 A 
HETATM   24  C   UNL     1       8.250  22.839  52.962  1.00  0.00     0.020 A 
HETATM   25  C   UNL     1       7.792  24.154  53.039  1.00  0.00     0.015 A 
ENDBRANCH   5  20
BRANCH   1  26
HETATM   26  C   UNL     1       6.405  29.073  56.235  1.00  0.00     0.181 C 
BRANCH  26  27
HETATM   27  C   UNL     1       7.865  29.300  56.562  1.00  0.00    -0.039 A 
HETATM   28  C   UNL     1       8.835  29.273  55.545  1.00  0.00     0.009 A 
HETATM   29  C   UNL     1      10.177  29.523  55.835  1.00  0.00     0.001 A 
HETATM   30  C   UNL     1      10.564  29.809  57.142  1.00  0.00     0.000 A 
HETATM   31  C   UNL     1       9.613  29.843  58.160  1.00  0.00     0.001 A 
HETATM   32  C   UNL     1       8.269  29.590  57.872  1.00  0.00     0.009 A 
ENDBRANCH  26  27
ENDBRANCH   1  26
TORSDOF 4
ENDMDL
MODEL 8
REMARK VINA RESULT:     -10.2      3.933      7.604
REMARK  4 active torsions:
REMARK  status: ('A' for Active; 'I' for Inactive)
REMARK    1  A    between atoms: C_4  and  C_5 
REMARK    2  A    between atoms: C_5  and  N_6 
REMARK    3  A    between atoms: C_9  and  C_10 
REMARK    4  A    between atoms: C_22  and  C_23 
ROOT
HETATM    1  N   UNL     1       7.118  25.165  52.767  1.00  0.00    -0.314 N 
HETATM    2  N   UNL     1       6.562  26.130  53.586  1.00  0.00    -0.203 NA
HETATM    3  C   UNL     1       5.550  26.781  52.878  1.00  0.00     0.041 C 
HETATM    4  C   UNL     1       4.621  27.656  53.293  1.00  0.00     0.044 C 
HETATM    5  C   UNL     1       5.658  26.280  51.484  1.00  0.00     0.015 C 
HETATM    6  C   UNL     1       6.615  25.327  51.492  1.00  0.00     0.119 C 
HETATM    7  H   UNL     1       6.324  25.825  54.535  1.00  0.00     0.153 HD
ENDROOT
BRANCH   4   8
HETATM    8  C   UNL     1       4.462  28.220  54.609  1.00  0.00     0.046 A 
HETATM    9  C   UNL     1       4.809  27.579  55.893  1.00  0.00     0.257 A 
HETATM   10  O   UNL     1       5.197  26.482  56.212  1.00  0.00    -0.267 OA
HETATM   11  N   UNL     1       4.503  28.568  57.003  1.00  0.00    -0.322 N 
HETATM   12  C   UNL     1       4.010  29.587  56.414  1.00  0.00     0.046 A 
HETATM   13  H   UNL     1       4.653  28.384  57.987  1.00  0.00     0.169 HD
HETATM   14  C   UNL     1       3.952  29.423  54.936  1.00  0.00     0.008 A 
HETATM   15  C   UNL     1       3.518  30.832  57.019  1.00  0.00     0.032 A 
HETATM   16  C   UNL     1       3.415  30.493  54.139  1.00  0.00     0.038 A 
HETATM   17  C   UNL     1       2.971  31.608  54.746  1.00  0.00     0.035 A 
HETATM   18  C   UNL     1       3.028  31.770  56.191  1.00  0.00     0.026 A 
HETATM   19 CL   UNL     1       2.309  32.900  53.819  1.00  0.00    -0.084 Cl
ENDBRANCH   4   8
BRANCH   5  20
HETATM   20  C   UNL     1       4.966  26.713  50.274  1.00  0.00    -0.005 A 
HETATM   21  C   UNL     1       5.066  28.026  49.821  1.00  0.00     0.128 A 
HETATM   22  N   UNL     1       4.430  28.507  48.728  1.00  0.00    -0.272 NA
HETATM   23  C   UNL     1       3.687  27.626  48.024  1.00  0.00     0.116 A 
HETATM   24  C   UNL     1       3.538  26.295  48.374  1.00  0.00     0.020 A 
HETATM   25  C   UNL     1       4.185  25.835  49.520  1.00  0.00     0.015 A 
ENDBRANCH   5  20
BRANCH   1  26
HETATM   26  C   UNL     1       8.360  24.484  53.124  1.00  0.00     0.181 C 
BRANCH  26  27
HETATM   27  C   UNL     1       8.076  23.129  53.735  1.00  0.00    -0.039 A 
HETATM   28  C   UNL     1       8.071  21.974  52.935  1.00  0.00     0.009 A 
HETATM   29  C   UNL     1       7.851  20.717  53.500  1.00  0.00     0.001 A 
HETATM   30  C   UNL     1       7.641  20.599  54.872  1.00  0.00     0.000 A 
HETATM   31  C   UNL     1       7.647  21.736  55.679  1.00  0.00     0.001 A 
HETATM   32  C   UNL     1       7.864  22.995  55.114  1.00  0.00     0.009 A 
ENDBRANCH  26  27
ENDBRANCH   1  26
TORSDOF 4
ENDMDL
MODEL 9
REMARK VINA RESULT:      -9.9      2.612      6.139
REMARK  4 active torsions:
REMARK  status: ('A' for Active; 'I' for Inactive)
REMARK    1  A    between atoms: C_4  and  C_5 
REMARK    2  A    between atoms: C_5  and  N_6 
REMARK    3  A    between atoms: C_9  and  C_10 
REMARK    4  A    between atoms: C_22  and  C_23 
ROOT
HETATM    1  N   UNL     1       6.453  27.562  56.633  1.00  0.00    -0.314 N 
HETATM    2  N   UNL     1       5.855  27.992  55.463  1.00  0.00    -0.203 NA
HETATM    3  C   UNL     1       5.844  26.932  54.556  1.00  0.00     0.041 C 
HETATM    4  C   UNL     1       5.228  26.805  53.371  1.00  0.00     0.044 C 
HETATM    5  C   UNL     1       6.669  25.868  55.183  1.00  0.00     0.015 C 
HETATM    6  C   UNL     1       7.002  26.315  56.413  1.00  0.00     0.119 C 
HETATM    7  H   UNL     1       4.970  28.497  55.576  1.00  0.00     0.153 HD
ENDROOT
BRANCH   4   8
HETATM    8  C   UNL     1       4.442  27.790  52.673  1.00  0.00     0.046 A 
HETATM    9  C   UNL     1       3.658  28.886  53.279  1.00  0.00     0.257 A 
HETATM   10  O   UNL     1       3.386  29.205  54.410  1.00  0.00    -0.267 OA
HETATM   11  N   UNL     1       3.032  29.687  52.151  1.00  0.00    -0.322 N 
HETATM   12  C   UNL     1       3.381  29.084  51.082  1.00  0.00     0.046 A 
HETATM   13  H   UNL     1       2.446  30.500  52.288  1.00  0.00     0.169 HD
HETATM   14  C   UNL     1       4.244  27.901  51.345  1.00  0.00     0.008 A 
HETATM   15  C   UNL     1       3.029  29.424  49.696  1.00  0.00     0.032 A 
HETATM   16  C   UNL     1       4.711  27.120  50.231  1.00  0.00     0.038 A 
HETATM   17  C   UNL     1       4.352  27.472  48.984  1.00  0.00     0.035 A 
HETATM   18  C   UNL     1       3.510  28.629  48.724  1.00  0.00     0.026 A 
HETATM   19 CL   UNL     1       4.885  26.548  47.631  1.00  0.00    -0.084 Cl
ENDBRANCH   4   8
BRANCH   5  20
HETATM   20  C   UNL     1       7.135  24.596  54.638  1.00  0.00    -0.005 A 
HETATM   21  C   UNL     1       7.165  23.447  55.424  1.00  0.00     0.128 A 
HETATM   22  N   UNL     1       7.612  22.242  54.999  1.00  0.00    -0.272 NA
HETATM   23  C   UNL     1       8.013  22.166  53.712  1.00  0.00     0.116 A 
HETATM   24  C   UNL     1       8.005  23.242  52.840  1.00  0.00     0.020 A 
HETATM   25  C   UNL     1       7.563  24.476  53.314  1.00  0.00     0.015 A 
ENDBRANCH   5  20
BRANCH   1  26
HETATM   26  C   UNL     1       6.840  28.501  57.683  1.00  0.00     0.181 C 
BRANCH  26  27
HETATM   27  C   UNL     1       8.201  29.097  57.398  1.00  0.00    -0.039 A 
HETATM   28  C   UNL     1       8.779  28.978  56.123  1.00  0.00     0.009 A 
HETATM   29  C   UNL     1      10.014  29.562  55.843  1.00  0.00     0.001 A 
HETATM   30  C   UNL     1      10.684  30.279  56.833  1.00  0.00     0.000 A 
HETATM   31  C   UNL     1      10.122  30.409  58.101  1.00  0.00     0.001 A 
HETATM   32  C   UNL     1       8.886  29.822  58.383  1.00  0.00     0.009 A 
ENDBRANCH  26  27
ENDBRANCH   1  26
TORSDOF 4
ENDMDL
MODEL 10
REMARK VINA RESULT:      -9.8      2.345      6.025
REMARK  4 active torsions:
REMARK  status: ('A' for Active; 'I' for Inactive)
REMARK    1  A    between atoms: C_4  and  C_5 
REMARK    2  A    between atoms: C_5  and  N_6 
REMARK    3  A    between atoms: C_9  and  C_10 
REMARK    4  A    between atoms: C_22  and  C_23 
ROOT
HETATM    1  N   UNL     1       6.951  25.513  56.656  1.00  0.00    -0.314 N 
HETATM    2  N   UNL     1       6.767  26.199  55.469  1.00  0.00    -0.203 NA
HETATM    3  C   UNL     1       6.814  25.283  54.417  1.00  0.00     0.041 C 
HETATM    4  C   UNL     1       6.520  25.435  53.117  1.00  0.00     0.044 C 
HETATM    5  C   UNL     1       7.246  24.000  55.029  1.00  0.00     0.015 C 
HETATM    6  C   UNL     1       7.314  24.214  56.360  1.00  0.00     0.119 C 
HETATM    7  H   UNL     1       5.985  26.861  55.456  1.00  0.00     0.153 HD
ENDROOT
BRANCH   4   8
HETATM    8  C   UNL     1       6.129  26.641  52.433  1.00  0.00     0.046 A 
HETATM    9  C   UNL     1       6.432  28.027  52.843  1.00  0.00     0.257 A 
HETATM   10  O   UNL     1       6.955  28.527  53.809  1.00  0.00    -0.267 OA
HETATM   11  N   UNL     1       5.850  28.958  51.795  1.00  0.00    -0.322 N 
HETATM   12  C   UNL     1       5.267  28.193  50.958  1.00  0.00     0.046 A 
HETATM   13  H   UNL     1       5.920  29.968  51.830  1.00  0.00     0.169 HD
HETATM   14  C   UNL     1       5.399  26.753  51.307  1.00  0.00     0.008 A 
HETATM   15  C   UNL     1       4.517  28.576  49.753  1.00  0.00     0.032 A 
HETATM   16  C   UNL     1       4.786  25.772  50.452  1.00  0.00     0.038 A 
HETATM   17  C   UNL     1       4.104  26.178  49.367  1.00  0.00     0.035 A 
HETATM   18  C   UNL     1       3.976  27.586  49.022  1.00  0.00     0.026 A 
HETATM   19 CL   UNL     1       3.347  25.027  48.331  1.00  0.00    -0.084 Cl
ENDBRANCH   4   8
BRANCH   5  20
HETATM   20  C   UNL     1       7.611  22.735  54.399  1.00  0.00    -0.005 A 
HETATM   21  C   UNL     1       7.719  21.566  55.148  1.00  0.00     0.128 A 
HETATM   22  N   UNL     1       8.083  20.365  54.642  1.00  0.00    -0.272 NA
HETATM   23  C   UNL     1       8.314  20.314  53.312  1.00  0.00     0.116 A 
HETATM   24  C   UNL     1       8.215  21.412  52.473  1.00  0.00     0.020 A 
HETATM   25  C   UNL     1       7.863  22.641  53.029  1.00  0.00     0.015 A 
ENDBRANCH   5  20
BRANCH   1  26
HETATM   26  C   UNL     1       7.203  26.213  57.912  1.00  0.00     0.181 C 
BRANCH  26  27
HETATM   27  C   UNL     1       7.443  27.688  57.668  1.00  0.00    -0.039 A 
HETATM   28  C   UNL     1       8.736  28.162  57.390  1.00  0.00     0.009 A 
HETATM   29  C   UNL     1       8.956  29.514  57.123  1.00  0.00     0.001 A 
HETATM   30  C   UNL     1       7.886  30.406  57.123  1.00  0.00     0.000 A 
HETATM   31  C   UNL     1       6.598  29.949  57.394  1.00  0.00     0.001 A 
HETATM   32  C   UNL     1       6.376  28.596  57.664  1.00  0.00     0.009 A 
ENDBRANCH  26  27
ENDBRANCH   1  26
TORSDOF 4
ENDMDL
