MODEL 1
REMARK VINA RESULT:      -9.1      0.000      0.000
REMARK  8 active torsions:
REMARK  status: ('A' for Active; 'I' for Inactive)
REMARK    1  A    between atoms: C_2  and  O_3 
REMARK    2  A    between atoms: O_3  and  C_4 
REMARK    3  A    between atoms: C_4  and  C_5 
REMARK    4  A    between atoms: C_6  and  C_8 
REMARK    5  A    between atoms: C_6  and  O_7 
REMARK    6  A    between atoms: C_16  and  C_17 
REMARK    7  A    between atoms: C_18  and  C_19 
REMARK    8  A    between atoms: N_26  and  C_27 
ROOT
HETATM    1  C   UNL     1       5.757  28.237  54.893  1.00  0.00     0.177 C 
HETATM    2  C   UNL     1       4.882  29.479  55.107  1.00  0.00     0.250 C 
HETATM    3  N   UNL     1       4.073  29.712  53.923  1.00  0.00    -0.303 N 
HETATM    4  C   UNL     1       3.442  28.719  53.258  1.00  0.00     0.319 C 
HETATM    5  O   UNL     1       2.518  28.951  52.492  1.00  0.00    -0.247 OA
HETATM    6  N   UNL     1       3.923  27.471  53.440  1.00  0.00    -0.333 N 
HETATM    7  C   UNL     1       4.859  27.069  54.473  1.00  0.00     0.142 C 
HETATM    8  H   UNL     1       3.587  30.601  53.857  1.00  0.00     0.167 HD
HETATM    9  H   UNL     1       3.401  26.756  52.946  1.00  0.00     0.165 HD
ENDROOT
BRANCH   7  10
HETATM   10  C   UNL     1       5.601  25.883  53.921  1.00  0.00     0.015 A 
HETATM   11  C   UNL     1       5.877  25.568  52.555  1.00  0.00     0.097 A 
HETATM   12  N   UNL     1       6.531  24.403  52.452  1.00  0.00    -0.167 NA
HETATM   13  N   UNL     1       6.712  23.963  53.715  1.00  0.00    -0.244 N 
HETATM   14  C   UNL     1       6.176  24.841  54.628  1.00  0.00     0.130 A 
BRANCH  11  15
HETATM   15  C   UNL     1       5.540  26.321  51.345  1.00  0.00    -0.005 A 
HETATM   16  C   UNL     1       6.024  27.620  51.137  1.00  0.00     0.014 A 
HETATM   17  C   UNL     1       5.688  28.324  49.978  1.00  0.00     0.001 A 
HETATM   18  C   UNL     1       4.878  27.732  49.011  1.00  0.00     0.000 A 
HETATM   19  C   UNL     1       4.409  26.433  49.197  1.00  0.00     0.001 A 
HETATM   20  C   UNL     1       4.740  25.731  50.357  1.00  0.00     0.014 A 
ENDBRANCH  11  15
BRANCH  13  21
HETATM   21  C   UNL     1       7.374  22.728  53.967  1.00  0.00     0.058 A 
HETATM   22  C   UNL     1       7.556  22.303  55.293  1.00  0.00     0.031 A 
HETATM   23  C   UNL     1       8.211  21.101  55.565  1.00  0.00     0.002 A 
HETATM   24  C   UNL     1       8.689  20.314  54.520  1.00  0.00     0.000 A 
HETATM   25  C   UNL     1       8.512  20.728  53.200  1.00  0.00     0.002 A 
HETATM   26  C   UNL     1       7.856  21.930  52.920  1.00  0.00     0.031 A 
ENDBRANCH  13  21
ENDBRANCH   7  10
BRANCH   1  27
HETATM   27  C   UNL     1       6.527  27.876  56.142  1.00  0.00     0.270 C 
HETATM   28  O   UNL     1       6.183  27.022  56.945  1.00  0.00    -0.265 OA
BRANCH  27  29
HETATM   29  O   UNL     1       7.659  28.622  56.234  1.00  0.00    -0.321 OA
BRANCH  29  30
HETATM   30  C   UNL     1       8.367  28.556  57.483  1.00  0.00     0.174 C 
HETATM   31  C   UNL     1       7.948  29.667  58.428  1.00  0.00     0.034 C 
ENDBRANCH  29  30
ENDBRANCH  27  29
ENDBRANCH   1  27
BRANCH   2  32
HETATM   32  C   UNL     1       4.003  29.410  56.413  1.00  0.00     0.439 C 
HETATM   33  F   UNL     1       4.717  29.672  57.528  1.00  0.00    -0.166 F 
HETATM   34  F   UNL     1       2.997  30.320  56.358  1.00  0.00    -0.166 F 
HETATM   35  F   UNL     1       3.426  28.199  56.571  1.00  0.00    -0.166 F 
ENDBRANCH   2  32
BRANCH   2  36
HETATM   36  O   UNL     1       5.716  30.644  55.121  1.00  0.00    -0.363 OA
HETATM   37  H   UNL     1       5.942  30.794  56.054  1.00  0.00     0.213 HD
ENDBRANCH   2  36
TORSDOF 8
ENDMDL
MODEL 2
REMARK VINA RESULT:      -8.9      2.286      5.303
REMARK  8 active torsions:
REMARK  status: ('A' for Active; 'I' for Inactive)
REMARK    1  A    between atoms: C_2  and  O_3 
REMARK    2  A    between atoms: O_3  and  C_4 
REMARK    3  A    between atoms: C_4  and  C_5 
REMARK    4  A    between atoms: C_6  and  C_8 
REMARK    5  A    between atoms: C_6  and  O_7 
REMARK    6  A    between atoms: C_16  and  C_17 
REMARK    7  A    between atoms: C_18  and  C_19 
REMARK    8  A    between atoms: N_26  and  C_27 
ROOT
HETATM    1  C   UNL     1       4.540  27.516  52.522  1.00  0.00     0.177 C 
HETATM    2  C   UNL     1       3.654  28.750  52.298  1.00  0.00     0.250 C 
HETATM    3  N   UNL     1       3.163  29.232  53.579  1.00  0.00    -0.303 N 
HETATM    4  C   UNL     1       3.944  29.323  54.677  1.00  0.00     0.319 C 
HETATM    5  O   UNL     1       3.630  30.026  55.627  1.00  0.00    -0.247 OA
HETATM    6  N   UNL     1       5.056  28.557  54.693  1.00  0.00    -0.333 N 
HETATM    7  C   UNL     1       5.621  27.866  53.549  1.00  0.00     0.142 C 
HETATM    8  H   UNL     1       2.423  29.927  53.562  1.00  0.00     0.167 HD
HETATM    9  H   UNL     1       5.626  28.681  55.522  1.00  0.00     0.165 HD
ENDROOT
BRANCH   7  10
HETATM   10  C   UNL     1       6.357  26.678  54.105  1.00  0.00     0.015 A 
HETATM   11  C   UNL     1       7.303  26.643  55.176  1.00  0.00     0.097 A 
HETATM   12  N   UNL     1       7.776  25.404  55.358  1.00  0.00    -0.167 NA
HETATM   13  N   UNL     1       7.146  24.624  54.454  1.00  0.00    -0.244 N 
HETATM   14  C   UNL     1       6.270  25.360  53.691  1.00  0.00     0.130 A 
BRANCH  11  15
HETATM   15  C   UNL     1       7.780  27.736  56.025  1.00  0.00    -0.005 A 
HETATM   16  C   UNL     1       8.654  28.714  55.531  1.00  0.00     0.014 A 
HETATM   17  C   UNL     1       9.102  29.747  56.360  1.00  0.00     0.001 A 
HETATM   18  C   UNL     1       8.668  29.820  57.682  1.00  0.00     0.000 A 
HETATM   19  C   UNL     1       7.781  28.866  58.177  1.00  0.00     0.001 A 
HETATM   20  C   UNL     1       7.338  27.831  57.352  1.00  0.00     0.014 A 
ENDBRANCH  11  15
BRANCH  13  21
HETATM   21  C   UNL     1       7.430  23.232  54.371  1.00  0.00     0.058 A 
HETATM   22  C   UNL     1       7.646  22.648  53.112  1.00  0.00     0.031 A 
HETATM   23  C   UNL     1       7.917  21.283  53.004  1.00  0.00     0.002 A 
HETATM   24  C   UNL     1       7.975  20.490  54.147  1.00  0.00     0.000 A 
HETATM   25  C   UNL     1       7.762  21.061  55.401  1.00  0.00     0.002 A 
HETATM   26  C   UNL     1       7.492  22.428  55.518  1.00  0.00     0.031 A 
ENDBRANCH  13  21
ENDBRANCH   7  10
BRANCH   1  27
HETATM   27  C   UNL     1       5.179  27.048  51.235  1.00  0.00     0.270 C 
HETATM   28  O   UNL     1       6.345  27.247  50.929  1.00  0.00    -0.265 OA
BRANCH  27  29
HETATM   29  O   UNL     1       4.279  26.366  50.479  1.00  0.00    -0.321 OA
BRANCH  29  30
HETATM   30  C   UNL     1       4.314  26.617  49.064  1.00  0.00     0.174 C 
HETATM   31  C   UNL     1       3.412  25.664  48.301  1.00  0.00     0.034 C 
ENDBRANCH  29  30
ENDBRANCH  27  29
ENDBRANCH   1  27
BRANCH   2  32
HETATM   32  C   UNL     1       4.364  29.890  51.476  1.00  0.00     0.439 C 
HETATM   33  F   UNL     1       4.178  29.757  50.146  1.00  0.00    -0.166 F 
HETATM   34  F   UNL     1       3.875  31.106  51.829  1.00  0.00    -0.166 F 
HETATM   35  F   UNL     1       5.695  29.924  51.701  1.00  0.00    -0.166 F 
ENDBRANCH   2  32
BRANCH   2  36
HETATM   36  O   UNL     1       2.439  28.345  51.657  1.00  0.00    -0.363 OA
HETATM   37  H   UNL     1       1.822  28.129  52.376  1.00  0.00     0.213 HD
ENDBRANCH   2  36
TORSDOF 8
ENDMDL
MODEL 3
REMARK VINA RESULT:      -8.5      2.033      5.679
REMARK  8 active torsions:
REMARK  status: ('A' for Active; 'I' for Inactive)
REMARK    1  A    between atoms: C_2  and  O_3 
REMARK    2  A    between atoms: O_3  and  C_4 
REMARK    3  A    between atoms: C_4  and  C_5 
REMARK    4  A    between atoms: C_6  and  C_8 
REMARK    5  A    between atoms: C_6  and  O_7 
REMARK    6  A    between atoms: C_16  and  C_17 
REMARK    7  A    between atoms: C_18  and  C_19 
REMARK    8  A    between atoms: N_26  and  C_27 
ROOT
HETATM    1  C   UNL     1       6.490  27.624  55.717  1.00  0.00     0.177 C 
HETATM    2  C   UNL     1       7.327  28.291  56.816  1.00  0.00     0.250 C 
HETATM    3  N   UNL     1       8.700  28.433  56.360  1.00  0.00    -0.303 N 
HETATM    4  C   UNL     1       9.021  28.848  55.115  1.00  0.00     0.319 C 
HETATM    5  O   UNL     1      10.134  29.280  54.853  1.00  0.00    -0.247 OA
HETATM    6  N   UNL     1       8.069  28.707  54.168  1.00  0.00    -0.333 N 
HETATM    7  C   UNL     1       6.670  28.412  54.415  1.00  0.00     0.142 C 
HETATM    8  H   UNL     1       9.397  28.690  57.053  1.00  0.00     0.167 HD
HETATM    9  H   UNL     1       8.342  29.058  53.257  1.00  0.00     0.165 HD
ENDROOT
BRANCH   7  10
HETATM   10  C   UNL     1       6.173  27.701  53.186  1.00  0.00     0.015 A 
HETATM   11  C   UNL     1       6.272  26.312  52.865  1.00  0.00     0.097 A 
HETATM   12  N   UNL     1       5.747  26.058  51.660  1.00  0.00    -0.167 NA
HETATM   13  N   UNL     1       5.283  27.239  51.197  1.00  0.00    -0.244 N 
HETATM   14  C   UNL     1       5.511  28.249  52.102  1.00  0.00     0.130 A 
BRANCH  11  15
HETATM   15  C   UNL     1       6.851  25.220  53.650  1.00  0.00    -0.005 A 
HETATM   16  C   UNL     1       6.223  24.743  54.808  1.00  0.00     0.014 A 
HETATM   17  C   UNL     1       6.794  23.702  55.547  1.00  0.00     0.001 A 
HETATM   18  C   UNL     1       7.988  23.120  55.125  1.00  0.00     0.000 A 
HETATM   19  C   UNL     1       8.610  23.572  53.963  1.00  0.00     0.001 A 
HETATM   20  C   UNL     1       8.043  24.615  53.228  1.00  0.00     0.014 A 
ENDBRANCH  11  15
BRANCH  13  21
HETATM   21  C   UNL     1       4.665  27.326  49.918  1.00  0.00     0.058 A 
HETATM   22  C   UNL     1       4.324  26.146  49.237  1.00  0.00     0.031 A 
HETATM   23  C   UNL     1       3.725  26.205  47.977  1.00  0.00     0.002 A 
HETATM   24  C   UNL     1       3.461  27.438  47.387  1.00  0.00     0.000 A 
HETATM   25  C   UNL     1       3.795  28.615  48.056  1.00  0.00     0.002 A 
HETATM   26  C   UNL     1       4.394  28.564  49.319  1.00  0.00     0.031 A 
ENDBRANCH  13  21
ENDBRANCH   7  10
BRANCH   1  27
HETATM   27  C   UNL     1       5.027  27.565  56.090  1.00  0.00     0.270 C 
HETATM   28  O   UNL     1       4.573  26.901  57.010  1.00  0.00    -0.265 OA
BRANCH  27  29
HETATM   29  O   UNL     1       4.295  28.364  55.269  1.00  0.00    -0.321 OA
BRANCH  29  30
HETATM   30  C   UNL     1       3.431  29.317  55.911  1.00  0.00     0.174 C 
HETATM   31  C   UNL     1       3.417  30.646  55.178  1.00  0.00     0.034 C 
ENDBRANCH  29  30
ENDBRANCH  27  29
ENDBRANCH   1  27
BRANCH   2  32
HETATM   32  C   UNL     1       6.731  29.661  57.315  1.00  0.00     0.439 C 
HETATM   33  F   UNL     1       5.618  29.495  58.062  1.00  0.00    -0.166 F 
HETATM   34  F   UNL     1       7.634  30.322  58.084  1.00  0.00    -0.166 F 
HETATM   35  F   UNL     1       6.416  30.481  56.289  1.00  0.00    -0.166 F 
ENDBRANCH   2  32
BRANCH   2  36
HETATM   36  O   UNL     1       7.480  27.378  57.909  1.00  0.00    -0.363 OA
HETATM   37  H   UNL     1       6.851  26.656  57.738  1.00  0.00     0.213 HD
ENDBRANCH   2  36
TORSDOF 8
ENDMDL
MODEL 4
REMARK VINA RESULT:      -8.5      3.024      4.389
REMARK  8 active torsions:
REMARK  status: ('A' for Active; 'I' for Inactive)
REMARK    1  A    between atoms: C_2  and  O_3 
REMARK    2  A    between atoms: O_3  and  C_4 
REMARK    3  A    between atoms: C_4  and  C_5 
REMARK    4  A    between atoms: C_6  and  C_8 
REMARK    5  A    between atoms: C_6  and  O_7 
REMARK    6  A    between atoms: C_16  and  C_17 
REMARK    7  A    between atoms: C_18  and  C_19 
REMARK    8  A    between atoms: N_26  and  C_27 
ROOT
HETATM    1  C   UNL     1       4.538  30.275  52.097  1.00  0.00     0.177 C 
HETATM    2  C   UNL     1       4.514  31.764  51.723  1.00  0.00     0.250 C 
HETATM    3  N   UNL     1       5.677  32.078  50.911  1.00  0.00    -0.303 N 
HETATM    4  C   UNL     1       6.112  31.281  49.911  1.00  0.00     0.319 C 
HETATM    5  O   UNL     1       6.859  31.701  49.038  1.00  0.00    -0.247 OA
HETATM    6  N   UNL     1       5.727  29.988  49.959  1.00  0.00    -0.333 N 
HETATM    7  C   UNL     1       4.687  29.449  50.815  1.00  0.00     0.142 C 
HETATM    8  H   UNL     1       5.881  33.060  50.749  1.00  0.00     0.167 HD
HETATM    9  H   UNL     1       6.051  29.435  49.174  1.00  0.00     0.165 HD
ENDROOT
BRANCH   7  10
HETATM   10  C   UNL     1       5.046  28.006  51.046  1.00  0.00     0.015 A 
HETATM   11  C   UNL     1       4.609  26.857  50.317  1.00  0.00     0.097 A 
HETATM   12  N   UNL     1       5.114  25.734  50.844  1.00  0.00    -0.167 NA
HETATM   13  N   UNL     1       5.888  26.120  51.880  1.00  0.00    -0.244 N 
HETATM   14  C   UNL     1       5.883  27.488  52.020  1.00  0.00     0.130 A 
BRANCH  11  15
HETATM   15  C   UNL     1       3.730  26.781  49.150  1.00  0.00    -0.005 A 
HETATM   16  C   UNL     1       2.838  27.817  48.841  1.00  0.00     0.014 A 
HETATM   17  C   UNL     1       2.003  27.724  47.724  1.00  0.00     0.001 A 
HETATM   18  C   UNL     1       2.063  26.602  46.899  1.00  0.00     0.000 A 
HETATM   19  C   UNL     1       2.961  25.575  47.185  1.00  0.00     0.001 A 
HETATM   20  C   UNL     1       3.791  25.666  48.303  1.00  0.00     0.014 A 
ENDBRANCH  11  15
BRANCH  13  21
HETATM   21  C   UNL     1       6.574  25.157  52.674  1.00  0.00     0.058 A 
HETATM   22  C   UNL     1       6.197  24.980  54.015  1.00  0.00     0.031 A 
HETATM   23  C   UNL     1       6.861  24.049  54.817  1.00  0.00     0.002 A 
HETATM   24  C   UNL     1       7.902  23.289  54.289  1.00  0.00     0.000 A 
HETATM   25  C   UNL     1       8.282  23.459  52.958  1.00  0.00     0.002 A 
HETATM   26  C   UNL     1       7.621  24.389  52.149  1.00  0.00     0.031 A 
ENDBRANCH  13  21
ENDBRANCH   7  10
BRANCH   1  27
HETATM   27  C   UNL     1       3.286  29.866  52.836  1.00  0.00     0.270 C 
HETATM   28  O   UNL     1       2.377  29.211  52.348  1.00  0.00    -0.265 OA
BRANCH  27  29
HETATM   29  O   UNL     1       3.323  30.314  54.118  1.00  0.00    -0.321 OA
BRANCH  29  30
HETATM   30  C   UNL     1       4.409  29.835  54.930  1.00  0.00     0.174 C 
HETATM   31  C   UNL     1       4.240  28.370  55.288  1.00  0.00     0.034 C 
ENDBRANCH  29  30
ENDBRANCH  27  29
ENDBRANCH   1  27
BRANCH   2  32
HETATM   32  C   UNL     1       3.174  32.213  51.026  1.00  0.00     0.439 C 
HETATM   33  F   UNL     1       2.168  32.386  51.910  1.00  0.00    -0.166 F 
HETATM   34  F   UNL     1       3.347  33.394  50.380  1.00  0.00    -0.166 F 
HETATM   35  F   UNL     1       2.758  31.319  50.103  1.00  0.00    -0.166 F 
ENDBRANCH   2  32
BRANCH   2  36
HETATM   36  O   UNL     1       4.760  32.546  52.897  1.00  0.00    -0.363 OA
HETATM   37  H   UNL     1       5.699  32.796  52.853  1.00  0.00     0.213 HD
ENDBRANCH   2  36
TORSDOF 8
ENDMDL
MODEL 5
REMARK VINA RESULT:      -8.4      3.230      6.794
REMARK  8 active torsions:
REMARK  status: ('A' for Active; 'I' for Inactive)
REMARK    1  A    between atoms: C_2  and  O_3 
REMARK    2  A    between atoms: O_3  and  C_4 
REMARK    3  A    between atoms: C_4  and  C_5 
REMARK    4  A    between atoms: C_6  and  C_8 
REMARK    5  A    between atoms: C_6  and  O_7 
REMARK    6  A    between atoms: C_16  and  C_17 
REMARK    7  A    between atoms: C_18  and  C_19 
REMARK    8  A    between atoms: N_26  and  C_27 
ROOT
HETATM    1  C   UNL     1       5.501  28.340  51.099  1.00  0.00     0.177 C 
HETATM    2  C   UNL     1       4.910  27.693  49.839  1.00  0.00     0.250 C 
HETATM    3  N   UNL     1       4.971  26.246  49.963  1.00  0.00    -0.303 N 
HETATM    4  C   UNL     1       4.652  25.593  51.103  1.00  0.00     0.319 C 
HETATM    5  O   UNL     1       4.383  24.401  51.101  1.00  0.00    -0.247 OA
HETATM    6  N   UNL     1       4.701  26.312  52.244  1.00  0.00    -0.333 N 
HETATM    7  C   UNL     1       4.796  27.758  52.328  1.00  0.00     0.142 C 
HETATM    8  H   UNL     1       4.783  25.698  49.130  1.00  0.00     0.167 HD
HETATM    9  H   UNL     1       4.425  25.790  53.069  1.00  0.00     0.165 HD
ENDROOT
BRANCH   7  10
HETATM   10  C   UNL     1       5.481  28.053  53.634  1.00  0.00     0.015 A 
HETATM   11  C   UNL     1       6.393  27.228  54.362  1.00  0.00     0.097 A 
HETATM   12  N   UNL     1       6.764  27.816  55.507  1.00  0.00    -0.167 NA
HETATM   13  N   UNL     1       6.141  29.013  55.533  1.00  0.00    -0.244 N 
HETATM   14  C   UNL     1       5.370  29.194  54.409  1.00  0.00     0.130 A 
BRANCH  11  15
HETATM   15  C   UNL     1       6.919  25.905  54.021  1.00  0.00    -0.005 A 
HETATM   16  C   UNL     1       7.756  25.718  52.913  1.00  0.00     0.014 A 
HETATM   17  C   UNL     1       8.245  24.446  52.601  1.00  0.00     0.001 A 
HETATM   18  C   UNL     1       7.914  23.355  53.402  1.00  0.00     0.000 A 
HETATM   19  C   UNL     1       7.099  23.533  54.519  1.00  0.00     0.001 A 
HETATM   20  C   UNL     1       6.607  24.802  54.828  1.00  0.00     0.014 A 
ENDBRANCH  11  15
BRANCH  13  21
HETATM   21  C   UNL     1       6.313  29.899  56.634  1.00  0.00     0.058 A 
HETATM   22  C   UNL     1       7.321  29.637  57.576  1.00  0.00     0.031 A 
HETATM   23  C   UNL     1       7.504  30.485  58.669  1.00  0.00     0.002 A 
HETATM   24  C   UNL     1       6.685  31.600  58.832  1.00  0.00     0.000 A 
HETATM   25  C   UNL     1       5.682  31.868  57.902  1.00  0.00     0.002 A 
HETATM   26  C   UNL     1       5.494  31.024  56.803  1.00  0.00     0.031 A 
ENDBRANCH  13  21
ENDBRANCH   7  10
BRANCH   1  27
HETATM   27  C   UNL     1       5.348  29.843  51.077  1.00  0.00     0.270 C 
HETATM   28  O   UNL     1       4.525  30.465  51.731  1.00  0.00    -0.265 OA
BRANCH  27  29
HETATM   29  O   UNL     1       6.265  30.402  50.243  1.00  0.00    -0.321 OA
BRANCH  29  30
HETATM   30  C   UNL     1       6.038  31.771  49.872  1.00  0.00     0.174 C 
HETATM   31  C   UNL     1       5.403  31.885  48.498  1.00  0.00     0.034 C 
ENDBRANCH  29  30
ENDBRANCH  27  29
ENDBRANCH   1  27
BRANCH   2  32
HETATM   32  C   UNL     1       3.454  28.191  49.503  1.00  0.00     0.439 C 
HETATM   33  F   UNL     1       3.455  29.321  48.763  1.00  0.00    -0.166 F 
HETATM   34  F   UNL     1       2.781  27.250  48.793  1.00  0.00    -0.166 F 
HETATM   35  F   UNL     1       2.730  28.433  50.617  1.00  0.00    -0.166 F 
ENDBRANCH   2  32
BRANCH   2  36
HETATM   36  O   UNL     1       5.792  27.925  48.735  1.00  0.00    -0.363 OA
HETATM   37  H   UNL     1       6.691  27.842  49.095  1.00  0.00     0.213 HD
ENDBRANCH   2  36
TORSDOF 8
ENDMDL
MODEL 6
REMARK VINA RESULT:      -8.4      2.536      5.467
REMARK  8 active torsions:
REMARK  status: ('A' for Active; 'I' for Inactive)
REMARK    1  A    between atoms: C_2  and  O_3 
REMARK    2  A    between atoms: O_3  and  C_4 
REMARK    3  A    between atoms: C_4  and  C_5 
REMARK    4  A    between atoms: C_6  and  C_8 
REMARK    5  A    between atoms: C_6  and  O_7 
REMARK    6  A    between atoms: C_16  and  C_17 
REMARK    7  A    between atoms: C_18  and  C_19 
REMARK    8  A    between atoms: N_26  and  C_27 
ROOT
HETATM    1  C   UNL     1       6.606  27.781  55.505  1.00  0.00     0.177 C 
HETATM    2  C   UNL     1       6.481  27.896  57.030  1.00  0.00     0.250 C 
HETATM    3  N   UNL     1       5.281  27.204  57.471  1.00  0.00    -0.303 N 
HETATM    4  C   UNL     1       4.913  25.996  56.992  1.00  0.00     0.319 C 
HETATM    5  O   UNL     1       4.117  25.287  57.592  1.00  0.00    -0.247 OA
HETATM    6  N   UNL     1       5.423  25.640  55.794  1.00  0.00    -0.333 N 
HETATM    7  C   UNL     1       6.522  26.301  55.115  1.00  0.00     0.142 C 
HETATM    8  H   UNL     1       4.980  27.357  58.429  1.00  0.00     0.167 HD
HETATM    9  H   UNL     1       5.144  24.715  55.489  1.00  0.00     0.165 HD
ENDROOT
BRANCH   7  10
HETATM   10  C   UNL     1       6.308  26.058  53.646  1.00  0.00     0.015 A 
HETATM   11  C   UNL     1       6.755  24.953  52.857  1.00  0.00     0.097 A 
HETATM   12  N   UNL     1       6.404  25.107  51.574  1.00  0.00    -0.167 NA
HETATM   13  N   UNL     1       5.718  26.267  51.509  1.00  0.00    -0.244 N 
HETATM   14  C   UNL     1       5.628  26.860  52.746  1.00  0.00     0.130 A 
BRANCH  11  15
HETATM   15  C   UNL     1       7.506  23.766  53.269  1.00  0.00    -0.005 A 
HETATM   16  C   UNL     1       7.445  22.574  52.533  1.00  0.00     0.014 A 
HETATM   17  C   UNL     1       8.165  21.450  52.945  1.00  0.00     0.001 A 
HETATM   18  C   UNL     1       8.964  21.511  54.086  1.00  0.00     0.000 A 
HETATM   19  C   UNL     1       9.049  22.697  54.813  1.00  0.00     0.001 A 
HETATM   20  C   UNL     1       8.325  23.819  54.405  1.00  0.00     0.014 A 
ENDBRANCH  11  15
BRANCH  13  21
HETATM   21  C   UNL     1       5.204  26.739  50.268  1.00  0.00     0.058 A 
HETATM   22  C   UNL     1       5.412  28.079  49.903  1.00  0.00     0.031 A 
HETATM   23  C   UNL     1       4.909  28.568  48.695  1.00  0.00     0.002 A 
HETATM   24  C   UNL     1       4.197  27.727  47.844  1.00  0.00     0.000 A 
HETATM   25  C   UNL     1       3.986  26.395  48.199  1.00  0.00     0.002 A 
HETATM   26  C   UNL     1       4.488  25.898  49.405  1.00  0.00     0.031 A 
ENDBRANCH  13  21
ENDBRANCH   7  10
BRANCH   1  27
HETATM   27  C   UNL     1       7.903  28.376  55.006  1.00  0.00     0.270 C 
HETATM   28  O   UNL     1       8.496  28.001  54.006  1.00  0.00    -0.265 OA
BRANCH  27  29
HETATM   29  O   UNL     1       8.302  29.391  55.816  1.00  0.00    -0.321 OA
BRANCH  29  30
HETATM   30  C   UNL     1       9.698  29.729  55.775  1.00  0.00     0.174 C 
HETATM   31  C   UNL     1      10.192  30.244  57.114  1.00  0.00     0.034 C 
ENDBRANCH  29  30
ENDBRANCH  27  29
ENDBRANCH   1  27
BRANCH   2  32
HETATM   32  C   UNL     1       7.761  27.401  57.804  1.00  0.00     0.439 C 
HETATM   33  F   UNL     1       8.741  26.997  56.969  1.00  0.00    -0.166 F 
HETATM   34  F   UNL     1       8.271  28.402  58.567  1.00  0.00    -0.166 F 
HETATM   35  F   UNL     1       7.484  26.376  58.638  1.00  0.00    -0.166 F 
ENDBRANCH   2  32
BRANCH   2  36
HETATM   36  O   UNL     1       6.175  29.253  57.374  1.00  0.00    -0.363 OA
HETATM   37  H   UNL     1       6.968  29.766  57.148  1.00  0.00     0.213 HD
ENDBRANCH   2  36
TORSDOF 8
ENDMDL
MODEL 7
REMARK VINA RESULT:      -8.1      3.520      6.012
REMARK  8 active torsions:
REMARK  status: ('A' for Active; 'I' for Inactive)
REMARK    1  A    between atoms: C_2  and  O_3 
REMARK    2  A    between atoms: O_3  and  C_4 
REMARK    3  A    between atoms: C_4  and  C_5 
REMARK    4  A    between atoms: C_6  and  C_8 
REMARK    5  A    between atoms: C_6  and  O_7 
REMARK    6  A    between atoms: C_16  and  C_17 
REMARK    7  A    between atoms: C_18  and  C_19 
REMARK    8  A    between atoms: N_26  and  C_27 
ROOT
HETATM    1  C   UNL     1       6.803  27.883  55.833  1.00  0.00     0.177 C 
HETATM    2  C   UNL     1       7.171  27.193  57.154  1.00  0.00     0.250 C 
HETATM    3  N   UNL     1       5.989  26.564  57.718  1.00  0.00    -0.303 N 
HETATM    4  C   UNL     1       5.105  25.863  56.974  1.00  0.00     0.319 C 
HETATM    5  O   UNL     1       4.324  25.075  57.486  1.00  0.00    -0.247 OA
HETATM    6  N   UNL     1       5.093  26.121  55.649  1.00  0.00    -0.333 N 
HETATM    7  C   UNL     1       6.106  26.866  54.925  1.00  0.00     0.142 C 
HETATM    8  H   UNL     1       6.049  26.232  58.675  1.00  0.00     0.167 HD
HETATM    9  H   UNL     1       4.436  25.552  55.127  1.00  0.00     0.165 HD
ENDROOT
BRANCH   7  10
HETATM   10  C   UNL     1       5.407  27.471  53.738  1.00  0.00     0.015 A 
HETATM   11  C   UNL     1       4.613  28.658  53.688  1.00  0.00     0.097 A 
HETATM   12  N   UNL     1       4.121  28.856  52.458  1.00  0.00    -0.167 NA
HETATM   13  N   UNL     1       4.594  27.845  51.698  1.00  0.00    -0.244 N 
HETATM   14  C   UNL     1       5.387  26.998  52.437  1.00  0.00     0.130 A 
BRANCH  11  15
HETATM   15  C   UNL     1       4.297  29.606  54.758  1.00  0.00    -0.005 A 
HETATM   16  C   UNL     1       3.547  29.218  55.876  1.00  0.00     0.014 A 
HETATM   17  C   UNL     1       3.252  30.139  56.885  1.00  0.00     0.001 A 
HETATM   18  C   UNL     1       3.716  31.449  56.793  1.00  0.00     0.000 A 
HETATM   19  C   UNL     1       4.482  31.840  55.695  1.00  0.00     0.001 A 
HETATM   20  C   UNL     1       4.772  30.922  54.685  1.00  0.00     0.014 A 
ENDBRANCH  11  15
BRANCH  13  21
HETATM   21  C   UNL     1       4.248  27.748  50.320  1.00  0.00     0.058 A 
HETATM   22  C   UNL     1       4.702  26.649  49.574  1.00  0.00     0.031 A 
HETATM   23  C   UNL     1       4.385  26.536  48.219  1.00  0.00     0.002 A 
HETATM   24  C   UNL     1       3.613  27.516  47.599  1.00  0.00     0.000 A 
HETATM   25  C   UNL     1       3.157  28.610  48.333  1.00  0.00     0.002 A 
HETATM   26  C   UNL     1       3.470  28.729  49.691  1.00  0.00     0.031 A 
ENDBRANCH  13  21
ENDBRANCH   7  10
BRANCH   1  27
HETATM   27  C   UNL     1       8.022  28.448  55.141  1.00  0.00     0.270 C 
HETATM   28  O   UNL     1       8.427  28.084  54.047  1.00  0.00    -0.265 OA
BRANCH  27  29
HETATM   29  O   UNL     1       8.590  29.422  55.898  1.00  0.00    -0.321 OA
BRANCH  29  30
HETATM   30  C   UNL     1      10.000  29.633  55.716  1.00  0.00     0.174 C 
HETATM   31  C   UNL     1      10.693  29.964  57.024  1.00  0.00     0.034 C 
ENDBRANCH  29  30
ENDBRANCH  27  29
ENDBRANCH   1  27
BRANCH   2  32
HETATM   32  C   UNL     1       8.368  26.177  57.018  1.00  0.00     0.439 C 
HETATM   33  F   UNL     1       9.570  26.786  57.097  1.00  0.00    -0.166 F 
HETATM   34  F   UNL     1       8.321  25.253  58.012  1.00  0.00    -0.166 F 
HETATM   35  F   UNL     1       8.328  25.499  55.851  1.00  0.00    -0.166 F 
ENDBRANCH   2  32
BRANCH   2  36
HETATM   36  O   UNL     1       7.465  28.192  58.138  1.00  0.00    -0.363 OA
HETATM   37  H   UNL     1       7.106  27.849  58.975  1.00  0.00     0.213 HD
ENDBRANCH   2  36
TORSDOF 8
ENDMDL
MODEL 8
REMARK VINA RESULT:      -8.1      5.500      9.422
REMARK  8 active torsions:
REMARK  status: ('A' for Active; 'I' for Inactive)
REMARK    1  A    between atoms: C_2  and  O_3 
REMARK    2  A    between atoms: O_3  and  C_4 
REMARK    3  A    between atoms: C_4  and  C_5 
REMARK    4  A    between atoms: C_6  and  C_8 
REMARK    5  A    between atoms: C_6  and  O_7 
REMARK    6  A    between atoms: C_16  and  C_17 
REMARK    7  A    between atoms: C_18  and  C_19 
REMARK    8  A    between atoms: N_26  and  C_27 
ROOT
HETATM    1  C   UNL     1       5.348  32.358  57.097  1.00  0.00     0.177 C 
HETATM    2  C   UNL     1       4.797  31.739  55.805  1.00  0.00     0.250 C 
HETATM    3  N   UNL     1       5.301  30.384  55.663  1.00  0.00    -0.303 N 
HETATM    4  C   UNL     1       5.360  29.511  56.693  1.00  0.00     0.319 C 
HETATM    5  O   UNL     1       5.460  28.307  56.504  1.00  0.00    -0.247 OA
HETATM    6  N   UNL     1       5.361  30.042  57.934  1.00  0.00    -0.333 N 
HETATM    7  C   UNL     1       5.035  31.417  58.265  1.00  0.00     0.142 C 
HETATM    8  H   UNL     1       5.165  29.927  54.767  1.00  0.00     0.167 HD
HETATM    9  H   UNL     1       5.376  29.350  58.675  1.00  0.00     0.165 HD
ENDROOT
BRANCH   7  10
HETATM   10  C   UNL     1       5.785  31.728  59.530  1.00  0.00     0.015 A 
HETATM   11  C   UNL     1       7.163  31.490  59.825  1.00  0.00     0.097 A 
HETATM   12  N   UNL     1       7.460  31.867  61.075  1.00  0.00    -0.167 NA
HETATM   13  N   UNL     1       6.320  32.369  61.596  1.00  0.00    -0.244 N 
HETATM   14  C   UNL     1       5.292  32.315  60.683  1.00  0.00     0.130 A 
BRANCH  11  15
HETATM   15  C   UNL     1       8.205  30.913  58.973  1.00  0.00    -0.005 A 
HETATM   16  C   UNL     1       8.081  29.622  58.443  1.00  0.00     0.014 A 
HETATM   17  C   UNL     1       9.089  29.087  57.636  1.00  0.00     0.001 A 
HETATM   18  C   UNL     1      10.221  29.844  57.339  1.00  0.00     0.000 A 
HETATM   19  C   UNL     1      10.345  31.137  57.843  1.00  0.00     0.001 A 
HETATM   20  C   UNL     1       9.341  31.670  58.654  1.00  0.00     0.014 A 
ENDBRANCH  11  15
BRANCH  13  21
HETATM   21  C   UNL     1       6.284  32.858  62.932  1.00  0.00     0.058 A 
HETATM   22  C   UNL     1       7.491  33.126  63.598  1.00  0.00     0.031 A 
HETATM   23  C   UNL     1       7.483  33.597  64.913  1.00  0.00     0.002 A 
HETATM   24  C   UNL     1       6.274  33.803  65.572  1.00  0.00     0.000 A 
HETATM   25  C   UNL     1       5.071  33.539  64.919  1.00  0.00     0.002 A 
HETATM   26  C   UNL     1       5.071  33.070  63.602  1.00  0.00     0.031 A 
ENDBRANCH  13  21
ENDBRANCH   7  10
BRANCH   1  27
HETATM   27  C   UNL     1       4.755  33.723  57.358  1.00  0.00     0.270 C 
HETATM   28  O   UNL     1       3.871  33.950  58.170  1.00  0.00    -0.265 OA
BRANCH  27  29
HETATM   29  O   UNL     1       5.355  34.658  56.576  1.00  0.00    -0.321 OA
BRANCH  29  30
HETATM   30  C   UNL     1       4.896  36.011  56.733  1.00  0.00     0.174 C 
HETATM   31  C   UNL     1       5.518  36.940  55.706  1.00  0.00     0.034 C 
ENDBRANCH  29  30
ENDBRANCH  27  29
ENDBRANCH   1  27
BRANCH   2  32
HETATM   32  C   UNL     1       3.226  31.794  55.704  1.00  0.00     0.439 C 
HETATM   33  F   UNL     1       2.624  31.430  56.856  1.00  0.00    -0.166 F 
HETATM   34  F   UNL     1       2.811  33.054  55.416  1.00  0.00    -0.166 F 
HETATM   35  F   UNL     1       2.752  30.993  54.725  1.00  0.00    -0.166 F 
ENDBRANCH   2  32
BRANCH   2  36
HETATM   36  O   UNL     1       5.399  32.390  54.680  1.00  0.00    -0.363 OA
HETATM   37  H   UNL     1       6.290  32.010  54.602  1.00  0.00     0.213 HD
ENDBRANCH   2  36
TORSDOF 8
ENDMDL
MODEL 9
REMARK VINA RESULT:      -8.0      1.904      3.950
REMARK  8 active torsions:
REMARK  status: ('A' for Active; 'I' for Inactive)
REMARK    1  A    between atoms: C_2  and  O_3 
REMARK    2  A    between atoms: O_3  and  C_4 
REMARK    3  A    between atoms: C_4  and  C_5 
REMARK    4  A    between atoms: C_6  and  C_8 
REMARK    5  A    between atoms: C_6  and  O_7 
REMARK    6  A    between atoms: C_16  and  C_17 
REMARK    7  A    between atoms: C_18  and  C_19 
REMARK    8  A    between atoms: N_26  and  C_27 
ROOT
HETATM    1  C   UNL     1       5.492  28.656  54.448  1.00  0.00     0.177 C 
HETATM    2  C   UNL     1       4.851  29.796  53.644  1.00  0.00     0.250 C 
HETATM    3  N   UNL     1       5.435  29.838  52.313  1.00  0.00    -0.303 N 
HETATM    4  C   UNL     1       5.668  28.729  51.579  1.00  0.00     0.319 C 
HETATM    5  O   UNL     1       5.835  28.788  50.369  1.00  0.00    -0.247 OA
HETATM    6  N   UNL     1       5.764  27.565  52.256  1.00  0.00    -0.333 N 
HETATM    7  C   UNL     1       5.376  27.359  53.639  1.00  0.00     0.142 C 
HETATM    8  H   UNL     1       5.236  30.654  51.743  1.00  0.00     0.167 HD
HETATM    9  H   UNL     1       5.910  26.756  51.663  1.00  0.00     0.165 HD
ENDROOT
BRANCH   7  10
HETATM   10  C   UNL     1       6.235  26.233  54.147  1.00  0.00     0.015 A 
HETATM   11  C   UNL     1       7.308  26.293  55.089  1.00  0.00     0.097 A 
HETATM   12  N   UNL     1       7.862  25.086  55.263  1.00  0.00    -0.167 NA
HETATM   13  N   UNL     1       7.163  24.236  54.481  1.00  0.00    -0.244 N 
HETATM   14  C   UNL     1       6.162  24.894  53.805  1.00  0.00     0.130 A 
BRANCH  11  15
HETATM   15  C   UNL     1       7.832  27.446  55.823  1.00  0.00    -0.005 A 
HETATM   16  C   UNL     1       8.484  28.495  55.161  1.00  0.00     0.014 A 
HETATM   17  C   UNL     1       8.982  29.586  55.880  1.00  0.00     0.001 A 
HETATM   18  C   UNL     1       8.819  29.644  57.263  1.00  0.00     0.000 A 
HETATM   19  C   UNL     1       8.153  28.617  57.929  1.00  0.00     0.001 A 
HETATM   20  C   UNL     1       7.660  27.525  57.212  1.00  0.00     0.014 A 
ENDBRANCH  11  15
BRANCH  13  21
HETATM   21  C   UNL     1       7.504  22.855  54.423  1.00  0.00     0.058 A 
HETATM   22  C   UNL     1       7.794  22.271  53.179  1.00  0.00     0.031 A 
HETATM   23  C   UNL     1       8.122  20.917  53.094  1.00  0.00     0.002 A 
HETATM   24  C   UNL     1       8.162  20.135  54.247  1.00  0.00     0.000 A 
HETATM   25  C   UNL     1       7.876  20.707  55.486  1.00  0.00     0.002 A 
HETATM   26  C   UNL     1       7.548  22.063  55.578  1.00  0.00     0.031 A 
ENDBRANCH  13  21
ENDBRANCH   7  10
BRANCH   1  27
HETATM   27  C   UNL     1       4.833  28.487  55.797  1.00  0.00     0.270 C 
HETATM   28  O   UNL     1       4.159  27.521  56.122  1.00  0.00    -0.265 OA
BRANCH  27  29
HETATM   29  O   UNL     1       5.110  29.550  56.597  1.00  0.00    -0.321 OA
BRANCH  29  30
HETATM   30  C   UNL     1       4.107  29.896  57.567  1.00  0.00     0.174 C 
HETATM   31  C   UNL     1       3.908  31.398  57.658  1.00  0.00     0.034 C 
ENDBRANCH  29  30
ENDBRANCH  27  29
ENDBRANCH   1  27
BRANCH   2  32
HETATM   32  C   UNL     1       3.278  29.719  53.592  1.00  0.00     0.439 C 
HETATM   33  F   UNL     1       2.827  28.448  53.551  1.00  0.00    -0.166 F 
HETATM   34  F   UNL     1       2.737  30.301  54.692  1.00  0.00    -0.166 F 
HETATM   35  F   UNL     1       2.774  30.367  52.519  1.00  0.00    -0.166 F 
ENDBRANCH   2  32
BRANCH   2  36
HETATM   36  O   UNL     1       5.279  31.050  54.187  1.00  0.00    -0.363 OA
HETATM   37  H   UNL     1       4.546  31.357  54.748  1.00  0.00     0.213 HD
ENDBRANCH   2  36
TORSDOF 8
ENDMDL
MODEL 10
REMARK VINA RESULT:      -7.8      1.986      5.681
REMARK  8 active torsions:
REMARK  status: ('A' for Active; 'I' for Inactive)
REMARK    1  A    between atoms: C_2  and  O_3 
REMARK    2  A    between atoms: O_3  and  C_4 
REMARK    3  A    between atoms: C_4  and  C_5 
REMARK    4  A    between atoms: C_6  and  C_8 
REMARK    5  A    between atoms: C_6  and  O_7 
REMARK    6  A    between atoms: C_16  and  C_17 
REMARK    7  A    between atoms: C_18  and  C_19 
REMARK    8  A    between atoms: N_26  and  C_27 
ROOT
HETATM    1  C   UNL     1       5.577  28.083  55.430  1.00  0.00     0.177 C 
HETATM    2  C   UNL     1       6.131  28.336  56.839  1.00  0.00     0.250 C 
HETATM    3  N   UNL     1       6.878  27.170  57.282  1.00  0.00    -0.303 N 
HETATM    4  C   UNL     1       7.735  26.500  56.481  1.00  0.00     0.319 C 
HETATM    5  O   UNL     1       8.589  25.756  56.941  1.00  0.00    -0.247 OA
HETATM    6  N   UNL     1       7.561  26.651  55.151  1.00  0.00    -0.333 N 
HETATM    7  C   UNL     1       6.732  27.659  54.517  1.00  0.00     0.142 C 
HETATM    8  H   UNL     1       7.142  27.130  58.262  1.00  0.00     0.167 HD
HETATM    9  H   UNL     1       8.244  26.154  54.590  1.00  0.00     0.165 HD
ENDROOT
BRANCH   7  10
HETATM   10  C   UNL     1       6.299  27.072  53.201  1.00  0.00     0.015 A 
HETATM   11  C   UNL     1       6.442  25.726  52.742  1.00  0.00     0.097 A 
HETATM   12  N   UNL     1       5.969  25.591  51.496  1.00  0.00    -0.167 NA
HETATM   13  N   UNL     1       5.497  26.805  51.140  1.00  0.00    -0.244 N 
HETATM   14  C   UNL     1       5.667  27.719  52.154  1.00  0.00     0.130 A 
BRANCH  11  15
HETATM   15  C   UNL     1       7.014  24.569  53.431  1.00  0.00    -0.005 A 
HETATM   16  C   UNL     1       8.153  23.917  52.940  1.00  0.00     0.014 A 
HETATM   17  C   UNL     1       8.681  22.811  53.611  1.00  0.00     0.001 A 
HETATM   18  C   UNL     1       8.085  22.356  54.785  1.00  0.00     0.000 A 
HETATM   19  C   UNL     1       6.964  23.009  55.295  1.00  0.00     0.001 A 
HETATM   20  C   UNL     1       6.433  24.111  54.622  1.00  0.00     0.014 A 
ENDBRANCH  11  15
BRANCH  13  21
HETATM   21  C   UNL     1       4.927  27.015  49.853  1.00  0.00     0.058 A 
HETATM   22  C   UNL     1       5.103  28.254  49.217  1.00  0.00     0.031 A 
HETATM   23  C   UNL     1       4.545  28.487  47.958  1.00  0.00     0.002 A 
HETATM   24  C   UNL     1       3.809  27.489  47.325  1.00  0.00     0.000 A 
HETATM   25  C   UNL     1       3.629  26.255  47.949  1.00  0.00     0.002 A 
HETATM   26  C   UNL     1       4.187  26.014  49.209  1.00  0.00     0.031 A 
ENDBRANCH  13  21
ENDBRANCH   7  10
BRANCH   1  27
HETATM   27  C   UNL     1       4.897  29.310  54.870  1.00  0.00     0.270 C 
HETATM   28  O   UNL     1       5.388  30.053  54.034  1.00  0.00    -0.265 OA
BRANCH  27  29
HETATM   29  O   UNL     1       3.662  29.459  55.417  1.00  0.00    -0.321 OA
BRANCH  29  30
HETATM   30  C   UNL     1       3.154  30.802  55.490  1.00  0.00     0.174 C 
HETATM   31  C   UNL     1       3.147  31.324  56.916  1.00  0.00     0.034 C 
ENDBRANCH  29  30
ENDBRANCH  27  29
ENDBRANCH   1  27
BRANCH   2  32
HETATM   32  C   UNL     1       6.983  29.656  56.950  1.00  0.00     0.439 C 
HETATM   33  F   UNL     1       7.838  29.804  55.916  1.00  0.00    -0.166 F 
HETATM   34  F   UNL     1       6.174  30.745  56.959  1.00  0.00    -0.166 F 
HETATM   35  F   UNL     1       7.708  29.697  58.089  1.00  0.00    -0.166 F 
ENDBRANCH   2  32
BRANCH   2  36
HETATM   36  O   UNL     1       5.045  28.354  57.773  1.00  0.00    -0.363 OA
HETATM   37  H   UNL     1       4.992  27.452  58.132  1.00  0.00     0.213 HD
ENDBRANCH   2  36
TORSDOF 8
ENDMDL
