MODEL 1
REMARK VINA RESULT:     -10.1      0.000      0.000
REMARK  2 active torsions:
REMARK  status: ('A' for Active; 'I' for Inactive)
REMARK    1  A    between atoms: C_2  and  N_3 
REMARK    2  A    between atoms: N_3  and  C_4 
ROOT
HETATM    1  C   UNL     1       6.116  26.589  55.555  1.00  0.00     0.143 A 
HETATM    2  N   UNL     1       6.200  27.738  56.275  1.00  0.00    -0.223 NA
HETATM    3  C   UNL     1       7.061  27.828  57.293  1.00  0.00     0.236 A 
HETATM    4  N   UNL     1       7.879  26.882  57.732  1.00  0.00    -0.234 NA
HETATM    5  C   UNL     1       7.817  25.765  56.990  1.00  0.00     0.114 A 
HETATM    6  C   UNL     1       7.026  25.538  55.869  1.00  0.00     0.053 A 
HETATM    7  S   UNL     1       8.760  24.427  57.432  1.00  0.00    -0.073 SA
HETATM    8  C   UNL     1       8.189  23.503  56.122  1.00  0.00    -0.008 C 
HETATM    9  C   UNL     1       7.351  24.231  55.285  1.00  0.00    -0.028 C 
HETATM   10  C   UNL     1       6.860  23.680  53.972  1.00  0.00     0.041 C 
HETATM   11  C   UNL     1       7.974  23.154  53.057  1.00  0.00     0.005 C 
HETATM   12  C   UNL     1       8.543  21.793  53.454  1.00  0.00     0.001 C 
HETATM   13  C   UNL     1       9.413  21.812  54.710  1.00  0.00     0.005 C 
HETATM   14  C   UNL     1       8.627  22.073  55.990  1.00  0.00     0.047 C 
ENDROOT
BRANCH   1  15
HETATM   15  N   UNL     1       5.141  26.492  54.548  1.00  0.00    -0.340 N 
HETATM   16  H   UNL     1       4.197  26.550  54.894  1.00  0.00     0.167 HD
BRANCH  15  17
HETATM   17  C   UNL     1       5.195  26.803  53.172  1.00  0.00     0.036 A 
HETATM   18  C   UNL     1       4.916  25.887  52.153  1.00  0.00     0.032 A 
HETATM   19  C   UNL     1       4.995  26.257  50.806  1.00  0.00     0.042 A 
HETATM   20  C   UNL     1       5.297  27.569  50.457  1.00  0.00     0.102 A 
HETATM   21  C   UNL     1       5.537  28.509  51.459  1.00  0.00     0.104 A 
HETATM   22  O   UNL     1       5.446  27.833  49.125  1.00  0.00    -0.348 OA
HETATM   23  C   UNL     1       5.501  28.123  52.802  1.00  0.00     0.069 A 
HETATM   24  O   UNL     1       5.913  29.801  51.203  1.00  0.00    -0.348 OA
HETATM   25  C   UNL     1       4.916  30.514  50.467  1.00  0.00     0.178 C 
HETATM   26  C   UNL     1       4.996  30.230  48.975  1.00  0.00     0.053 C 
HETATM   27  C   UNL     1       4.525  28.819  48.662  1.00  0.00     0.178 C 
ENDBRANCH  15  17
ENDBRANCH   1  15
TORSDOF 2
ENDMDL
MODEL 2
REMARK VINA RESULT:      -9.9      3.832      6.961
REMARK  2 active torsions:
REMARK  status: ('A' for Active; 'I' for Inactive)
REMARK    1  A    between atoms: C_2  and  N_3 
REMARK    2  A    between atoms: N_3  and  C_4 
ROOT
HETATM    1  C   UNL     1       6.644  27.567  54.982  1.00  0.00     0.143 A 
HETATM    2  N   UNL     1       5.450  27.469  54.341  1.00  0.00    -0.223 NA
HETATM    3  C   UNL     1       4.412  28.206  54.745  1.00  0.00     0.236 A 
HETATM    4  N   UNL     1       4.384  29.055  55.763  1.00  0.00    -0.234 NA
HETATM    5  C   UNL     1       5.578  29.174  56.364  1.00  0.00     0.114 A 
HETATM    6  C   UNL     1       6.763  28.530  56.026  1.00  0.00     0.053 A 
HETATM    7  S   UNL     1       5.722  30.182  57.720  1.00  0.00    -0.073 SA
HETATM    8  C   UNL     1       7.381  29.839  57.886  1.00  0.00    -0.008 C 
HETATM    9  C   UNL     1       7.860  29.032  56.860  1.00  0.00    -0.028 C 
HETATM   10  C   UNL     1       9.328  28.735  56.700  1.00  0.00     0.041 C 
HETATM   11  C   UNL     1      10.221  29.982  56.673  1.00  0.00     0.005 C 
HETATM   12  C   UNL     1      10.467  30.627  58.035  1.00  0.00     0.001 C 
HETATM   13  C   UNL     1       9.256  31.354  58.619  1.00  0.00     0.005 C 
HETATM   14  C   UNL     1       8.134  30.417  59.050  1.00  0.00     0.047 C 
ENDROOT
BRANCH   1  15
HETATM   15  N   UNL     1       7.693  26.716  54.591  1.00  0.00    -0.340 N 
HETATM   16  H   UNL     1       8.584  26.968  54.988  1.00  0.00     0.167 HD
BRANCH  15  17
HETATM   17  C   UNL     1       7.687  25.368  54.176  1.00  0.00     0.036 A 
HETATM   18  C   UNL     1       7.795  24.962  52.842  1.00  0.00     0.032 A 
HETATM   19  C   UNL     1       7.775  23.607  52.494  1.00  0.00     0.042 A 
HETATM   20  C   UNL     1       7.707  22.631  53.484  1.00  0.00     0.102 A 
HETATM   21  C   UNL     1       7.641  23.013  54.823  1.00  0.00     0.104 A 
HETATM   22  O   UNL     1       7.599  21.335  53.064  1.00  0.00    -0.348 OA
HETATM   23  C   UNL     1       7.616  24.369  55.162  1.00  0.00     0.069 A 
HETATM   24  O   UNL     1       7.497  22.123  55.853  1.00  0.00    -0.348 OA
HETATM   25  C   UNL     1       8.599  21.216  55.938  1.00  0.00     0.178 C 
HETATM   26  C   UNL     1       8.463  20.059  54.960  1.00  0.00     0.053 C 
HETATM   27  C   UNL     1       8.676  20.524  53.529  1.00  0.00     0.178 C 
ENDBRANCH  15  17
ENDBRANCH   1  15
TORSDOF 2
ENDMDL
MODEL 3
REMARK VINA RESULT:      -9.8      3.551      6.345
REMARK  2 active torsions:
REMARK  status: ('A' for Active; 'I' for Inactive)
REMARK    1  A    between atoms: C_2  and  N_3 
REMARK    2  A    between atoms: N_3  and  C_4 
ROOT
HETATM    1  C   UNL     1       5.232  27.636  54.867  1.00  0.00     0.143 A 
HETATM    2  N   UNL     1       4.201  28.437  54.496  1.00  0.00    -0.223 NA
HETATM    3  C   UNL     1       3.700  28.354  53.260  1.00  0.00     0.236 A 
HETATM    4  N   UNL     1       4.116  27.561  52.283  1.00  0.00    -0.234 NA
HETATM    5  C   UNL     1       5.109  26.745  52.672  1.00  0.00     0.114 A 
HETATM    6  C   UNL     1       5.693  26.665  53.931  1.00  0.00     0.053 A 
HETATM    7  S   UNL     1       5.802  25.691  51.538  1.00  0.00    -0.073 SA
HETATM    8  C   UNL     1       6.879  25.050  52.690  1.00  0.00    -0.008 C 
HETATM    9  C   UNL     1       6.659  25.560  53.964  1.00  0.00    -0.028 C 
HETATM   10  C   UNL     1       7.372  25.019  55.175  1.00  0.00     0.041 C 
HETATM   11  C   UNL     1       7.267  23.496  55.336  1.00  0.00     0.005 C 
HETATM   12  C   UNL     1       8.165  22.687  54.403  1.00  0.00     0.001 C 
HETATM   13  C   UNL     1       7.724  22.689  52.940  1.00  0.00     0.005 C 
HETATM   14  C   UNL     1       7.899  24.038  52.253  1.00  0.00     0.047 C 
ENDROOT
BRANCH   1  15
HETATM   15  N   UNL     1       5.796  27.806  56.144  1.00  0.00    -0.340 N 
HETATM   16  H   UNL     1       5.528  27.091  56.801  1.00  0.00     0.167 HD
BRANCH  15  17
HETATM   17  C   UNL     1       6.981  28.453  56.555  1.00  0.00     0.036 A 
HETATM   18  C   UNL     1       8.058  28.722  55.706  1.00  0.00     0.032 A 
HETATM   19  C   UNL     1       9.210  29.361  56.178  1.00  0.00     0.042 A 
HETATM   20  C   UNL     1       9.278  29.795  57.498  1.00  0.00     0.102 A 
HETATM   21  C   UNL     1       8.198  29.574  58.352  1.00  0.00     0.104 A 
HETATM   22  O   UNL     1      10.468  30.327  57.911  1.00  0.00    -0.348 OA
HETATM   23  C   UNL     1       7.068  28.895  57.886  1.00  0.00     0.069 A 
HETATM   24  O   UNL     1       8.211  29.901  59.681  1.00  0.00    -0.348 OA
HETATM   25  C   UNL     1       8.369  31.307  59.887  1.00  0.00     0.178 C 
HETATM   26  C   UNL     1       9.826  31.737  59.800  1.00  0.00     0.053 C 
HETATM   27  C   UNL     1      10.330  31.671  58.368  1.00  0.00     0.178 C 
ENDBRANCH  15  17
ENDBRANCH   1  15
TORSDOF 2
ENDMDL
MODEL 4
REMARK VINA RESULT:      -9.6      3.243      7.171
REMARK  2 active torsions:
REMARK  status: ('A' for Active; 'I' for Inactive)
REMARK    1  A    between atoms: C_2  and  N_3 
REMARK    2  A    between atoms: N_3  and  C_4 
ROOT
HETATM    1  C   UNL     1       4.490  27.271  53.403  1.00  0.00     0.143 A 
HETATM    2  N   UNL     1       4.167  28.014  54.493  1.00  0.00    -0.223 NA
HETATM    3  C   UNL     1       4.138  29.347  54.409  1.00  0.00     0.236 A 
HETATM    4  N   UNL     1       4.419  30.085  53.345  1.00  0.00    -0.234 NA
HETATM    5  C   UNL     1       4.697  29.341  52.263  1.00  0.00     0.114 A 
HETATM    6  C   UNL     1       4.707  27.954  52.171  1.00  0.00     0.053 A 
HETATM    7  S   UNL     1       5.127  30.116  50.817  1.00  0.00    -0.073 SA
HETATM    8  C   UNL     1       5.300  28.635  49.995  1.00  0.00    -0.008 C 
HETATM    9  C   UNL     1       4.942  27.547  50.781  1.00  0.00    -0.028 C 
HETATM   10  C   UNL     1       4.850  26.152  50.218  1.00  0.00     0.041 C 
HETATM   11  C   UNL     1       3.975  26.040  48.963  1.00  0.00     0.005 C 
HETATM   12  C   UNL     1       4.623  26.551  47.678  1.00  0.00     0.001 C 
HETATM   13  C   UNL     1       4.758  28.071  47.599  1.00  0.00     0.005 C 
HETATM   14  C   UNL     1       5.783  28.642  48.572  1.00  0.00     0.047 C 
ENDROOT
BRANCH   1  15
HETATM   15  N   UNL     1       4.599  25.876  53.543  1.00  0.00    -0.340 N 
HETATM   16  H   UNL     1       4.051  25.360  52.873  1.00  0.00     0.167 HD
BRANCH  15  17
HETATM   17  C   UNL     1       5.632  25.076  54.075  1.00  0.00     0.036 A 
HETATM   18  C   UNL     1       6.018  25.091  55.419  1.00  0.00     0.032 A 
HETATM   19  C   UNL     1       7.057  24.278  55.883  1.00  0.00     0.042 A 
HETATM   20  C   UNL     1       7.689  23.389  55.019  1.00  0.00     0.102 A 
HETATM   21  C   UNL     1       7.292  23.327  53.684  1.00  0.00     0.104 A 
HETATM   22  O   UNL     1       8.754  22.695  55.520  1.00  0.00    -0.348 OA
HETATM   23  C   UNL     1       6.284  24.175  53.216  1.00  0.00     0.069 A 
HETATM   24  O   UNL     1       7.909  22.537  52.751  1.00  0.00    -0.348 OA
HETATM   25  C   UNL     1       7.810  21.148  53.074  1.00  0.00     0.178 C 
HETATM   26  C   UNL     1       8.862  20.720  54.086  1.00  0.00     0.053 C 
HETATM   27  C   UNL     1       8.556  21.284  55.464  1.00  0.00     0.178 C 
ENDBRANCH  15  17
ENDBRANCH   1  15
TORSDOF 2
ENDMDL
MODEL 5
REMARK VINA RESULT:      -9.4      3.327      7.066
REMARK  2 active torsions:
REMARK  status: ('A' for Active; 'I' for Inactive)
REMARK    1  A    between atoms: C_2  and  N_3 
REMARK    2  A    between atoms: N_3  and  C_4 
ROOT
HETATM    1  C   UNL     1       6.202  27.196  54.468  1.00  0.00     0.143 A 
HETATM    2  N   UNL     1       5.965  27.406  55.789  1.00  0.00    -0.223 NA
HETATM    3  C   UNL     1       4.970  28.212  56.169  1.00  0.00     0.236 A 
HETATM    4  N   UNL     1       4.147  28.891  55.381  1.00  0.00    -0.234 NA
HETATM    5  C   UNL     1       4.364  28.645  54.080  1.00  0.00     0.114 A 
HETATM    6  C   UNL     1       5.311  27.790  53.528  1.00  0.00     0.053 A 
HETATM    7  S   UNL     1       3.436  29.464  52.920  1.00  0.00    -0.073 SA
HETATM    8  C   UNL     1       4.226  28.678  51.633  1.00  0.00    -0.008 C 
HETATM    9  C   UNL     1       5.133  27.720  52.072  1.00  0.00    -0.028 C 
HETATM   10  C   UNL     1       5.825  26.780  51.120  1.00  0.00     0.041 C 
HETATM   11  C   UNL     1       4.873  26.024  50.184  1.00  0.00     0.005 C 
HETATM   12  C   UNL     1       4.323  26.849  49.022  1.00  0.00     0.001 C 
HETATM   13  C   UNL     1       3.291  27.901  49.426  1.00  0.00     0.005 C 
HETATM   14  C   UNL     1       3.880  29.059  50.222  1.00  0.00     0.047 C 
ENDROOT
BRANCH   1  15
HETATM   15  N   UNL     1       7.309  26.413  54.096  1.00  0.00    -0.340 N 
HETATM   16  H   UNL     1       8.195  26.845  54.304  1.00  0.00     0.167 HD
BRANCH  15  17
HETATM   17  C   UNL     1       7.450  25.017  53.947  1.00  0.00     0.036 A 
HETATM   18  C   UNL     1       7.752  24.388  52.735  1.00  0.00     0.032 A 
HETATM   19  C   UNL     1       7.870  22.997  52.651  1.00  0.00     0.042 A 
HETATM   20  C   UNL     1       7.746  22.214  53.795  1.00  0.00     0.102 A 
HETATM   21  C   UNL     1       7.486  22.824  55.021  1.00  0.00     0.104 A 
HETATM   22  O   UNL     1       7.782  20.859  53.620  1.00  0.00    -0.348 OA
HETATM   23  C   UNL     1       7.324  24.211  55.090  1.00  0.00     0.069 A 
HETATM   24  O   UNL     1       7.276  22.125  56.180  1.00  0.00    -0.348 OA
HETATM   25  C   UNL     1       8.419  21.354  56.556  1.00  0.00     0.178 C 
HETATM   26  C   UNL     1       8.487  20.031  55.808  1.00  0.00     0.053 C 
HETATM   27  C   UNL     1       8.846  20.248  54.347  1.00  0.00     0.178 C 
ENDBRANCH  15  17
ENDBRANCH   1  15
TORSDOF 2
ENDMDL
MODEL 6
REMARK VINA RESULT:      -9.3      3.518      7.093
REMARK  2 active torsions:
REMARK  status: ('A' for Active; 'I' for Inactive)
REMARK    1  A    between atoms: C_2  and  N_3 
REMARK    2  A    between atoms: N_3  and  C_4 
ROOT
HETATM    1  C   UNL     1       6.475  27.104  52.881  1.00  0.00     0.143 A 
HETATM    2  N   UNL     1       5.815  27.168  51.696  1.00  0.00    -0.223 NA
HETATM    3  C   UNL     1       4.723  27.928  51.580  1.00  0.00     0.236 A 
HETATM    4  N   UNL     1       4.152  28.656  52.530  1.00  0.00    -0.234 NA
HETATM    5  C   UNL     1       4.834  28.617  53.685  1.00  0.00     0.114 A 
HETATM    6  C   UNL     1       6.014  27.930  53.947  1.00  0.00     0.053 A 
HETATM    7  S   UNL     1       4.226  29.451  55.031  1.00  0.00    -0.073 SA
HETATM    8  C   UNL     1       5.535  28.970  56.007  1.00  0.00    -0.008 C 
HETATM    9  C   UNL     1       6.490  28.252  55.298  1.00  0.00    -0.028 C 
HETATM   10  C   UNL     1       7.814  27.868  55.906  1.00  0.00     0.041 C 
HETATM   11  C   UNL     1       8.582  29.041  56.529  1.00  0.00     0.005 C 
HETATM   12  C   UNL     1       8.056  29.507  57.885  1.00  0.00     0.001 C 
HETATM   13  C   UNL     1       6.721  30.249  57.826  1.00  0.00     0.005 C 
HETATM   14  C   UNL     1       5.543  29.354  57.459  1.00  0.00     0.047 C 
ENDROOT
BRANCH   1  15
HETATM   15  N   UNL     1       7.569  26.228  53.000  1.00  0.00    -0.340 N 
HETATM   16  H   UNL     1       8.434  26.693  53.227  1.00  0.00     0.167 HD
BRANCH  15  17
HETATM   17  C   UNL     1       7.628  24.859  53.333  1.00  0.00     0.036 A 
HETATM   18  C   UNL     1       7.866  23.839  52.407  1.00  0.00     0.032 A 
HETATM   19  C   UNL     1       7.905  22.497  52.800  1.00  0.00     0.042 A 
HETATM   20  C   UNL     1       7.765  22.158  54.142  1.00  0.00     0.102 A 
HETATM   21  C   UNL     1       7.568  23.162  55.089  1.00  0.00     0.104 A 
HETATM   22  O   UNL     1       7.721  20.825  54.439  1.00  0.00    -0.348 OA
HETATM   23  C   UNL     1       7.486  24.497  54.684  1.00  0.00     0.069 A 
HETATM   24  O   UNL     1       7.348  22.911  56.417  1.00  0.00    -0.348 OA
HETATM   25  C   UNL     1       8.455  22.246  57.029  1.00  0.00     0.178 C 
HETATM   26  C   UNL     1       8.432  20.746  56.775  1.00  0.00     0.053 C 
HETATM   27  C   UNL     1       8.767  20.433  55.326  1.00  0.00     0.178 C 
ENDBRANCH  15  17
ENDBRANCH   1  15
TORSDOF 2
ENDMDL
MODEL 7
REMARK VINA RESULT:      -9.1      3.507      7.123
REMARK  2 active torsions:
REMARK  status: ('A' for Active; 'I' for Inactive)
REMARK    1  A    between atoms: C_2  and  N_3 
REMARK    2  A    between atoms: N_3  and  C_4 
ROOT
HETATM    1  C   UNL     1       4.103  27.678  53.106  1.00  0.00     0.143 A 
HETATM    2  N   UNL     1       3.717  28.506  54.111  1.00  0.00    -0.223 NA
HETATM    3  C   UNL     1       3.768  29.831  53.943  1.00  0.00     0.236 A 
HETATM    4  N   UNL     1       4.189  30.483  52.869  1.00  0.00    -0.234 NA
HETATM    5  C   UNL     1       4.531  29.657  51.868  1.00  0.00     0.114 A 
HETATM    6  C   UNL     1       4.474  28.267  51.862  1.00  0.00     0.053 A 
HETATM    7  S   UNL     1       5.141  30.313  50.428  1.00  0.00    -0.073 SA
HETATM    8  C   UNL     1       5.312  28.775  49.719  1.00  0.00    -0.008 C 
HETATM    9  C   UNL     1       4.821  27.759  50.530  1.00  0.00    -0.028 C 
HETATM   10  C   UNL     1       4.709  26.336  50.047  1.00  0.00     0.041 C 
HETATM   11  C   UNL     1       3.955  26.183  48.720  1.00  0.00     0.005 C 
HETATM   12  C   UNL     1       4.751  26.577  47.478  1.00  0.00     0.001 C 
HETATM   13  C   UNL     1       4.976  28.080  47.320  1.00  0.00     0.005 C 
HETATM   14  C   UNL     1       5.930  28.665  48.354  1.00  0.00     0.047 C 
ENDROOT
BRANCH   1  15
HETATM   15  N   UNL     1       4.122  26.292  53.341  1.00  0.00    -0.340 N 
HETATM   16  H   UNL     1       3.504  25.773  52.738  1.00  0.00     0.167 HD
BRANCH  15  17
HETATM   17  C   UNL     1       5.126  25.457  53.876  1.00  0.00     0.036 A 
HETATM   18  C   UNL     1       5.849  24.525  53.125  1.00  0.00     0.032 A 
HETATM   19  C   UNL     1       6.827  23.720  53.718  1.00  0.00     0.042 A 
HETATM   20  C   UNL     1       7.140  23.877  55.065  1.00  0.00     0.102 A 
HETATM   21  C   UNL     1       6.461  24.830  55.823  1.00  0.00     0.104 A 
HETATM   22  O   UNL     1       8.039  22.995  55.595  1.00  0.00    -0.348 OA
HETATM   23  C   UNL     1       5.453  25.600  55.235  1.00  0.00     0.069 A 
HETATM   24  O   UNL     1       6.654  24.999  57.168  1.00  0.00    -0.348 OA
HETATM   25  C   UNL     1       7.994  25.391  57.473  1.00  0.00     0.178 C 
HETATM   26  C   UNL     1       8.941  24.201  57.519  1.00  0.00     0.053 C 
HETATM   27  C   UNL     1       9.191  23.648  56.125  1.00  0.00     0.178 C 
ENDBRANCH  15  17
ENDBRANCH   1  15
TORSDOF 2
ENDMDL
MODEL 8
REMARK VINA RESULT:      -8.7      5.869      9.453
REMARK  2 active torsions:
REMARK  status: ('A' for Active; 'I' for Inactive)
REMARK    1  A    between atoms: C_2  and  N_3 
REMARK    2  A    between atoms: N_3  and  C_4 
ROOT
HETATM    1  C   UNL     1       6.332  31.994  58.984  1.00  0.00     0.143 A 
HETATM    2  N   UNL     1       5.879  32.417  57.776  1.00  0.00    -0.223 NA
HETATM    3  C   UNL     1       4.941  33.366  57.708  1.00  0.00     0.236 A 
HETATM    4  N   UNL     1       4.343  33.971  58.725  1.00  0.00    -0.234 NA
HETATM    5  C   UNL     1       4.825  33.574  59.913  1.00  0.00     0.114 A 
HETATM    6  C   UNL     1       5.837  32.650  60.149  1.00  0.00     0.053 A 
HETATM    7  S   UNL     1       4.145  34.206  61.332  1.00  0.00    -0.073 SA
HETATM    8  C   UNL     1       5.202  33.310  62.320  1.00  0.00    -0.008 C 
HETATM    9  C   UNL     1       6.141  32.597  61.584  1.00  0.00    -0.028 C 
HETATM   10  C   UNL     1       7.283  31.867  62.240  1.00  0.00     0.041 C 
HETATM   11  C   UNL     1       8.109  32.732  63.202  1.00  0.00     0.005 C 
HETATM   12  C   UNL     1       7.453  32.993  64.557  1.00  0.00     0.001 C 
HETATM   13  C   UNL     1       6.267  33.956  64.511  1.00  0.00     0.005 C 
HETATM   14  C   UNL     1       5.042  33.379  63.812  1.00  0.00     0.047 C 
ENDROOT
BRANCH   1  15
HETATM   15  N   UNL     1       7.254  30.934  59.028  1.00  0.00    -0.340 N 
HETATM   16  H   UNL     1       7.609  30.747  59.951  1.00  0.00     0.167 HD
BRANCH  15  17
HETATM   17  C   UNL     1       7.418  29.813  58.186  1.00  0.00     0.036 A 
HETATM   18  C   UNL     1       8.661  29.283  57.826  1.00  0.00     0.032 A 
HETATM   19  C   UNL     1       8.757  28.172  56.980  1.00  0.00     0.042 A 
HETATM   20  C   UNL     1       7.605  27.535  56.529  1.00  0.00     0.102 A 
HETATM   21  C   UNL     1       6.355  28.022  56.910  1.00  0.00     0.104 A 
HETATM   22  O   UNL     1       7.775  26.516  55.635  1.00  0.00    -0.348 OA
HETATM   23  C   UNL     1       6.266  29.159  57.719  1.00  0.00     0.069 A 
HETATM   24  O   UNL     1       5.174  27.502  56.454  1.00  0.00    -0.348 OA
HETATM   25  C   UNL     1       5.004  26.136  56.837  1.00  0.00     0.178 C 
HETATM   26  C   UNL     1       5.744  25.185  55.909  1.00  0.00     0.053 C 
HETATM   27  C   UNL     1       7.248  25.281  56.115  1.00  0.00     0.178 C 
ENDBRANCH  15  17
ENDBRANCH   1  15
TORSDOF 2
ENDMDL
MODEL 9
REMARK VINA RESULT:      -8.6      1.989      2.409
REMARK  2 active torsions:
REMARK  status: ('A' for Active; 'I' for Inactive)
REMARK    1  A    between atoms: C_2  and  N_3 
REMARK    2  A    between atoms: N_3  and  C_4 
ROOT
HETATM    1  C   UNL     1       5.767  27.454  56.263  1.00  0.00     0.143 A 
HETATM    2  N   UNL     1       6.080  28.479  57.097  1.00  0.00    -0.223 NA
HETATM    3  C   UNL     1       7.142  28.386  57.902  1.00  0.00     0.236 A 
HETATM    4  N   UNL     1       7.968  27.355  58.017  1.00  0.00    -0.234 NA
HETATM    5  C   UNL     1       7.673  26.364  57.161  1.00  0.00     0.114 A 
HETATM    6  C   UNL     1       6.648  26.334  56.222  1.00  0.00     0.053 A 
HETATM    7  S   UNL     1       8.595  24.941  57.198  1.00  0.00    -0.073 SA
HETATM    8  C   UNL     1       7.696  24.243  55.933  1.00  0.00    -0.008 C 
HETATM    9  C   UNL     1       6.752  25.118  55.408  1.00  0.00    -0.028 C 
HETATM   10  C   UNL     1       5.956  24.785  54.173  1.00  0.00     0.041 C 
HETATM   11  C   UNL     1       6.811  24.359  52.972  1.00  0.00     0.005 C 
HETATM   12  C   UNL     1       7.357  22.935  53.044  1.00  0.00     0.001 C 
HETATM   13  C   UNL     1       8.473  22.735  54.069  1.00  0.00     0.005 C 
HETATM   14  C   UNL     1       7.997  22.833  55.514  1.00  0.00     0.047 C 
ENDROOT
BRANCH   1  15
HETATM   15  N   UNL     1       4.595  27.543  55.491  1.00  0.00    -0.340 N 
HETATM   16  H   UNL     1       3.756  27.329  56.007  1.00  0.00     0.167 HD
BRANCH  15  17
HETATM   17  C   UNL     1       4.300  28.300  54.337  1.00  0.00     0.036 A 
HETATM   18  C   UNL     1       4.073  27.743  53.075  1.00  0.00     0.032 A 
HETATM   19  C   UNL     1       3.793  28.550  51.967  1.00  0.00     0.042 A 
HETATM   20  C   UNL     1       3.676  29.928  52.118  1.00  0.00     0.102 A 
HETATM   21  C   UNL     1       3.857  30.501  53.376  1.00  0.00     0.104 A 
HETATM   22  O   UNL     1       3.492  30.658  50.977  1.00  0.00    -0.348 OA
HETATM   23  C   UNL     1       4.181  29.694  54.470  1.00  0.00     0.069 A 
HETATM   24  O   UNL     1       3.833  31.852  53.598  1.00  0.00    -0.348 OA
HETATM   25  C   UNL     1       2.565  32.427  53.275  1.00  0.00     0.178 C 
HETATM   26  C   UNL     1       2.424  32.701  51.786  1.00  0.00     0.053 C 
HETATM   27  C   UNL     1       2.278  31.406  51.003  1.00  0.00     0.178 C 
ENDBRANCH  15  17
ENDBRANCH   1  15
TORSDOF 2
ENDMDL
MODEL 10
REMARK VINA RESULT:      -8.6      4.764      8.298
REMARK  2 active torsions:
REMARK  status: ('A' for Active; 'I' for Inactive)
REMARK    1  A    between atoms: C_2  and  N_3 
REMARK    2  A    between atoms: N_3  and  C_4 
ROOT
HETATM    1  C   UNL     1       6.161  30.996  57.214  1.00  0.00     0.143 A 
HETATM    2  N   UNL     1       5.243  31.508  56.355  1.00  0.00    -0.223 NA
HETATM    3  C   UNL     1       4.373  32.430  56.778  1.00  0.00     0.236 A 
HETATM    4  N   UNL     1       4.268  32.925  58.003  1.00  0.00    -0.234 NA
HETATM    5  C   UNL     1       5.205  32.441  58.834  1.00  0.00     0.114 A 
HETATM    6  C   UNL     1       6.213  31.532  58.533  1.00  0.00     0.053 A 
HETATM    7  S   UNL     1       5.196  32.926  60.459  1.00  0.00    -0.073 SA
HETATM    8  C   UNL     1       6.564  31.980  60.820  1.00  0.00    -0.008 C 
HETATM    9  C   UNL     1       7.096  31.364  59.694  1.00  0.00    -0.028 C 
HETATM   10  C   UNL     1       8.403  30.615  59.735  1.00  0.00     0.041 C 
HETATM   11  C   UNL     1       9.566  31.418  60.333  1.00  0.00     0.005 C 
HETATM   12  C   UNL     1       9.549  31.540  61.855  1.00  0.00     0.001 C 
HETATM   13  C   UNL     1       8.464  32.465  62.404  1.00  0.00     0.005 C 
HETATM   14  C   UNL     1       7.052  31.913  62.239  1.00  0.00     0.047 C 
ENDROOT
BRANCH   1  15
HETATM   15  N   UNL     1       7.006  29.965  56.765  1.00  0.00    -0.340 N 
HETATM   16  H   UNL     1       7.985  30.161  56.896  1.00  0.00     0.167 HD
BRANCH  15  17
HETATM   17  C   UNL     1       6.782  28.578  56.625  1.00  0.00     0.036 A 
HETATM   18  C   UNL     1       5.845  28.024  55.747  1.00  0.00     0.032 A 
HETATM   19  C   UNL     1       5.665  26.639  55.660  1.00  0.00     0.042 A 
HETATM   20  C   UNL     1       6.465  25.782  56.410  1.00  0.00     0.102 A 
HETATM   21  C   UNL     1       7.434  26.312  57.260  1.00  0.00     0.104 A 
HETATM   22  O   UNL     1       6.170  24.449  56.342  1.00  0.00    -0.348 OA
HETATM   23  C   UNL     1       7.578  27.698  57.376  1.00  0.00     0.069 A 
HETATM   24  O   UNL     1       8.212  25.545  58.086  1.00  0.00    -0.348 OA
HETATM   25  C   UNL     1       9.036  24.634  57.355  1.00  0.00     0.178 C 
HETATM   26  C   UNL     1       8.280  23.377  56.952  1.00  0.00     0.053 C 
HETATM   27  C   UNL     1       7.267  23.676  55.859  1.00  0.00     0.178 C 
ENDBRANCH  15  17
ENDBRANCH   1  15
TORSDOF 2
ENDMDL
