MODEL 1
REMARK VINA RESULT:      -8.1      0.000      0.000
REMARK  4 active torsions:
REMARK  status: ('A' for Active; 'I' for Inactive)
REMARK    1  A    between atoms: O_2  and  C_3 
REMARK    2  A    between atoms: C_4  and  O_5 
REMARK    3  A    between atoms: C_9  and  C_10 
REMARK    4  A    between atoms: C_10  and  N_11 
ROOT
HETATM    1  N   UNL     1       6.312  25.646  52.215  1.00  0.00    -0.066 N 
HETATM    2  H   UNL     1       6.342  24.936  51.473  1.00  0.00     0.280 HD
HETATM    3  C   UNL     1       5.148  25.215  53.093  1.00  0.00     0.246 C 
HETATM    4  C   UNL     1       4.518  26.361  53.907  1.00  0.00     0.062 C 
HETATM    5  C   UNL     1       4.119  27.496  52.972  1.00  0.00     0.020 C 
HETATM    6  C   UNL     1       5.393  28.033  52.338  1.00  0.00     0.031 C 
HETATM    7  C   UNL     1       6.290  28.626  53.429  1.00  0.00     0.138 C 
HETATM    8  N   UNL     1       6.339  27.895  54.696  1.00  0.00    -0.317 N 
HETATM    9  C   UNL     1       5.447  26.861  54.992  1.00  0.00     0.020 A 
HETATM   10  C   UNL     1       5.431  26.323  56.224  1.00  0.00     0.026 A 
HETATM   11  C   UNL     1       7.253  28.386  55.642  1.00  0.00     0.247 A 
HETATM   12  O   UNL     1       8.072  29.267  55.401  1.00  0.00    -0.268 OA
HETATM   13  C   UNL     1       7.216  27.757  56.985  1.00  0.00     0.074 A 
HETATM   14  C   UNL     1       6.339  26.783  57.243  1.00  0.00     0.007 A 
HETATM   15  C   UNL     1       6.078  26.953  51.491  1.00  0.00     0.241 C 
ENDROOT
BRANCH   1  16
HETATM   16  C   UNL     1       7.703  25.530  52.818  1.00  0.00     0.273 C 
BRANCH  16  17
HETATM   17  C   UNL     1       7.923  24.285  53.638  1.00  0.00    -0.028 A 
HETATM   18  C   UNL     1       8.052  23.037  53.005  1.00  0.00     0.031 A 
HETATM   19  C   UNL     1       8.221  21.870  53.757  1.00  0.00     0.047 A 
HETATM   20  C   UNL     1       8.254  21.934  55.149  1.00  0.00     0.116 A 
HETATM   21 BR   UNL     1       8.365  20.224  52.830  1.00  0.00    -0.048 Br
HETATM   22  C   UNL     1       8.174  23.175  55.784  1.00  0.00     0.103 A 
HETATM   23  C   UNL     1       7.988  24.343  55.038  1.00  0.00     0.048 A 
BRANCH  20  24
HETATM   24  O   UNL     1       8.321  20.784  55.883  1.00  0.00    -0.357 OA
HETATM   25  H   UNL     1       7.411  20.554  56.147  1.00  0.00     0.218 HD
ENDBRANCH  20  24
BRANCH  22  26
HETATM   26  O   UNL     1       8.191  23.309  57.147  1.00  0.00    -0.353 OA
HETATM   27  C   UNL     1       8.985  24.421  57.577  1.00  0.00     0.210 C 
ENDBRANCH  22  26
ENDBRANCH  16  17
ENDBRANCH   1  16
TORSDOF 4
ENDMDL
MODEL 2
REMARK VINA RESULT:      -7.9      1.455      2.244
REMARK  4 active torsions:
REMARK  status: ('A' for Active; 'I' for Inactive)
REMARK    1  A    between atoms: O_2  and  C_3 
REMARK    2  A    between atoms: C_4  and  O_5 
REMARK    3  A    between atoms: C_9  and  C_10 
REMARK    4  A    between atoms: C_10  and  N_11 
ROOT
HETATM    1  N   UNL     1       6.230  25.285  52.225  1.00  0.00    -0.066 N 
HETATM    2  H   UNL     1       6.154  24.501  51.566  1.00  0.00     0.280 HD
HETATM    3  C   UNL     1       5.114  25.036  53.227  1.00  0.00     0.246 C 
HETATM    4  C   UNL     1       4.628  26.306  53.952  1.00  0.00     0.062 C 
HETATM    5  C   UNL     1       4.231  27.362  52.929  1.00  0.00     0.020 C 
HETATM    6  C   UNL     1       5.483  27.733  52.149  1.00  0.00     0.031 C 
HETATM    7  C   UNL     1       6.500  28.370  53.099  1.00  0.00     0.138 C 
HETATM    8  N   UNL     1       6.603  27.775  54.433  1.00  0.00    -0.317 N 
HETATM    9  C   UNL     1       5.671  26.847  54.905  1.00  0.00     0.020 A 
HETATM   10  C   UNL     1       5.719  26.445  56.187  1.00  0.00     0.026 A 
HETATM   11  C   UNL     1       7.619  28.294  55.250  1.00  0.00     0.247 A 
HETATM   12  O   UNL     1       8.473  29.082  54.855  1.00  0.00    -0.268 OA
HETATM   13  C   UNL     1       7.649  27.815  56.653  1.00  0.00     0.074 A 
HETATM   14  C   UNL     1       6.733  26.941  57.081  1.00  0.00     0.007 A 
HETATM   15  C   UNL     1       6.026  26.523  51.379  1.00  0.00     0.241 C 
ENDROOT
BRANCH   1  16
HETATM   16  C   UNL     1       7.654  25.131  52.735  1.00  0.00     0.273 C 
BRANCH  16  17
HETATM   17  C   UNL     1       7.828  24.056  53.775  1.00  0.00    -0.028 A 
HETATM   18  C   UNL     1       8.150  24.400  55.098  1.00  0.00     0.031 A 
HETATM   19  C   UNL     1       8.349  23.410  56.066  1.00  0.00     0.047 A 
HETATM   20  C   UNL     1       8.240  22.064  55.720  1.00  0.00     0.116 A 
HETATM   21 BR   UNL     1       8.801  23.955  57.823  1.00  0.00    -0.048 Br
HETATM   22  C   UNL     1       7.875  21.713  54.418  1.00  0.00     0.103 A 
HETATM   23  C   UNL     1       7.691  22.699  53.444  1.00  0.00     0.048 A 
BRANCH  20  24
HETATM   24  O   UNL     1       8.531  21.097  56.641  1.00  0.00    -0.357 OA
HETATM   25  H   UNL     1       7.688  20.806  57.034  1.00  0.00     0.218 HD
ENDBRANCH  20  24
BRANCH  22  26
HETATM   26  O   UNL     1       7.760  20.411  54.009  1.00  0.00    -0.353 OA
HETATM   27  C   UNL     1       8.480  20.153  52.798  1.00  0.00     0.210 C 
ENDBRANCH  22  26
ENDBRANCH  16  17
ENDBRANCH   1  16
TORSDOF 4
ENDMDL
MODEL 3
REMARK VINA RESULT:      -7.4      2.074      3.360
REMARK  4 active torsions:
REMARK  status: ('A' for Active; 'I' for Inactive)
REMARK    1  A    between atoms: O_2  and  C_3 
REMARK    2  A    between atoms: C_4  and  O_5 
REMARK    3  A    between atoms: C_9  and  C_10 
REMARK    4  A    between atoms: C_10  and  N_11 
ROOT
HETATM    1  N   UNL     1       5.871  26.293  56.365  1.00  0.00    -0.066 N 
HETATM    2  H   UNL     1       5.329  25.433  56.512  1.00  0.00     0.280 HD
HETATM    3  C   UNL     1       5.361  27.240  57.440  1.00  0.00     0.246 C 
HETATM    4  C   UNL     1       5.554  28.731  57.104  1.00  0.00     0.062 C 
HETATM    5  C   UNL     1       4.927  29.038  55.750  1.00  0.00     0.020 C 
HETATM    6  C   UNL     1       5.685  28.234  54.705  1.00  0.00     0.031 C 
HETATM    7  C   UNL     1       7.140  28.708  54.658  1.00  0.00     0.138 C 
HETATM    8  N   UNL     1       7.759  29.026  55.946  1.00  0.00    -0.317 N 
HETATM    9  C   UNL     1       7.013  29.131  57.123  1.00  0.00     0.020 A 
HETATM   10  C   UNL     1       7.599  29.575  58.249  1.00  0.00     0.026 A 
HETATM   11  C   UNL     1       9.125  29.346  55.897  1.00  0.00     0.247 A 
HETATM   12  O   UNL     1       9.814  29.231  54.889  1.00  0.00    -0.268 OA
HETATM   13  C   UNL     1       9.740  29.817  57.162  1.00  0.00     0.074 A 
HETATM   14  C   UNL     1       8.996  29.924  58.267  1.00  0.00     0.007 A 
HETATM   15  C   UNL     1       5.530  26.729  54.957  1.00  0.00     0.241 C 
ENDROOT
BRANCH   1  16
HETATM   16  C   UNL     1       7.299  25.794  56.514  1.00  0.00     0.273 C 
BRANCH  16  17
HETATM   17  C   UNL     1       7.620  24.572  55.695  1.00  0.00    -0.028 A 
HETATM   18  C   UNL     1       7.926  23.357  56.330  1.00  0.00     0.031 A 
HETATM   19  C   UNL     1       8.260  22.224  55.581  1.00  0.00     0.047 A 
HETATM   20  C   UNL     1       8.302  22.294  54.189  1.00  0.00     0.116 A 
HETATM   21 BR   UNL     1       8.681  20.629  56.513  1.00  0.00    -0.048 Br
HETATM   22  C   UNL     1       7.953  23.485  53.548  1.00  0.00     0.103 A 
HETATM   23  C   UNL     1       7.635  24.624  54.292  1.00  0.00     0.048 A 
BRANCH  20  24
HETATM   24  O   UNL     1       8.723  21.215  53.464  1.00  0.00    -0.357 OA
HETATM   25  H   UNL     1       8.513  21.393  52.529  1.00  0.00     0.218 HD
ENDBRANCH  20  24
BRANCH  22  26
HETATM   26  O   UNL     1       7.983  23.625  52.186  1.00  0.00    -0.353 OA
HETATM   27  C   UNL     1       7.599  24.939  51.764  1.00  0.00     0.210 C 
ENDBRANCH  22  26
ENDBRANCH  16  17
ENDBRANCH   1  16
TORSDOF 4
ENDMDL
MODEL 4
REMARK VINA RESULT:      -7.1      9.331     12.287
REMARK  4 active torsions:
REMARK  status: ('A' for Active; 'I' for Inactive)
REMARK    1  A    between atoms: O_2  and  C_3 
REMARK    2  A    between atoms: C_4  and  O_5 
REMARK    3  A    between atoms: C_9  and  C_10 
REMARK    4  A    between atoms: C_10  and  N_11 
ROOT
HETATM    1  N   UNL     1       5.638  33.387  64.424  1.00  0.00    -0.066 N 
HETATM    2  H   UNL     1       6.385  32.797  64.812  1.00  0.00     0.280 HD
HETATM    3  C   UNL     1       6.366  34.627  63.928  1.00  0.00     0.246 C 
HETATM    4  C   UNL     1       5.477  35.882  63.843  1.00  0.00     0.062 C 
HETATM    5  C   UNL     1       4.807  36.131  65.189  1.00  0.00     0.020 C 
HETATM    6  C   UNL     1       3.896  34.945  65.470  1.00  0.00     0.031 C 
HETATM    7  C   UNL     1       2.794  34.891  64.408  1.00  0.00     0.138 C 
HETATM    8  N   UNL     1       3.198  35.212  63.038  1.00  0.00    -0.317 N 
HETATM    9  C   UNL     1       4.444  35.770  62.742  1.00  0.00     0.020 A 
HETATM   10  C   UNL     1       4.710  36.189  61.493  1.00  0.00     0.026 A 
HETATM   11  C   UNL     1       2.204  35.045  62.061  1.00  0.00     0.247 A 
HETATM   12  O   UNL     1       1.114  34.527  62.281  1.00  0.00    -0.268 OA
HETATM   13  C   UNL     1       2.540  35.504  60.691  1.00  0.00     0.074 A 
HETATM   14  C   UNL     1       3.734  36.051  60.443  1.00  0.00     0.007 A 
HETATM   15  C   UNL     1       4.708  33.649  65.587  1.00  0.00     0.241 C 
ENDROOT
BRANCH   1  16
HETATM   16  C   UNL     1       5.039  32.476  63.364  1.00  0.00     0.273 C 
BRANCH  16  17
HETATM   17  C   UNL     1       5.909  32.275  62.152  1.00  0.00    -0.028 A 
HETATM   18  C   UNL     1       7.175  31.680  62.283  1.00  0.00     0.031 A 
HETATM   19  C   UNL     1       8.008  31.520  61.171  1.00  0.00     0.047 A 
HETATM   20  C   UNL     1       7.590  31.961  59.917  1.00  0.00     0.116 A 
HETATM   21 BR   UNL     1       9.709  30.728  61.435  1.00  0.00    -0.048 Br
HETATM   22  C   UNL     1       6.315  32.511  59.768  1.00  0.00     0.103 A 
HETATM   23  C   UNL     1       5.486  32.689  60.880  1.00  0.00     0.048 A 
BRANCH  20  24
HETATM   24  O   UNL     1       8.443  31.894  58.851  1.00  0.00    -0.357 OA
HETATM   25  H   UNL     1       7.983  31.408  58.141  1.00  0.00     0.218 HD
ENDBRANCH  20  24
BRANCH  22  26
HETATM   26  O   UNL     1       5.846  32.973  58.567  1.00  0.00    -0.353 OA
HETATM   27  C   UNL     1       4.416  32.941  58.491  1.00  0.00     0.210 C 
ENDBRANCH  22  26
ENDBRANCH  16  17
ENDBRANCH   1  16
TORSDOF 4
ENDMDL
MODEL 5
REMARK VINA RESULT:      -7.0      3.360      6.546
REMARK  4 active torsions:
REMARK  status: ('A' for Active; 'I' for Inactive)
REMARK    1  A    between atoms: O_2  and  C_3 
REMARK    2  A    between atoms: C_4  and  O_5 
REMARK    3  A    between atoms: C_9  and  C_10 
REMARK    4  A    between atoms: C_10  and  N_11 
ROOT
HETATM    1  N   UNL     1       6.761  27.081  56.579  1.00  0.00    -0.066 N 
HETATM    2  H   UNL     1       6.664  27.714  57.382  1.00  0.00     0.280 HD
HETATM    3  C   UNL     1       5.449  26.312  56.554  1.00  0.00     0.246 C 
HETATM    4  C   UNL     1       5.539  24.941  55.857  1.00  0.00     0.062 C 
HETATM    5  C   UNL     1       6.655  24.117  56.486  1.00  0.00     0.020 C 
HETATM    6  C   UNL     1       7.963  24.848  56.226  1.00  0.00     0.031 C 
HETATM    7  C   UNL     1       8.222  24.901  54.717  1.00  0.00     0.138 C 
HETATM    8  N   UNL     1       7.054  25.138  53.867  1.00  0.00    -0.317 N 
HETATM    9  C   UNL     1       5.749  25.079  54.364  1.00  0.00     0.020 A 
HETATM   10  C   UNL     1       4.707  25.152  53.518  1.00  0.00     0.026 A 
HETATM   11  C   UNL     1       7.325  25.300  52.500  1.00  0.00     0.247 A 
HETATM   12  O   UNL     1       8.457  25.391  52.037  1.00  0.00    -0.268 OA
HETATM   13  C   UNL     1       6.150  25.393  51.599  1.00  0.00     0.074 A 
HETATM   14  C   UNL     1       4.914  25.314  52.103  1.00  0.00     0.007 A 
HETATM   15  C   UNL     1       7.964  26.223  56.903  1.00  0.00     0.241 C 
ENDROOT
BRANCH   1  16
HETATM   16  C   UNL     1       7.004  28.056  55.438  1.00  0.00     0.273 C 
BRANCH  16  17
HETATM   17  C   UNL     1       5.805  28.888  55.066  1.00  0.00    -0.028 A 
HETATM   18  C   UNL     1       5.135  28.657  53.853  1.00  0.00     0.031 A 
HETATM   19  C   UNL     1       4.042  29.446  53.479  1.00  0.00     0.047 A 
HETATM   20  C   UNL     1       3.613  30.482  54.307  1.00  0.00     0.116 A 
HETATM   21 BR   UNL     1       3.206  29.085  51.817  1.00  0.00    -0.048 Br
HETATM   22  C   UNL     1       4.243  30.689  55.537  1.00  0.00     0.103 A 
HETATM   23  C   UNL     1       5.346  29.914  55.906  1.00  0.00     0.048 A 
BRANCH  20  24
HETATM   24  O   UNL     1       2.610  31.313  53.896  1.00  0.00    -0.357 OA
HETATM   25  H   UNL     1       2.329  31.016  53.010  1.00  0.00     0.218 HD
ENDBRANCH  20  24
BRANCH  22  26
HETATM   26  O   UNL     1       3.878  31.693  56.393  1.00  0.00    -0.353 OA
HETATM   27  C   UNL     1       3.614  31.212  57.717  1.00  0.00     0.210 C 
ENDBRANCH  22  26
ENDBRANCH  16  17
ENDBRANCH   1  16
TORSDOF 4
ENDMDL
MODEL 6
REMARK VINA RESULT:      -6.9      2.230      4.153
REMARK  4 active torsions:
REMARK  status: ('A' for Active; 'I' for Inactive)
REMARK    1  A    between atoms: O_2  and  C_3 
REMARK    2  A    between atoms: C_4  and  O_5 
REMARK    3  A    between atoms: C_9  and  C_10 
REMARK    4  A    between atoms: C_10  and  N_11 
ROOT
HETATM    1  N   UNL     1       7.918  26.917  57.295  1.00  0.00    -0.066 N 
HETATM    2  H   UNL     1       8.587  26.302  57.774  1.00  0.00     0.280 HD
HETATM    3  C   UNL     1       8.642  27.335  56.025  1.00  0.00     0.246 C 
HETATM    4  C   UNL     1       8.143  28.666  55.429  1.00  0.00     0.062 C 
HETATM    5  C   UNL     1       8.202  29.758  56.489  1.00  0.00     0.020 C 
HETATM    6  C   UNL     1       7.240  29.367  57.599  1.00  0.00     0.031 C 
HETATM    7  C   UNL     1       5.813  29.337  57.045  1.00  0.00     0.138 C 
HETATM    8  N   UNL     1       5.653  28.794  55.695  1.00  0.00    -0.317 N 
HETATM    9  C   UNL     1       6.746  28.542  54.862  1.00  0.00     0.020 A 
HETATM   10  C   UNL     1       6.542  28.189  53.581  1.00  0.00     0.026 A 
HETATM   11  C   UNL     1       4.328  28.666  55.248  1.00  0.00     0.247 A 
HETATM   12  O   UNL     1       3.349  28.845  55.965  1.00  0.00    -0.268 OA
HETATM   13  C   UNL     1       4.144  28.259  53.834  1.00  0.00     0.074 A 
HETATM   14  C   UNL     1       5.209  28.044  53.056  1.00  0.00     0.007 A 
HETATM   15  C   UNL     1       7.675  28.054  58.262  1.00  0.00     0.241 C 
ENDROOT
BRANCH   1  16
HETATM   16  C   UNL     1       6.716  26.000  57.126  1.00  0.00     0.273 C 
BRANCH  16  17
HETATM   17  C   UNL     1       6.940  24.850  56.180  1.00  0.00    -0.028 A 
HETATM   18  C   UNL     1       7.517  23.656  56.645  1.00  0.00     0.031 A 
HETATM   19  C   UNL     1       7.761  22.594  55.769  1.00  0.00     0.047 A 
HETATM   20  C   UNL     1       7.442  22.714  54.418  1.00  0.00     0.116 A 
HETATM   21 BR   UNL     1       8.562  21.025  56.469  1.00  0.00    -0.048 Br
HETATM   22  C   UNL     1       6.825  23.879  53.956  1.00  0.00     0.103 A 
HETATM   23  C   UNL     1       6.594  24.950  54.824  1.00  0.00     0.048 A 
BRANCH  20  24
HETATM   24  O   UNL     1       7.772  21.714  53.547  1.00  0.00    -0.357 OA
HETATM   25  H   UNL     1       8.719  21.812  53.336  1.00  0.00     0.218 HD
ENDBRANCH  20  24
BRANCH  22  26
HETATM   26  O   UNL     1       6.495  24.067  52.640  1.00  0.00    -0.353 OA
HETATM   27  C   UNL     1       7.436  24.900  51.954  1.00  0.00     0.210 C 
ENDBRANCH  22  26
ENDBRANCH  16  17
ENDBRANCH   1  16
TORSDOF 4
ENDMDL
MODEL 7
REMARK VINA RESULT:      -6.9      2.991      5.780
REMARK  4 active torsions:
REMARK  status: ('A' for Active; 'I' for Inactive)
REMARK    1  A    between atoms: O_2  and  C_3 
REMARK    2  A    between atoms: C_4  and  O_5 
REMARK    3  A    between atoms: C_9  and  C_10 
REMARK    4  A    between atoms: C_10  and  N_11 
ROOT
HETATM    1  N   UNL     1       6.474  27.274  53.202  1.00  0.00    -0.066 N 
HETATM    2  H   UNL     1       6.419  28.197  52.753  1.00  0.00     0.280 HD
HETATM    3  C   UNL     1       6.511  26.298  52.036  1.00  0.00     0.246 C 
HETATM    4  C   UNL     1       6.016  24.882  52.389  1.00  0.00     0.062 C 
HETATM    5  C   UNL     1       4.624  24.962  53.004  1.00  0.00     0.020 C 
HETATM    6  C   UNL     1       4.746  25.740  54.305  1.00  0.00     0.031 C 
HETATM    7  C   UNL     1       5.637  24.963  55.278  1.00  0.00     0.138 C 
HETATM    8  N   UNL     1       6.803  24.296  54.697  1.00  0.00    -0.317 N 
HETATM    9  C   UNL     1       6.972  24.164  53.316  1.00  0.00     0.020 A 
HETATM   10  C   UNL     1       7.977  23.413  52.834  1.00  0.00     0.026 A 
HETATM   11  C   UNL     1       7.671  23.687  55.617  1.00  0.00     0.247 A 
HETATM   12  O   UNL     1       7.570  23.814  56.833  1.00  0.00    -0.268 OA
HETATM   13  C   UNL     1       8.777  22.880  55.047  1.00  0.00     0.074 A 
HETATM   14  C   UNL     1       8.902  22.757  53.722  1.00  0.00     0.007 A 
HETATM   15  C   UNL     1       5.220  27.175  54.041  1.00  0.00     0.241 C 
ENDROOT
BRANCH   1  16
HETATM   16  C   UNL     1       7.745  27.402  54.027  1.00  0.00     0.273 C 
BRANCH  16  17
HETATM   17  C   UNL     1       7.632  28.339  55.201  1.00  0.00    -0.028 A 
HETATM   18  C   UNL     1       6.410  28.971  55.484  1.00  0.00     0.031 A 
HETATM   19  C   UNL     1       6.302  29.870  56.550  1.00  0.00     0.047 A 
HETATM   20  C   UNL     1       7.415  30.156  57.339  1.00  0.00     0.116 A 
HETATM   21 BR   UNL     1       4.624  30.698  56.854  1.00  0.00    -0.048 Br
HETATM   22  C   UNL     1       8.622  29.497  57.094  1.00  0.00     0.103 A 
HETATM   23  C   UNL     1       8.739  28.611  56.019  1.00  0.00     0.048 A 
BRANCH  20  24
HETATM   24  O   UNL     1       7.333  31.107  58.316  1.00  0.00    -0.357 OA
HETATM   25  H   UNL     1       6.802  30.732  59.044  1.00  0.00     0.218 HD
ENDBRANCH  20  24
BRANCH  22  26
HETATM   26  O   UNL     1       9.755  29.737  57.823  1.00  0.00    -0.353 OA
HETATM   27  C   UNL     1      10.932  29.776  57.007  1.00  0.00     0.210 C 
ENDBRANCH  22  26
ENDBRANCH  16  17
ENDBRANCH   1  16
TORSDOF 4
ENDMDL
MODEL 8
REMARK VINA RESULT:      -6.9      3.772      6.639
REMARK  4 active torsions:
REMARK  status: ('A' for Active; 'I' for Inactive)
REMARK    1  A    between atoms: O_2  and  C_3 
REMARK    2  A    between atoms: C_4  and  O_5 
REMARK    3  A    between atoms: C_9  and  C_10 
REMARK    4  A    between atoms: C_10  and  N_11 
ROOT
HETATM    1  N   UNL     1       4.832  27.581  54.968  1.00  0.00    -0.066 N 
HETATM    2  H   UNL     1       3.980  28.097  55.219  1.00  0.00     0.280 HD
HETATM    3  C   UNL     1       5.121  26.726  56.192  1.00  0.00     0.246 C 
HETATM    4  C   UNL     1       6.598  26.313  56.334  1.00  0.00     0.062 C 
HETATM    5  C   UNL     1       7.484  27.552  56.300  1.00  0.00     0.020 C 
HETATM    6  C   UNL     1       7.318  28.192  54.930  1.00  0.00     0.031 C 
HETATM    7  C   UNL     1       7.831  27.229  53.856  1.00  0.00     0.138 C 
HETATM    8  N   UNL     1       7.525  25.811  54.058  1.00  0.00    -0.317 N 
HETATM    9  C   UNL     1       7.015  25.326  55.265  1.00  0.00     0.020 A 
HETATM   10  C   UNL     1       6.894  24.001  55.455  1.00  0.00     0.026 A 
HETATM   11  C   UNL     1       7.899  24.957  53.009  1.00  0.00     0.247 A 
HETATM   12  O   UNL     1       8.317  25.354  51.925  1.00  0.00    -0.268 OA
HETATM   13  C   UNL     1       7.737  23.503  53.250  1.00  0.00     0.074 A 
HETATM   14  C   UNL     1       7.264  23.069  54.422  1.00  0.00     0.007 A 
HETATM   15  C   UNL     1       5.871  28.650  54.713  1.00  0.00     0.241 C 
ENDROOT
BRANCH   1  16
HETATM   16  C   UNL     1       4.397  26.848  53.710  1.00  0.00     0.273 C 
BRANCH  16  17
HETATM   17  C   UNL     1       4.318  27.716  52.481  1.00  0.00    -0.028 A 
HETATM   18  C   UNL     1       3.624  28.936  52.522  1.00  0.00     0.031 A 
HETATM   19  C   UNL     1       3.514  29.734  51.378  1.00  0.00     0.047 A 
HETATM   20  C   UNL     1       4.087  29.317  50.178  1.00  0.00     0.116 A 
HETATM   21 BR   UNL     1       2.542  31.355  51.510  1.00  0.00    -0.048 Br
HETATM   22  C   UNL     1       4.819  28.128  50.139  1.00  0.00     0.103 A 
HETATM   23  C   UNL     1       4.918  27.320  51.275  1.00  0.00     0.048 A 
BRANCH  20  24
HETATM   24  O   UNL     1       3.895  30.048  49.040  1.00  0.00    -0.357 OA
HETATM   25  H   UNL     1       2.939  30.044  48.849  1.00  0.00     0.218 HD
ENDBRANCH  20  24
BRANCH  22  26
HETATM   26  O   UNL     1       5.400  27.656  48.993  1.00  0.00    -0.353 OA
HETATM   27  C   UNL     1       4.595  26.667  48.340  1.00  0.00     0.210 C 
ENDBRANCH  22  26
ENDBRANCH  16  17
ENDBRANCH   1  16
TORSDOF 4
ENDMDL
MODEL 9
REMARK VINA RESULT:      -6.8      9.245     11.901
REMARK  4 active torsions:
REMARK  status: ('A' for Active; 'I' for Inactive)
REMARK    1  A    between atoms: O_2  and  C_3 
REMARK    2  A    between atoms: C_4  and  O_5 
REMARK    3  A    between atoms: C_9  and  C_10 
REMARK    4  A    between atoms: C_10  and  N_11 
ROOT
HETATM    1  N   UNL     1       3.421  34.392  61.387  1.00  0.00    -0.066 N 
HETATM    2  H   UNL     1       2.829  34.135  60.587  1.00  0.00     0.280 HD
HETATM    3  C   UNL     1       2.457  35.040  62.369  1.00  0.00     0.246 C 
HETATM    4  C   UNL     1       3.129  36.013  63.356  1.00  0.00     0.062 C 
HETATM    5  C   UNL     1       3.927  37.058  62.587  1.00  0.00     0.020 C 
HETATM    6  C   UNL     1       5.033  36.328  61.841  1.00  0.00     0.031 C 
HETATM    7  C   UNL     1       5.980  35.677  62.853  1.00  0.00     0.138 C 
HETATM    8  N   UNL     1       5.356  35.077  64.033  1.00  0.00    -0.317 N 
HETATM    9  C   UNL     1       4.012  35.289  64.350  1.00  0.00     0.020 A 
HETATM   10  C   UNL     1       3.523  34.844  65.521  1.00  0.00     0.026 A 
HETATM   11  C   UNL     1       6.225  34.384  64.890  1.00  0.00     0.247 A 
HETATM   12  O   UNL     1       7.400  34.151  64.623  1.00  0.00    -0.268 OA
HETATM   13  C   UNL     1       5.646  33.895  66.164  1.00  0.00     0.074 A 
HETATM   14  C   UNL     1       4.361  34.129  66.448  1.00  0.00     0.007 A 
HETATM   15  C   UNL     1       4.447  35.346  60.819  1.00  0.00     0.241 C 
ENDROOT
BRANCH   1  16
HETATM   16  C   UNL     1       4.004  33.047  61.789  1.00  0.00     0.273 C 
BRANCH  16  17
HETATM   17  C   UNL     1       5.160  32.591  60.938  1.00  0.00    -0.028 A 
HETATM   18  C   UNL     1       6.429  32.404  61.512  1.00  0.00     0.031 A 
HETATM   19  C   UNL     1       7.518  32.014  60.727  1.00  0.00     0.047 A 
HETATM   20  C   UNL     1       7.356  31.818  59.356  1.00  0.00     0.116 A 
HETATM   21 BR   UNL     1       9.200  31.804  61.573  1.00  0.00    -0.048 Br
HETATM   22  C   UNL     1       6.089  31.956  58.785  1.00  0.00     0.103 A 
HETATM   23  C   UNL     1       5.001  32.361  59.563  1.00  0.00     0.048 A 
BRANCH  20  24
HETATM   24  O   UNL     1       8.440  31.535  58.575  1.00  0.00    -0.357 OA
HETATM   25  H   UNL     1       9.160  31.248  59.167  1.00  0.00     0.218 HD
ENDBRANCH  20  24
BRANCH  22  26
HETATM   26  O   UNL     1       5.862  31.787  57.445  1.00  0.00    -0.353 OA
HETATM   27  C   UNL     1       5.003  32.798  56.905  1.00  0.00     0.210 C 
ENDBRANCH  22  26
ENDBRANCH  16  17
ENDBRANCH   1  16
TORSDOF 4
ENDMDL
MODEL 10
REMARK VINA RESULT:      -6.8      3.771      6.953
REMARK  4 active torsions:
REMARK  status: ('A' for Active; 'I' for Inactive)
REMARK    1  A    between atoms: O_2  and  C_3 
REMARK    2  A    between atoms: C_4  and  O_5 
REMARK    3  A    between atoms: C_9  and  C_10 
REMARK    4  A    between atoms: C_10  and  N_11 
ROOT
HETATM    1  N   UNL     1       6.654  27.296  56.547  1.00  0.00    -0.066 N 
HETATM    2  H   UNL     1       6.532  27.961  57.321  1.00  0.00     0.280 HD
HETATM    3  C   UNL     1       5.351  26.512  56.523  1.00  0.00     0.246 C 
HETATM    4  C   UNL     1       5.472  25.115  55.886  1.00  0.00     0.062 C 
HETATM    5  C   UNL     1       6.580  24.329  56.576  1.00  0.00     0.020 C 
HETATM    6  C   UNL     1       7.887  25.063  56.317  1.00  0.00     0.031 C 
HETATM    7  C   UNL     1       8.182  25.056  54.815  1.00  0.00     0.138 C 
HETATM    8  N   UNL     1       7.033  25.245  53.927  1.00  0.00    -0.317 N 
HETATM    9  C   UNL     1       5.718  25.192  54.394  1.00  0.00     0.020 A 
HETATM   10  C   UNL     1       4.696  25.219  53.521  1.00  0.00     0.026 A 
HETATM   11  C   UNL     1       7.337  25.352  52.561  1.00  0.00     0.247 A 
HETATM   12  O   UNL     1       8.480  25.437  52.123  1.00  0.00    -0.268 OA
HETATM   13  C   UNL     1       6.184  25.395  51.629  1.00  0.00     0.074 A 
HETATM   14  C   UNL     1       4.936  25.324  52.105  1.00  0.00     0.007 A 
HETATM   15  C   UNL     1       7.857  26.466  56.936  1.00  0.00     0.241 C 
ENDROOT
BRANCH   1  16
HETATM   16  C   UNL     1       6.916  28.225  55.373  1.00  0.00     0.273 C 
BRANCH  16  17
HETATM   17  C   UNL     1       5.751  29.107  55.006  1.00  0.00    -0.028 A 
HETATM   18  C   UNL     1       5.369  30.160  55.854  1.00  0.00     0.031 A 
HETATM   19  C   UNL     1       4.269  30.964  55.542  1.00  0.00     0.047 A 
HETATM   20  C   UNL     1       3.529  30.719  54.386  1.00  0.00     0.116 A 
HETATM   21 BR   UNL     1       3.805  32.350  56.748  1.00  0.00    -0.048 Br
HETATM   22  C   UNL     1       3.929  29.704  53.514  1.00  0.00     0.103 A 
HETATM   23  C   UNL     1       5.019  28.888  53.829  1.00  0.00     0.048 A 
BRANCH  20  24
HETATM   24  O   UNL     1       2.397  31.441  54.134  1.00  0.00    -0.357 OA
HETATM   25  H   UNL     1       2.574  31.996  53.352  1.00  0.00     0.218 HD
ENDBRANCH  20  24
BRANCH  22  26
HETATM   26  O   UNL     1       3.244  29.405  52.367  1.00  0.00    -0.353 OA
HETATM   27  C   UNL     1       3.867  29.953  51.199  1.00  0.00     0.210 C 
ENDBRANCH  22  26
ENDBRANCH  16  17
ENDBRANCH   1  16
TORSDOF 4
ENDMDL
