MODEL 1
REMARK VINA RESULT:     -10.0      0.000      0.000
REMARK  8 active torsions:
REMARK  status: ('A' for Active; 'I' for Inactive)
REMARK    1  A    between atoms: C_3  and  O_4 
REMARK    2  A    between atoms: C_11  and  C_12 
REMARK    3  A    between atoms: C_12  and  C_13 
REMARK    4  A    between atoms: C_13  and  S_14 
REMARK    5  A    between atoms: S_14  and  C_15 
REMARK    6  A    between atoms: N_16  and  C_17 
REMARK    7  A    between atoms: C_17  and  C_18 
REMARK    8  A    between atoms: C_24  and  C_25 
ROOT
HETATM    1  C   UNL     1       6.269  28.135  56.995  1.00  0.00     0.192 A 
HETATM    2  N   UNL     1       6.631  29.387  57.419  1.00  0.00    -0.303 N 
HETATM    3  C   UNL     1       7.748  29.199  58.214  1.00  0.00     0.166 A 
HETATM    4  N   UNL     1       8.030  27.907  58.229  1.00  0.00    -0.128 NA
HETATM    5  N   UNL     1       7.095  27.242  57.482  1.00  0.00    -0.122 NA
ENDROOT
BRANCH   1   6
HETATM    6  S   UNL     1       4.915  27.796  55.975  1.00  0.00    -0.082 SA
BRANCH   6   7
HETATM    7  C   UNL     1       5.335  26.107  55.454  1.00  0.00     0.166 C 
BRANCH   7   8
HETATM    8  C   UNL     1       6.418  26.085  54.390  1.00  0.00     0.169 C 
HETATM    9  O   UNL     1       6.835  27.092  53.819  1.00  0.00    -0.291 OA
BRANCH   8  10
HETATM   10  C   UNL     1       6.987  24.755  54.002  1.00  0.00     0.011 A 
HETATM   11  C   UNL     1       7.199  24.395  52.666  1.00  0.00     0.017 A 
HETATM   12  C   UNL     1       7.713  23.138  52.327  1.00  0.00     0.031 A 
HETATM   13  C   UNL     1       8.014  22.256  53.369  1.00  0.00     0.045 A 
HETATM   14  N   UNL     1       8.519  20.979  53.333  1.00  0.00    -0.336 N 
HETATM   15  C   UNL     1       7.832  22.580  54.712  1.00  0.00     0.002 A 
HETATM   16  C   UNL     1       8.671  20.485  54.598  1.00  0.00     0.147 A 
HETATM   17  H   UNL     1       8.755  20.466  52.497  1.00  0.00     0.168 HD
HETATM   18  C   UNL     1       8.252  21.452  55.492  1.00  0.00     0.001 A 
HETATM   19  C   UNL     1       8.241  21.370  56.976  1.00  0.00     0.054 C 
HETATM   20  C   UNL     1       7.313  23.852  55.030  1.00  0.00     0.029 A 
BRANCH  16  21
HETATM   21  O   UNL     1       9.156  19.263  54.755  1.00  0.00    -0.346 OA
HETATM   22  H   UNL     1       8.496  18.638  54.405  1.00  0.00     0.219 HD
ENDBRANCH  16  21
ENDBRANCH   8  10
ENDBRANCH   7   8
ENDBRANCH   6   7
ENDBRANCH   1   6
BRANCH   2  23
HETATM   23  C   UNL     1       6.074  30.654  56.975  1.00  0.00     0.171 C 
BRANCH  23  24
HETATM   24  C   UNL     1       5.293  31.401  58.033  1.00  0.00    -0.040 A 
HETATM   25  C   UNL     1       5.781  32.540  58.691  1.00  0.00     0.009 A 
HETATM   26  C   UNL     1       5.025  33.173  59.681  1.00  0.00     0.001 A 
HETATM   27  C   UNL     1       3.780  32.666  60.041  1.00  0.00     0.000 A 
HETATM   28  C   UNL     1       3.289  31.525  59.416  1.00  0.00     0.001 A 
HETATM   29  C   UNL     1       4.041  30.893  58.423  1.00  0.00     0.009 A 
ENDBRANCH  23  24
ENDBRANCH   2  23
BRANCH   3  30
HETATM   30  C   UNL     1       8.553  30.222  58.869  1.00  0.00     0.029 A 
HETATM   31  C   UNL     1       9.498  30.991  58.199  1.00  0.00     0.131 A 
HETATM   32  N   UNL     1      10.254  31.954  58.784  1.00  0.00    -0.272 NA
HETATM   33  C   UNL     1      10.031  32.190  60.094  1.00  0.00     0.116 A 
HETATM   34  C   UNL     1       9.093  31.507  60.847  1.00  0.00     0.020 A 
HETATM   35  C   UNL     1       8.345  30.512  60.222  1.00  0.00     0.018 A 
ENDBRANCH   3  30
TORSDOF 8
ENDMDL
MODEL 2
REMARK VINA RESULT:     -10.0      2.726      9.259
REMARK  8 active torsions:
REMARK  status: ('A' for Active; 'I' for Inactive)
REMARK    1  A    between atoms: C_3  and  O_4 
REMARK    2  A    between atoms: C_11  and  C_12 
REMARK    3  A    between atoms: C_12  and  C_13 
REMARK    4  A    between atoms: C_13  and  S_14 
REMARK    5  A    between atoms: S_14  and  C_15 
REMARK    6  A    between atoms: N_16  and  C_17 
REMARK    7  A    between atoms: C_17  and  C_18 
REMARK    8  A    between atoms: C_24  and  C_25 
ROOT
HETATM    1  C   UNL     1       7.415  25.913  57.092  1.00  0.00     0.192 A 
HETATM    2  N   UNL     1       7.172  24.836  56.280  1.00  0.00    -0.303 N 
HETATM    3  C   UNL     1       8.234  23.973  56.484  1.00  0.00     0.166 A 
HETATM    4  N   UNL     1       9.036  24.512  57.386  1.00  0.00    -0.128 NA
HETATM    5  N   UNL     1       8.533  25.732  57.752  1.00  0.00    -0.122 NA
ENDROOT
BRANCH   1   6
HETATM    6  S   UNL     1       6.393  27.301  57.214  1.00  0.00    -0.082 SA
BRANCH   6   7
HETATM    7  C   UNL     1       7.207  28.392  56.010  1.00  0.00     0.166 C 
BRANCH   7   8
HETATM    8  C   UNL     1       8.222  29.312  56.661  1.00  0.00     0.169 C 
HETATM    9  O   UNL     1       9.402  29.380  56.320  1.00  0.00    -0.291 OA
BRANCH   8  10
HETATM   10  C   UNL     1       7.757  30.166  57.801  1.00  0.00     0.011 A 
HETATM   11  C   UNL     1       6.672  31.043  57.682  1.00  0.00     0.017 A 
HETATM   12  C   UNL     1       6.268  31.846  58.755  1.00  0.00     0.031 A 
HETATM   13  C   UNL     1       6.981  31.737  59.952  1.00  0.00     0.045 A 
HETATM   14  N   UNL     1       6.812  32.392  61.148  1.00  0.00    -0.336 N 
HETATM   15  C   UNL     1       8.057  30.866  60.118  1.00  0.00     0.002 A 
HETATM   16  C   UNL     1       7.732  31.967  62.065  1.00  0.00     0.147 A 
HETATM   17  H   UNL     1       6.109  33.090  61.340  1.00  0.00     0.168 HD
HETATM   18  C   UNL     1       8.532  31.013  61.463  1.00  0.00     0.001 A 
HETATM   19  C   UNL     1       9.662  30.263  62.072  1.00  0.00     0.054 C 
HETATM   20  C   UNL     1       8.446  30.067  59.023  1.00  0.00     0.029 A 
BRANCH  16  21
HETATM   21  O   UNL     1       7.714  32.488  63.282  1.00  0.00    -0.346 OA
HETATM   22  H   UNL     1       7.855  33.447  63.192  1.00  0.00     0.219 HD
ENDBRANCH  16  21
ENDBRANCH   8  10
ENDBRANCH   7   8
ENDBRANCH   6   7
ENDBRANCH   1   6
BRANCH   2  23
HETATM   23  C   UNL     1       5.965  24.575  55.512  1.00  0.00     0.171 C 
BRANCH  23  24
HETATM   24  C   UNL     1       6.053  24.966  54.054  1.00  0.00    -0.040 A 
HETATM   25  C   UNL     1       7.205  25.516  53.472  1.00  0.00     0.009 A 
HETATM   26  C   UNL     1       7.219  25.883  52.124  1.00  0.00     0.001 A 
HETATM   27  C   UNL     1       6.078  25.722  51.343  1.00  0.00     0.000 A 
HETATM   28  C   UNL     1       4.920  25.199  51.908  1.00  0.00     0.001 A 
HETATM   29  C   UNL     1       4.905  24.828  53.254  1.00  0.00     0.009 A 
ENDBRANCH  23  24
ENDBRANCH   2  23
BRANCH   3  30
HETATM   30  C   UNL     1       8.431  22.654  55.896  1.00  0.00     0.029 A 
HETATM   31  C   UNL     1       8.261  21.471  56.605  1.00  0.00     0.131 A 
HETATM   32  N   UNL     1       8.431  20.232  56.080  1.00  0.00    -0.272 NA
HETATM   33  C   UNL     1       8.749  20.166  54.770  1.00  0.00     0.116 A 
HETATM   34  C   UNL     1       8.911  21.279  53.963  1.00  0.00     0.020 A 
HETATM   35  C   UNL     1       8.747  22.537  54.538  1.00  0.00     0.018 A 
ENDBRANCH   3  30
TORSDOF 8
ENDMDL
MODEL 3
REMARK VINA RESULT:     -10.0      3.785      8.205
REMARK  8 active torsions:
REMARK  status: ('A' for Active; 'I' for Inactive)
REMARK    1  A    between atoms: C_3  and  O_4 
REMARK    2  A    between atoms: C_11  and  C_12 
REMARK    3  A    between atoms: C_12  and  C_13 
REMARK    4  A    between atoms: C_13  and  S_14 
REMARK    5  A    between atoms: S_14  and  C_15 
REMARK    6  A    between atoms: N_16  and  C_17 
REMARK    7  A    between atoms: C_17  and  C_18 
REMARK    8  A    between atoms: C_24  and  C_25 
ROOT
HETATM    1  C   UNL     1       7.596  25.922  57.141  1.00  0.00     0.192 A 
HETATM    2  N   UNL     1       7.288  24.853  56.342  1.00  0.00    -0.303 N 
HETATM    3  C   UNL     1       8.319  23.948  56.521  1.00  0.00     0.166 A 
HETATM    4  N   UNL     1       9.168  24.459  57.398  1.00  0.00    -0.128 NA
HETATM    5  N   UNL     1       8.724  25.700  57.770  1.00  0.00    -0.122 NA
ENDROOT
BRANCH   1   6
HETATM    6  S   UNL     1       6.634  27.352  57.283  1.00  0.00    -0.082 SA
BRANCH   6   7
HETATM    7  C   UNL     1       7.725  28.543  56.449  1.00  0.00     0.166 C 
BRANCH   7   8
HETATM    8  C   UNL     1       7.610  28.466  54.937  1.00  0.00     0.169 C 
HETATM    9  O   UNL     1       8.577  28.386  54.181  1.00  0.00    -0.291 OA
BRANCH   8  10
HETATM   10  C   UNL     1       6.237  28.517  54.340  1.00  0.00     0.011 A 
HETATM   11  C   UNL     1       5.080  28.509  55.128  1.00  0.00     0.017 A 
HETATM   12  C   UNL     1       3.807  28.537  54.546  1.00  0.00     0.031 A 
HETATM   13  C   UNL     1       3.731  28.580  53.151  1.00  0.00     0.045 A 
HETATM   14  N   UNL     1       2.635  28.611  52.323  1.00  0.00    -0.336 N 
HETATM   15  C   UNL     1       4.857  28.605  52.331  1.00  0.00     0.002 A 
HETATM   16  C   UNL     1       3.022  28.662  51.014  1.00  0.00     0.147 A 
HETATM   17  H   UNL     1       1.672  28.603  52.625  1.00  0.00     0.168 HD
HETATM   18  C   UNL     1       4.403  28.659  50.972  1.00  0.00     0.001 A 
HETATM   19  C   UNL     1       5.274  28.712  49.767  1.00  0.00     0.054 C 
HETATM   20  C   UNL     1       6.129  28.576  52.939  1.00  0.00     0.029 A 
BRANCH  16  21
HETATM   21  O   UNL     1       2.092  28.705  50.072  1.00  0.00    -0.346 OA
HETATM   22  H   UNL     1       1.877  27.787  49.829  1.00  0.00     0.219 HD
ENDBRANCH  16  21
ENDBRANCH   8  10
ENDBRANCH   7   8
ENDBRANCH   6   7
ENDBRANCH   1   6
BRANCH   2  23
HETATM   23  C   UNL     1       6.051  24.637  55.609  1.00  0.00     0.171 C 
BRANCH  23  24
HETATM   24  C   UNL     1       6.158  24.863  54.118  1.00  0.00    -0.040 A 
HETATM   25  C   UNL     1       7.376  25.087  53.458  1.00  0.00     0.009 A 
HETATM   26  C   UNL     1       7.410  25.316  52.080  1.00  0.00     0.001 A 
HETATM   27  C   UNL     1       6.228  25.344  51.345  1.00  0.00     0.000 A 
HETATM   28  C   UNL     1       5.009  25.146  51.986  1.00  0.00     0.001 A 
HETATM   29  C   UNL     1       4.973  24.912  53.362  1.00  0.00     0.009 A 
ENDBRANCH  23  24
ENDBRANCH   2  23
BRANCH   3  30
HETATM   30  C   UNL     1       8.447  22.620  55.935  1.00  0.00     0.029 A 
HETATM   31  C   UNL     1       8.999  22.392  54.680  1.00  0.00     0.131 A 
HETATM   32  N   UNL     1       9.136  21.166  54.115  1.00  0.00    -0.272 NA
HETATM   33  C   UNL     1       8.739  20.109  54.854  1.00  0.00     0.116 A 
HETATM   34  C   UNL     1       8.207  20.220  56.127  1.00  0.00     0.020 A 
HETATM   35  C   UNL     1       8.062  21.494  56.671  1.00  0.00     0.018 A 
ENDBRANCH   3  30
TORSDOF 8
ENDMDL
MODEL 4
REMARK VINA RESULT:      -9.9      3.222     10.051
REMARK  8 active torsions:
REMARK  status: ('A' for Active; 'I' for Inactive)
REMARK    1  A    between atoms: C_3  and  O_4 
REMARK    2  A    between atoms: C_11  and  C_12 
REMARK    3  A    between atoms: C_12  and  C_13 
REMARK    4  A    between atoms: C_13  and  S_14 
REMARK    5  A    between atoms: S_14  and  C_15 
REMARK    6  A    between atoms: N_16  and  C_17 
REMARK    7  A    between atoms: C_17  and  C_18 
REMARK    8  A    between atoms: C_24  and  C_25 
ROOT
HETATM    1  C   UNL     1       7.379  26.563  57.021  1.00  0.00     0.192 A 
HETATM    2  N   UNL     1       6.936  25.581  56.175  1.00  0.00    -0.303 N 
HETATM    3  C   UNL     1       7.954  24.645  56.131  1.00  0.00     0.166 A 
HETATM    4  N   UNL     1       8.925  25.055  56.930  1.00  0.00    -0.128 NA
HETATM    5  N   UNL     1       8.572  26.261  57.471  1.00  0.00    -0.122 NA
ENDROOT
BRANCH   1   6
HETATM    6  S   UNL     1       6.488  27.989  57.422  1.00  0.00    -0.082 SA
BRANCH   6   7
HETATM    7  C   UNL     1       7.810  28.977  58.182  1.00  0.00     0.166 C 
BRANCH   7   8
HETATM    8  C   UNL     1       7.368  30.398  58.481  1.00  0.00     0.169 C 
HETATM    9  O   UNL     1       6.784  31.117  57.672  1.00  0.00    -0.291 OA
BRANCH   8  10
HETATM   10  C   UNL     1       7.687  30.956  59.834  1.00  0.00     0.011 A 
HETATM   11  C   UNL     1       8.789  30.520  60.580  1.00  0.00     0.017 A 
HETATM   12  C   UNL     1       9.056  31.043  61.851  1.00  0.00     0.031 A 
HETATM   13  C   UNL     1       8.188  32.019  62.348  1.00  0.00     0.045 A 
HETATM   14  N   UNL     1       8.203  32.694  63.544  1.00  0.00    -0.336 N 
HETATM   15  C   UNL     1       7.089  32.491  61.633  1.00  0.00     0.002 A 
HETATM   16  C   UNL     1       7.164  33.578  63.612  1.00  0.00     0.147 A 
HETATM   17  H   UNL     1       8.883  32.569  64.279  1.00  0.00     0.168 HD
HETATM   18  C   UNL     1       6.440  33.484  62.439  1.00  0.00     0.001 A 
HETATM   19  C   UNL     1       5.229  34.257  62.056  1.00  0.00     0.054 C 
HETATM   20  C   UNL     1       6.839  31.951  60.354  1.00  0.00     0.029 A 
BRANCH  16  21
HETATM   21  O   UNL     1       7.026  34.324  64.698  1.00  0.00    -0.346 OA
HETATM   22  H   UNL     1       6.324  33.925  65.241  1.00  0.00     0.219 HD
ENDBRANCH  16  21
ENDBRANCH   8  10
ENDBRANCH   7   8
ENDBRANCH   6   7
ENDBRANCH   1   6
BRANCH   2  23
HETATM   23  C   UNL     1       5.607  25.458  55.597  1.00  0.00     0.171 C 
BRANCH  23  24
HETATM   24  C   UNL     1       5.534  25.776  54.121  1.00  0.00    -0.040 A 
HETATM   25  C   UNL     1       5.016  24.887  53.166  1.00  0.00     0.009 A 
HETATM   26  C   UNL     1       4.999  25.224  51.811  1.00  0.00     0.001 A 
HETATM   27  C   UNL     1       5.515  26.445  51.387  1.00  0.00     0.000 A 
HETATM   28  C   UNL     1       6.053  27.330  52.315  1.00  0.00     0.001 A 
HETATM   29  C   UNL     1       6.067  26.996  53.671  1.00  0.00     0.009 A 
ENDBRANCH  23  24
ENDBRANCH   2  23
BRANCH   3  30
HETATM   30  C   UNL     1       7.963  23.377  55.412  1.00  0.00     0.029 A 
HETATM   31  C   UNL     1       7.715  22.154  56.024  1.00  0.00     0.131 A 
HETATM   32  N   UNL     1       7.711  20.961  55.377  1.00  0.00    -0.272 NA
HETATM   33  C   UNL     1       7.927  20.992  54.046  1.00  0.00     0.116 A 
HETATM   34  C   UNL     1       8.152  22.156  53.332  1.00  0.00     0.020 A 
HETATM   35  C   UNL     1       8.168  23.362  54.029  1.00  0.00     0.018 A 
ENDBRANCH   3  30
TORSDOF 8
ENDMDL
MODEL 5
REMARK VINA RESULT:      -9.9      3.645      9.762
REMARK  8 active torsions:
REMARK  status: ('A' for Active; 'I' for Inactive)
REMARK    1  A    between atoms: C_3  and  O_4 
REMARK    2  A    between atoms: C_11  and  C_12 
REMARK    3  A    between atoms: C_12  and  C_13 
REMARK    4  A    between atoms: C_13  and  S_14 
REMARK    5  A    between atoms: S_14  and  C_15 
REMARK    6  A    between atoms: N_16  and  C_17 
REMARK    7  A    between atoms: C_17  and  C_18 
REMARK    8  A    between atoms: C_24  and  C_25 
ROOT
HETATM    1  C   UNL     1       8.137  28.773  56.441  1.00  0.00     0.192 A 
HETATM    2  N   UNL     1       7.351  27.821  55.848  1.00  0.00    -0.303 N 
HETATM    3  C   UNL     1       7.626  27.905  54.494  1.00  0.00     0.166 A 
HETATM    4  N   UNL     1       8.543  28.842  54.318  1.00  0.00    -0.128 NA
HETATM    5  N   UNL     1       8.848  29.396  55.532  1.00  0.00    -0.122 NA
ENDROOT
BRANCH   1   6
HETATM    6  S   UNL     1       8.173  29.101  58.138  1.00  0.00    -0.082 SA
BRANCH   6   7
HETATM    7  C   UNL     1       9.763  29.974  58.252  1.00  0.00     0.166 C 
BRANCH   7   8
HETATM    8  C   UNL     1       9.621  31.346  58.884  1.00  0.00     0.169 C 
HETATM    9  O   UNL     1      10.192  32.353  58.468  1.00  0.00    -0.291 OA
BRANCH   8  10
HETATM   10  C   UNL     1       8.754  31.467  60.099  1.00  0.00     0.011 A 
HETATM   11  C   UNL     1       9.117  30.913  61.333  1.00  0.00     0.017 A 
HETATM   12  C   UNL     1       8.280  31.022  62.450  1.00  0.00     0.031 A 
HETATM   13  C   UNL     1       7.072  31.707  62.293  1.00  0.00     0.045 A 
HETATM   14  N   UNL     1       6.072  31.961  63.200  1.00  0.00    -0.336 N 
HETATM   15  C   UNL     1       6.680  32.285  61.088  1.00  0.00     0.002 A 
HETATM   16  C   UNL     1       5.067  32.682  62.620  1.00  0.00     0.147 A 
HETATM   17  H   UNL     1       6.068  31.667  64.165  1.00  0.00     0.168 HD
HETATM   18  C   UNL     1       5.404  32.906  61.299  1.00  0.00     0.001 A 
HETATM   19  C   UNL     1       4.622  33.653  60.277  1.00  0.00     0.054 C 
HETATM   20  C   UNL     1       7.538  32.164  59.976  1.00  0.00     0.029 A 
BRANCH  16  21
HETATM   21  O   UNL     1       4.019  33.025  63.352  1.00  0.00    -0.346 OA
HETATM   22  H   UNL     1       3.905  33.988  63.269  1.00  0.00     0.219 HD
ENDBRANCH  16  21
ENDBRANCH   8  10
ENDBRANCH   7   8
ENDBRANCH   6   7
ENDBRANCH   1   6
BRANCH   2  23
HETATM   23  C   UNL     1       6.543  26.815  56.517  1.00  0.00     0.171 C 
BRANCH  23  24
HETATM   24  C   UNL     1       7.160  25.435  56.548  1.00  0.00    -0.040 A 
HETATM   25  C   UNL     1       6.647  24.345  55.828  1.00  0.00     0.009 A 
HETATM   26  C   UNL     1       7.245  23.085  55.917  1.00  0.00     0.001 A 
HETATM   27  C   UNL     1       8.350  22.891  56.740  1.00  0.00     0.000 A 
HETATM   28  C   UNL     1       8.858  23.954  57.479  1.00  0.00     0.001 A 
HETATM   29  C   UNL     1       8.266  25.215  57.388  1.00  0.00     0.009 A 
ENDBRANCH  23  24
ENDBRANCH   2  23
BRANCH   3  30
HETATM   30  C   UNL     1       7.088  27.072  53.426  1.00  0.00     0.029 A 
HETATM   31  C   UNL     1       5.896  27.353  52.769  1.00  0.00     0.131 A 
HETATM   32  N   UNL     1       5.378  26.599  51.767  1.00  0.00    -0.272 NA
HETATM   33  C   UNL     1       6.104  25.532  51.373  1.00  0.00     0.116 A 
HETATM   34  C   UNL     1       7.318  25.180  51.936  1.00  0.00     0.020 A 
HETATM   35  C   UNL     1       7.813  25.965  52.975  1.00  0.00     0.018 A 
ENDBRANCH   3  30
TORSDOF 8
ENDMDL
MODEL 6
REMARK VINA RESULT:      -9.8      1.630      3.351
REMARK  8 active torsions:
REMARK  status: ('A' for Active; 'I' for Inactive)
REMARK    1  A    between atoms: C_3  and  O_4 
REMARK    2  A    between atoms: C_11  and  C_12 
REMARK    3  A    between atoms: C_12  and  C_13 
REMARK    4  A    between atoms: C_13  and  S_14 
REMARK    5  A    between atoms: S_14  and  C_15 
REMARK    6  A    between atoms: N_16  and  C_17 
REMARK    7  A    between atoms: C_17  and  C_18 
REMARK    8  A    between atoms: C_24  and  C_25 
ROOT
HETATM    1  C   UNL     1       6.550  29.037  57.605  1.00  0.00     0.192 A 
HETATM    2  N   UNL     1       6.666  30.385  57.823  1.00  0.00    -0.303 N 
HETATM    3  C   UNL     1       5.374  30.877  57.794  1.00  0.00     0.166 A 
HETATM    4  N   UNL     1       4.550  29.862  57.594  1.00  0.00    -0.128 NA
HETATM    5  N   UNL     1       5.288  28.716  57.458  1.00  0.00    -0.122 NA
ENDROOT
BRANCH   1   6
HETATM    6  S   UNL     1       7.879  27.936  57.530  1.00  0.00    -0.082 SA
BRANCH   6   7
HETATM    7  C   UNL     1       7.065  26.522  56.730  1.00  0.00     0.166 C 
BRANCH   7   8
HETATM    8  C   UNL     1       7.305  26.492  55.231  1.00  0.00     0.169 C 
HETATM    9  O   UNL     1       7.241  27.486  54.509  1.00  0.00    -0.291 OA
BRANCH   8  10
HETATM   10  C   UNL     1       7.611  25.168  54.601  1.00  0.00     0.011 A 
HETATM   11  C   UNL     1       7.659  24.997  53.212  1.00  0.00     0.017 A 
HETATM   12  C   UNL     1       7.928  23.745  52.646  1.00  0.00     0.031 A 
HETATM   13  C   UNL     1       8.153  22.674  53.514  1.00  0.00     0.045 A 
HETATM   14  N   UNL     1       8.432  21.356  53.244  1.00  0.00    -0.336 N 
HETATM   15  C   UNL     1       8.130  22.804  54.902  1.00  0.00     0.002 A 
HETATM   16  C   UNL     1       8.593  20.650  54.403  1.00  0.00     0.147 A 
HETATM   17  H   UNL     1       8.515  20.952  52.323  1.00  0.00     0.168 HD
HETATM   18  C   UNL     1       8.411  21.516  55.464  1.00  0.00     0.001 A 
HETATM   19  C   UNL     1       8.498  21.202  56.915  1.00  0.00     0.054 C 
HETATM   20  C   UNL     1       7.857  24.075  55.450  1.00  0.00     0.029 A 
BRANCH  16  21
HETATM   21  O   UNL     1       8.876  19.358  54.333  1.00  0.00    -0.346 OA
HETATM   22  H   UNL     1       8.165  18.929  53.824  1.00  0.00     0.219 HD
ENDBRANCH  16  21
ENDBRANCH   8  10
ENDBRANCH   7   8
ENDBRANCH   6   7
ENDBRANCH   1   6
BRANCH   2  23
HETATM   23  C   UNL     1       7.872  31.110  58.192  1.00  0.00     0.171 C 
BRANCH  23  24
HETATM   24  C   UNL     1       8.053  31.309  59.679  1.00  0.00    -0.040 A 
HETATM   25  C   UNL     1       7.530  32.407  60.379  1.00  0.00     0.009 A 
HETATM   26  C   UNL     1       7.752  32.552  61.751  1.00  0.00     0.001 A 
HETATM   27  C   UNL     1       8.516  31.614  62.439  1.00  0.00     0.000 A 
HETATM   28  C   UNL     1       9.063  30.531  61.758  1.00  0.00     0.001 A 
HETATM   29  C   UNL     1       8.837  30.381  60.388  1.00  0.00     0.009 A 
ENDBRANCH  23  24
ENDBRANCH   2  23
BRANCH   3  30
HETATM   30  C   UNL     1       4.941  32.250  58.024  1.00  0.00     0.029 A 
HETATM   31  C   UNL     1       5.212  33.291  57.142  1.00  0.00     0.131 A 
HETATM   32  N   UNL     1       4.815  34.575  57.329  1.00  0.00    -0.272 NA
HETATM   33  C   UNL     1       4.077  34.828  58.430  1.00  0.00     0.116 A 
HETATM   34  C   UNL     1       3.723  33.862  59.355  1.00  0.00     0.020 A 
HETATM   35  C   UNL     1       4.162  32.557  59.144  1.00  0.00     0.018 A 
ENDBRANCH   3  30
TORSDOF 8
ENDMDL
MODEL 7
REMARK VINA RESULT:      -9.7      1.896      4.040
REMARK  8 active torsions:
REMARK  status: ('A' for Active; 'I' for Inactive)
REMARK    1  A    between atoms: C_3  and  O_4 
REMARK    2  A    between atoms: C_11  and  C_12 
REMARK    3  A    between atoms: C_12  and  C_13 
REMARK    4  A    between atoms: C_13  and  S_14 
REMARK    5  A    between atoms: S_14  and  C_15 
REMARK    6  A    between atoms: N_16  and  C_17 
REMARK    7  A    between atoms: C_17  and  C_18 
REMARK    8  A    between atoms: C_24  and  C_25 
ROOT
HETATM    1  C   UNL     1       5.698  29.243  54.828  1.00  0.00     0.192 A 
HETATM    2  N   UNL     1       5.842  29.562  56.153  1.00  0.00    -0.303 N 
HETATM    3  C   UNL     1       4.924  30.569  56.392  1.00  0.00     0.166 A 
HETATM    4  N   UNL     1       4.267  30.804  55.268  1.00  0.00    -0.128 NA
HETATM    5  N   UNL     1       4.764  29.987  54.288  1.00  0.00    -0.122 NA
ENDROOT
BRANCH   1   6
HETATM    6  S   UNL     1       6.623  28.040  54.001  1.00  0.00    -0.082 SA
BRANCH   6   7
HETATM    7  C   UNL     1       5.321  26.812  53.684  1.00  0.00     0.166 C 
BRANCH   7   8
HETATM    8  C   UNL     1       5.876  25.522  53.107  1.00  0.00     0.169 C 
HETATM    9  O   UNL     1       5.805  25.219  51.917  1.00  0.00    -0.291 OA
BRANCH   8  10
HETATM   10  C   UNL     1       6.524  24.558  54.053  1.00  0.00     0.011 A 
HETATM   11  C   UNL     1       6.636  24.821  55.424  1.00  0.00     0.017 A 
HETATM   12  C   UNL     1       7.263  23.913  56.287  1.00  0.00     0.031 A 
HETATM   13  C   UNL     1       7.768  22.734  55.733  1.00  0.00     0.045 A 
HETATM   14  N   UNL     1       8.423  21.683  56.329  1.00  0.00    -0.336 N 
HETATM   15  C   UNL     1       7.664  22.427  54.377  1.00  0.00     0.002 A 
HETATM   16  C   UNL     1       8.730  20.722  55.408  1.00  0.00     0.147 A 
HETATM   17  H   UNL     1       8.648  21.614  57.310  1.00  0.00     0.168 HD
HETATM   18  C   UNL     1       8.276  21.146  54.174  1.00  0.00     0.001 A 
HETATM   19  C   UNL     1       8.377  20.428  52.875  1.00  0.00     0.054 C 
HETATM   20  C   UNL     1       7.028  23.355  53.527  1.00  0.00     0.029 A 
BRANCH  16  21
HETATM   21  O   UNL     1       9.360  19.628  55.808  1.00  0.00    -0.346 OA
HETATM   22  H   UNL     1       8.822  19.219  56.509  1.00  0.00     0.219 HD
ENDBRANCH  16  21
ENDBRANCH   8  10
ENDBRANCH   7   8
ENDBRANCH   6   7
ENDBRANCH   1   6
BRANCH   2  23
HETATM   23  C   UNL     1       6.652  28.862  57.137  1.00  0.00     0.171 C 
BRANCH  23  24
HETATM   24  C   UNL     1       8.031  29.446  57.343  1.00  0.00    -0.040 A 
HETATM   25  C   UNL     1       8.358  30.294  58.413  1.00  0.00     0.009 A 
HETATM   26  C   UNL     1       9.643  30.826  58.537  1.00  0.00     0.001 A 
HETATM   27  C   UNL     1      10.616  30.534  57.585  1.00  0.00     0.000 A 
HETATM   28  C   UNL     1      10.305  29.714  56.505  1.00  0.00     0.001 A 
HETATM   29  C   UNL     1       9.022  29.178  56.382  1.00  0.00     0.009 A 
ENDBRANCH  23  24
ENDBRANCH   2  23
BRANCH   3  30
HETATM   30  C   UNL     1       4.639  31.226  57.661  1.00  0.00     0.029 A 
HETATM   31  C   UNL     1       3.544  30.904  58.456  1.00  0.00     0.131 A 
HETATM   32  N   UNL     1       3.260  31.495  59.643  1.00  0.00    -0.272 NA
HETATM   33  C   UNL     1       4.131  32.427  60.082  1.00  0.00     0.116 A 
HETATM   34  C   UNL     1       5.268  32.801  59.387  1.00  0.00     0.020 A 
HETATM   35  C   UNL     1       5.522  32.188  58.162  1.00  0.00     0.018 A 
ENDBRANCH   3  30
TORSDOF 8
ENDMDL
MODEL 8
REMARK VINA RESULT:      -9.6      5.821      8.645
REMARK  8 active torsions:
REMARK  status: ('A' for Active; 'I' for Inactive)
REMARK    1  A    between atoms: C_3  and  O_4 
REMARK    2  A    between atoms: C_11  and  C_12 
REMARK    3  A    between atoms: C_12  and  C_13 
REMARK    4  A    between atoms: C_13  and  S_14 
REMARK    5  A    between atoms: S_14  and  C_15 
REMARK    6  A    between atoms: N_16  and  C_17 
REMARK    7  A    between atoms: C_17  and  C_18 
REMARK    8  A    between atoms: C_24  and  C_25 
ROOT
HETATM    1  C   UNL     1       4.888  28.789  51.502  1.00  0.00     0.192 A 
HETATM    2  N   UNL     1       4.055  29.232  50.508  1.00  0.00    -0.303 N 
HETATM    3  C   UNL     1       4.810  30.118  49.761  1.00  0.00     0.166 A 
HETATM    4  N   UNL     1       6.025  30.167  50.283  1.00  0.00    -0.128 NA
HETATM    5  N   UNL     1       6.066  29.350  51.381  1.00  0.00    -0.122 NA
ENDROOT
BRANCH   1   6
HETATM    6  S   UNL     1       4.436  27.663  52.733  1.00  0.00    -0.082 SA
BRANCH   6   7
HETATM    7  C   UNL     1       6.083  27.180  53.330  1.00  0.00     0.166 C 
BRANCH   7   8
HETATM    8  C   UNL     1       6.522  25.835  52.780  1.00  0.00     0.169 C 
HETATM    9  O   UNL     1       6.564  25.567  51.580  1.00  0.00    -0.291 OA
BRANCH   8  10
HETATM   10  C   UNL     1       6.901  24.771  53.765  1.00  0.00     0.011 A 
HETATM   11  C   UNL     1       6.858  24.985  55.148  1.00  0.00     0.017 A 
HETATM   12  C   UNL     1       7.236  23.981  56.048  1.00  0.00     0.031 A 
HETATM   13  C   UNL     1       7.652  22.757  55.519  1.00  0.00     0.045 A 
HETATM   14  N   UNL     1       8.075  21.614  56.154  1.00  0.00    -0.336 N 
HETATM   15  C   UNL     1       7.696  22.498  54.150  1.00  0.00     0.002 A 
HETATM   16  C   UNL     1       8.377  20.641  55.243  1.00  0.00     0.147 A 
HETATM   17  H   UNL     1       8.153  21.493  57.152  1.00  0.00     0.168 HD
HETATM   18  C   UNL     1       8.156  21.150  53.978  1.00  0.00     0.001 A 
HETATM   19  C   UNL     1       8.338  20.455  52.676  1.00  0.00     0.054 C 
HETATM   20  C   UNL     1       7.310  23.522  53.262  1.00  0.00     0.029 A 
BRANCH  16  21
HETATM   21  O   UNL     1       8.797  19.463  55.679  1.00  0.00    -0.346 OA
HETATM   22  H   UNL     1       9.640  19.269  55.233  1.00  0.00     0.219 HD
ENDBRANCH  16  21
ENDBRANCH   8  10
ENDBRANCH   7   8
ENDBRANCH   6   7
ENDBRANCH   1   6
BRANCH   2  23
HETATM   23  C   UNL     1       2.725  28.734  50.195  1.00  0.00     0.171 C 
BRANCH  23  24
HETATM   24  C   UNL     1       2.672  27.780  49.023  1.00  0.00    -0.040 A 
HETATM   25  C   UNL     1       1.622  27.761  48.092  1.00  0.00     0.009 A 
HETATM   26  C   UNL     1       1.614  26.838  47.043  1.00  0.00     0.001 A 
HETATM   27  C   UNL     1       2.643  25.910  46.920  1.00  0.00     0.000 A 
HETATM   28  C   UNL     1       3.681  25.899  47.846  1.00  0.00     0.001 A 
HETATM   29  C   UNL     1       3.694  26.823  48.892  1.00  0.00     0.009 A 
ENDBRANCH  23  24
ENDBRANCH   2  23
BRANCH   3  30
HETATM   30  C   UNL     1       4.408  30.830  48.555  1.00  0.00     0.029 A 
HETATM   31  C   UNL     1       3.879  32.116  48.571  1.00  0.00     0.131 A 
HETATM   32  N   UNL     1       3.504  32.803  47.463  1.00  0.00    -0.272 NA
HETATM   33  C   UNL     1       3.700  32.194  46.275  1.00  0.00     0.116 A 
HETATM   34  C   UNL     1       4.248  30.930  46.142  1.00  0.00     0.020 A 
HETATM   35  C   UNL     1       4.606  30.244  47.301  1.00  0.00     0.018 A 
ENDBRANCH   3  30
TORSDOF 8
ENDMDL
MODEL 9
REMARK VINA RESULT:      -9.4      3.589     10.124
REMARK  8 active torsions:
REMARK  status: ('A' for Active; 'I' for Inactive)
REMARK    1  A    between atoms: C_3  and  O_4 
REMARK    2  A    between atoms: C_11  and  C_12 
REMARK    3  A    between atoms: C_12  and  C_13 
REMARK    4  A    between atoms: C_13  and  S_14 
REMARK    5  A    between atoms: S_14  and  C_15 
REMARK    6  A    between atoms: N_16  and  C_17 
REMARK    7  A    between atoms: C_17  and  C_18 
REMARK    8  A    between atoms: C_24  and  C_25 
ROOT
HETATM    1  C   UNL     1       5.929  28.023  55.873  1.00  0.00     0.192 A 
HETATM    2  N   UNL     1       6.285  27.551  54.637  1.00  0.00    -0.303 N 
HETATM    3  C   UNL     1       5.214  27.837  53.810  1.00  0.00     0.166 A 
HETATM    4  N   UNL     1       4.296  28.465  54.526  1.00  0.00    -0.128 NA
HETATM    5  N   UNL     1       4.736  28.564  55.819  1.00  0.00    -0.122 NA
ENDROOT
BRANCH   1   6
HETATM    6  S   UNL     1       6.913  27.909  57.290  1.00  0.00    -0.082 SA
BRANCH   6   7
HETATM    7  C   UNL     1       6.916  29.651  57.806  1.00  0.00     0.166 C 
BRANCH   7   8
HETATM    8  C   UNL     1       8.247  30.071  58.404  1.00  0.00     0.169 C 
HETATM    9  O   UNL     1       9.334  29.859  57.869  1.00  0.00    -0.291 OA
BRANCH   8  10
HETATM   10  C   UNL     1       8.226  30.761  59.733  1.00  0.00     0.011 A 
HETATM   11  C   UNL     1       9.187  30.508  60.720  1.00  0.00     0.017 A 
HETATM   12  C   UNL     1       9.135  31.151  61.963  1.00  0.00     0.031 A 
HETATM   13  C   UNL     1       8.096  32.058  62.182  1.00  0.00     0.045 A 
HETATM   14  N   UNL     1       7.800  32.819  63.288  1.00  0.00    -0.336 N 
HETATM   15  C   UNL     1       7.128  32.350  61.222  1.00  0.00     0.002 A 
HETATM   16  C   UNL     1       6.691  33.584  63.064  1.00  0.00     0.147 A 
HETATM   17  H   UNL     1       8.323  32.825  64.151  1.00  0.00     0.168 HD
HETATM   18  C   UNL     1       6.237  33.322  61.785  1.00  0.00     0.001 A 
HETATM   19  C   UNL     1       5.064  33.925  61.098  1.00  0.00     0.054 C 
HETATM   20  C   UNL     1       7.200  31.692  59.977  1.00  0.00     0.029 A 
BRANCH  16  21
HETATM   21  O   UNL     1       6.263  34.389  64.024  1.00  0.00    -0.346 OA
HETATM   22  H   UNL     1       6.890  34.322  64.765  1.00  0.00     0.219 HD
ENDBRANCH  16  21
ENDBRANCH   8  10
ENDBRANCH   7   8
ENDBRANCH   6   7
ENDBRANCH   1   6
BRANCH   2  23
HETATM   23  C   UNL     1       7.584  27.030  54.242  1.00  0.00     0.171 C 
BRANCH  23  24
HETATM   24  C   UNL     1       7.625  25.532  54.044  1.00  0.00    -0.040 A 
HETATM   25  C   UNL     1       7.979  24.925  52.829  1.00  0.00     0.009 A 
HETATM   26  C   UNL     1       7.974  23.534  52.697  1.00  0.00     0.001 A 
HETATM   27  C   UNL     1       7.597  22.731  53.770  1.00  0.00     0.000 A 
HETATM   28  C   UNL     1       7.222  23.315  54.975  1.00  0.00     0.001 A 
HETATM   29  C   UNL     1       7.231  24.705  55.110  1.00  0.00     0.009 A 
ENDBRANCH  23  24
ENDBRANCH   2  23
BRANCH   3  30
HETATM   30  C   UNL     1       5.107  27.588  52.378  1.00  0.00     0.029 A 
HETATM   31  C   UNL     1       5.230  28.588  51.420  1.00  0.00     0.131 A 
HETATM   32  N   UNL     1       5.142  28.381  50.082  1.00  0.00    -0.272 NA
HETATM   33  C   UNL     1       4.961  27.108  49.675  1.00  0.00     0.116 A 
HETATM   34  C   UNL     1       4.859  26.033  50.541  1.00  0.00     0.020 A 
HETATM   35  C   UNL     1       4.935  26.281  51.909  1.00  0.00     0.018 A 
ENDBRANCH   3  30
TORSDOF 8
ENDMDL
MODEL 10
REMARK VINA RESULT:      -9.3      3.809     10.141
REMARK  8 active torsions:
REMARK  status: ('A' for Active; 'I' for Inactive)
REMARK    1  A    between atoms: C_3  and  O_4 
REMARK    2  A    between atoms: C_11  and  C_12 
REMARK    3  A    between atoms: C_12  and  C_13 
REMARK    4  A    between atoms: C_13  and  S_14 
REMARK    5  A    between atoms: S_14  and  C_15 
REMARK    6  A    between atoms: N_16  and  C_17 
REMARK    7  A    between atoms: C_17  and  C_18 
REMARK    8  A    between atoms: C_24  and  C_25 
ROOT
HETATM    1  C   UNL     1       5.549  28.267  55.538  1.00  0.00     0.192 A 
HETATM    2  N   UNL     1       6.013  27.828  54.325  1.00  0.00    -0.303 N 
HETATM    3  C   UNL     1       5.017  28.135  53.415  1.00  0.00     0.166 A 
HETATM    4  N   UNL     1       4.038  28.742  54.065  1.00  0.00    -0.128 NA
HETATM    5  N   UNL     1       4.363  28.807  55.393  1.00  0.00    -0.122 NA
ENDROOT
BRANCH   1   6
HETATM    6  S   UNL     1       6.406  28.117  57.031  1.00  0.00    -0.082 SA
BRANCH   6   7
HETATM    7  C   UNL     1       7.346  29.672  57.006  1.00  0.00     0.166 C 
BRANCH   7   8
HETATM    8  C   UNL     1       7.843  30.066  58.385  1.00  0.00     0.169 C 
HETATM    9  O   UNL     1       8.803  29.536  58.943  1.00  0.00    -0.291 OA
BRANCH   8  10
HETATM   10  C   UNL     1       7.101  31.146  59.111  1.00  0.00     0.011 A 
HETATM   11  C   UNL     1       6.024  31.829  58.531  1.00  0.00     0.017 A 
HETATM   12  C   UNL     1       5.358  32.849  59.221  1.00  0.00     0.031 A 
HETATM   13  C   UNL     1       5.800  33.157  60.511  1.00  0.00     0.045 A 
HETATM   14  N   UNL     1       5.344  34.096  61.404  1.00  0.00    -0.336 N 
HETATM   15  C   UNL     1       6.857  32.492  61.129  1.00  0.00     0.002 A 
HETATM   16  C   UNL     1       6.065  34.047  62.564  1.00  0.00     0.147 A 
HETATM   17  H   UNL     1       4.582  34.737  61.242  1.00  0.00     0.168 HD
HETATM   18  C   UNL     1       7.022  33.059  62.436  1.00  0.00     0.001 A 
HETATM   19  C   UNL     1       8.030  32.637  63.445  1.00  0.00     0.054 C 
HETATM   20  C   UNL     1       7.513  31.468  60.416  1.00  0.00     0.029 A 
BRANCH  16  21
HETATM   21  O   UNL     1       5.757  34.882  63.545  1.00  0.00    -0.346 OA
HETATM   22  H   UNL     1       6.591  35.175  63.953  1.00  0.00     0.219 HD
ENDBRANCH  16  21
ENDBRANCH   8  10
ENDBRANCH   7   8
ENDBRANCH   6   7
ENDBRANCH   1   6
BRANCH   2  23
HETATM   23  C   UNL     1       7.343  27.321  54.031  1.00  0.00     0.171 C 
BRANCH  23  24
HETATM   24  C   UNL     1       7.420  25.819  53.871  1.00  0.00    -0.040 A 
HETATM   25  C   UNL     1       7.105  24.918  54.899  1.00  0.00     0.009 A 
HETATM   26  C   UNL     1       7.221  23.539  54.702  1.00  0.00     0.001 A 
HETATM   27  C   UNL     1       7.670  23.043  53.481  1.00  0.00     0.000 A 
HETATM   28  C   UNL     1       8.008  23.922  52.458  1.00  0.00     0.001 A 
HETATM   29  C   UNL     1       7.889  25.299  52.652  1.00  0.00     0.009 A 
ENDBRANCH  23  24
ENDBRANCH   2  23
BRANCH   3  30
HETATM   30  C   UNL     1       5.036  27.923  51.974  1.00  0.00     0.029 A 
HETATM   31  C   UNL     1       5.323  28.931  51.060  1.00  0.00     0.131 A 
HETATM   32  N   UNL     1       5.355  28.759  49.715  1.00  0.00    -0.272 NA
HETATM   33  C   UNL     1       5.127  27.510  49.257  1.00  0.00     0.116 A 
HETATM   34  C   UNL     1       4.864  26.428  50.079  1.00  0.00     0.020 A 
HETATM   35  C   UNL     1       4.820  26.643  51.455  1.00  0.00     0.018 A 
ENDBRANCH   3  30
TORSDOF 8
ENDMDL
