MODEL 1
REMARK VINA RESULT:      -9.0      0.000      0.000
REMARK  7 active torsions:
REMARK  status: ('A' for Active; 'I' for Inactive)
REMARK    1  A    between atoms: C_2  and  N_3 
REMARK    2  A    between atoms: N_3  and  C_4 
REMARK    3  A    between atoms: C_6  and  C_7 
REMARK    4  A    between atoms: C_7  and  N_8 
REMARK       I    between atoms: N_8  and  C_9 
REMARK       I    between atoms: C_9  and  N_10 
REMARK    5  A    between atoms: N_10  and  C_11 
REMARK    6  A    between atoms: C_11  and  C_12 
REMARK    7  A    between atoms: C_12  and  N_13 
ROOT
HETATM    1  N   UNL     1       6.410  27.413  56.388  1.00  0.00    -0.339 N 
HETATM    2  C   UNL     1       7.232  27.706  57.428  1.00  0.00     0.316 C 
HETATM    3  N   UNL     1       7.495  29.045  57.526  1.00  0.00    -0.342 N 
HETATM    4  O   UNL     1       7.730  26.884  58.187  1.00  0.00    -0.248 OA
HETATM    5  H   UNL     1       6.287  28.093  55.654  1.00  0.00     0.164 HD
HETATM    6  H   UNL     1       6.876  29.626  56.976  1.00  0.00     0.164 HD
ENDROOT
BRANCH   1   7
HETATM    7  C   UNL     1       6.020  26.051  56.074  1.00  0.00     0.162 C 
BRANCH   7   8
HETATM    8  C   UNL     1       6.766  25.499  54.887  1.00  0.00    -0.039 A 
HETATM    9  C   UNL     1       7.429  24.263  54.985  1.00  0.00     0.032 A 
HETATM   10  C   UNL     1       8.038  23.661  53.875  1.00  0.00     0.009 A 
HETATM   11  C   UNL     1       8.059  24.369  52.671  1.00  0.00     0.023 A 
HETATM   12  C   UNL     1       7.414  25.603  52.555  1.00  0.00     0.002 A 
HETATM   13  C   UNL     1       6.757  26.157  53.652  1.00  0.00     0.009 A 
BRANCH  10  14
HETATM   14  N   UNL     1       8.698  22.441  54.079  1.00  0.00    -0.289 NA
HETATM   15  H   UNL     1       9.483  22.395  53.430  1.00  0.00     0.128 HD
BRANCH  14  16
HETATM   16  C   UNL     1       7.924  21.188  54.036  1.00  0.00     0.052 C 
HETATM   17  C   UNL     1       8.145  20.366  55.307  1.00  0.00     0.026 C 
HETATM   18  C   UNL     1       8.390  20.381  52.822  1.00  0.00     0.026 C 
ENDBRANCH  14  16
ENDBRANCH  10  14
ENDBRANCH   7   8
ENDBRANCH   1   7
BRANCH   3  19
HETATM   19  C   UNL     1       8.093  29.706  58.685  1.00  0.00     0.152 C 
BRANCH  19  20
HETATM   20  C   UNL     1       7.837  31.211  58.916  1.00  0.00     0.255 C 
BRANCH  20  21
HETATM   21  N   UNL     1       7.186  31.522  60.238  1.00  0.00    -0.065 N 
HETATM   22  H   UNL     1       6.823  30.604  60.560  1.00  0.00     0.280 HD
HETATM   23  C   UNL     1       8.128  32.029  61.304  1.00  0.00     0.274 C 
HETATM   24  C   UNL     1       7.404  32.495  62.522  1.00  0.00    -0.019 A 
HETATM   25  C   UNL     1       6.035  32.678  62.541  1.00  0.00    -0.008 A 
HETATM   26  C   UNL     1       7.983  32.829  63.786  1.00  0.00     0.017 A 
HETATM   27  S   UNL     1       5.455  33.222  64.042  1.00  0.00    -0.106 SA
HETATM   28  C   UNL     1       5.130  32.411  61.384  1.00  0.00     0.074 C 
HETATM   29  C   UNL     1       7.035  33.241  64.699  1.00  0.00     0.051 A 
HETATM   30  C   UNL     1       5.947  32.392  60.082  1.00  0.00     0.240 C 
ENDBRANCH  20  21
ENDBRANCH  19  20
ENDBRANCH   3  19
TORSDOF 7
ENDMDL
MODEL 2
REMARK VINA RESULT:      -8.9      3.633     11.345
REMARK  7 active torsions:
REMARK  status: ('A' for Active; 'I' for Inactive)
REMARK    1  A    between atoms: C_2  and  N_3 
REMARK    2  A    between atoms: N_3  and  C_4 
REMARK    3  A    between atoms: C_6  and  C_7 
REMARK    4  A    between atoms: C_7  and  N_8 
REMARK       I    between atoms: N_8  and  C_9 
REMARK       I    between atoms: C_9  and  N_10 
REMARK    5  A    between atoms: N_10  and  C_11 
REMARK    6  A    between atoms: C_11  and  C_12 
REMARK    7  A    between atoms: C_12  and  N_13 
ROOT
HETATM    1  N   UNL     1       7.027  29.628  58.395  1.00  0.00    -0.339 N 
HETATM    2  C   UNL     1       7.863  28.764  57.762  1.00  0.00     0.316 C 
HETATM    3  N   UNL     1       7.404  27.476  57.789  1.00  0.00    -0.342 N 
HETATM    4  O   UNL     1       8.933  29.066  57.248  1.00  0.00    -0.248 OA
HETATM    5  H   UNL     1       6.335  29.262  59.029  1.00  0.00     0.164 HD
HETATM    6  H   UNL     1       6.432  27.392  58.060  1.00  0.00     0.164 HD
ENDROOT
BRANCH   1   7
HETATM    7  C   UNL     1       7.328  31.041  58.515  1.00  0.00     0.162 C 
BRANCH   7   8
HETATM    8  C   UNL     1       7.842  31.405  59.884  1.00  0.00    -0.039 A 
HETATM    9  C   UNL     1       7.104  32.275  60.705  1.00  0.00     0.032 A 
HETATM   10  C   UNL     1       7.488  32.550  62.025  1.00  0.00     0.009 A 
HETATM   11  C   UNL     1       8.690  32.010  62.487  1.00  0.00     0.023 A 
HETATM   12  C   UNL     1       9.444  31.149  61.684  1.00  0.00     0.002 A 
HETATM   13  C   UNL     1       9.014  30.835  60.396  1.00  0.00     0.009 A 
BRANCH  10  14
HETATM   14  N   UNL     1       6.702  33.453  62.756  1.00  0.00    -0.289 NA
HETATM   15  H   UNL     1       7.202  34.341  62.801  1.00  0.00     0.128 HD
BRANCH  14  16
HETATM   16  C   UNL     1       6.219  33.068  64.093  1.00  0.00     0.052 C 
HETATM   17  C   UNL     1       4.779  33.537  64.309  1.00  0.00     0.026 C 
HETATM   18  C   UNL     1       7.128  33.723  65.136  1.00  0.00     0.026 C 
ENDBRANCH  14  16
ENDBRANCH  10  14
ENDBRANCH   7   8
ENDBRANCH   1   7
BRANCH   3  19
HETATM   19  C   UNL     1       7.910  26.381  56.964  1.00  0.00     0.152 C 
BRANCH  19  20
HETATM   20  C   UNL     1       7.211  26.052  55.626  1.00  0.00     0.255 C 
BRANCH  20  21
HETATM   21  N   UNL     1       7.685  24.772  54.990  1.00  0.00    -0.065 N 
HETATM   22  H   UNL     1       8.681  24.960  54.763  1.00  0.00     0.280 HD
HETATM   23  C   UNL     1       7.653  23.565  55.897  1.00  0.00     0.274 C 
HETATM   24  C   UNL     1       7.953  22.300  55.163  1.00  0.00    -0.019 A 
HETATM   25  C   UNL     1       7.986  22.238  53.784  1.00  0.00    -0.008 A 
HETATM   26  C   UNL     1       8.215  21.019  55.741  1.00  0.00     0.017 A 
HETATM   27  S   UNL     1       8.340  20.685  53.195  1.00  0.00    -0.106 SA
HETATM   28  C   UNL     1       7.763  23.405  52.879  1.00  0.00     0.074 C 
HETATM   29  C   UNL     1       8.440  20.053  54.782  1.00  0.00     0.051 A 
HETATM   30  C   UNL     1       7.025  24.517  53.643  1.00  0.00     0.240 C 
ENDBRANCH  20  21
ENDBRANCH  19  20
ENDBRANCH   3  19
TORSDOF 7
ENDMDL
MODEL 3
REMARK VINA RESULT:      -8.7      3.599     11.340
REMARK  7 active torsions:
REMARK  status: ('A' for Active; 'I' for Inactive)
REMARK    1  A    between atoms: C_2  and  N_3 
REMARK    2  A    between atoms: N_3  and  C_4 
REMARK    3  A    between atoms: C_6  and  C_7 
REMARK    4  A    between atoms: C_7  and  N_8 
REMARK       I    between atoms: N_8  and  C_9 
REMARK       I    between atoms: C_9  and  N_10 
REMARK    5  A    between atoms: N_10  and  C_11 
REMARK    6  A    between atoms: C_11  and  C_12 
REMARK    7  A    between atoms: C_12  and  N_13 
ROOT
HETATM    1  N   UNL     1       7.107  29.837  58.385  1.00  0.00    -0.339 N 
HETATM    2  C   UNL     1       7.947  28.887  57.899  1.00  0.00     0.316 C 
HETATM    3  N   UNL     1       7.375  27.645  57.875  1.00  0.00    -0.342 N 
HETATM    4  O   UNL     1       9.105  29.082  57.550  1.00  0.00    -0.248 OA
HETATM    5  H   UNL     1       6.297  29.550  58.912  1.00  0.00     0.164 HD
HETATM    6  H   UNL     1       6.370  27.653  57.997  1.00  0.00     0.164 HD
ENDROOT
BRANCH   1   7
HETATM    7  C   UNL     1       7.511  31.223  58.529  1.00  0.00     0.162 C 
BRANCH   7   8
HETATM    8  C   UNL     1       7.821  31.585  59.959  1.00  0.00    -0.039 A 
HETATM    9  C   UNL     1       6.797  32.040  60.807  1.00  0.00     0.032 A 
HETATM   10  C   UNL     1       7.019  32.279  62.171  1.00  0.00     0.009 A 
HETATM   11  C   UNL     1       8.321  32.149  62.659  1.00  0.00     0.023 A 
HETATM   12  C   UNL     1       9.355  31.707  61.830  1.00  0.00     0.002 A 
HETATM   13  C   UNL     1       9.104  31.411  60.492  1.00  0.00     0.009 A 
BRANCH  10  14
HETATM   14  N   UNL     1       5.941  32.757  62.930  1.00  0.00    -0.289 NA
HETATM   15  H   UNL     1       5.367  31.958  63.199  1.00  0.00     0.128 HD
BRANCH  14  16
HETATM   16  C   UNL     1       5.097  33.834  62.384  1.00  0.00     0.052 C 
HETATM   17  C   UNL     1       5.759  35.199  62.581  1.00  0.00     0.026 C 
HETATM   18  C   UNL     1       3.755  33.809  63.120  1.00  0.00     0.026 C 
ENDBRANCH  14  16
ENDBRANCH  10  14
ENDBRANCH   7   8
ENDBRANCH   1   7
BRANCH   3  19
HETATM   19  C   UNL     1       7.899  26.487  57.153  1.00  0.00     0.152 C 
BRANCH  19  20
HETATM   20  C   UNL     1       7.081  25.884  55.990  1.00  0.00     0.255 C 
BRANCH  20  21
HETATM   21  N   UNL     1       7.309  24.410  55.786  1.00  0.00    -0.065 N 
HETATM   22  H   UNL     1       6.441  23.970  56.152  1.00  0.00     0.280 HD
HETATM   23  C   UNL     1       7.453  23.984  54.344  1.00  0.00     0.274 C 
HETATM   24  C   UNL     1       7.861  22.555  54.216  1.00  0.00    -0.019 A 
HETATM   25  C   UNL     1       8.304  21.815  55.294  1.00  0.00    -0.008 A 
HETATM   26  C   UNL     1       7.880  21.776  53.017  1.00  0.00     0.017 A 
HETATM   27  S   UNL     1       8.717  20.219  54.884  1.00  0.00    -0.106 SA
HETATM   28  C   UNL     1       8.399  22.331  56.693  1.00  0.00     0.074 C 
HETATM   29  C   UNL     1       8.325  20.490  53.240  1.00  0.00     0.051 A 
HETATM   30  C   UNL     1       8.418  23.868  56.676  1.00  0.00     0.240 C 
ENDBRANCH  20  21
ENDBRANCH  19  20
ENDBRANCH   3  19
TORSDOF 7
ENDMDL
MODEL 4
REMARK VINA RESULT:      -8.5      3.512     11.152
REMARK  7 active torsions:
REMARK  status: ('A' for Active; 'I' for Inactive)
REMARK    1  A    between atoms: C_2  and  N_3 
REMARK    2  A    between atoms: N_3  and  C_4 
REMARK    3  A    between atoms: C_6  and  C_7 
REMARK    4  A    between atoms: C_7  and  N_8 
REMARK       I    between atoms: N_8  and  C_9 
REMARK       I    between atoms: C_9  and  N_10 
REMARK    5  A    between atoms: N_10  and  C_11 
REMARK    6  A    between atoms: C_11  and  C_12 
REMARK    7  A    between atoms: C_12  and  N_13 
ROOT
HETATM    1  N   UNL     1       8.214  30.810  61.073  1.00  0.00    -0.339 N 
HETATM    2  C   UNL     1       8.219  30.845  59.715  1.00  0.00     0.316 C 
HETATM    3  N   UNL     1       7.755  29.685  59.159  1.00  0.00    -0.342 N 
HETATM    4  O   UNL     1       8.623  31.780  59.035  1.00  0.00    -0.248 OA
HETATM    5  H   UNL     1       8.146  29.919  61.539  1.00  0.00     0.164 HD
HETATM    6  H   UNL     1       7.273  29.081  59.814  1.00  0.00     0.164 HD
ENDROOT
BRANCH   1   7
HETATM    7  C   UNL     1       8.692  31.921  61.873  1.00  0.00     0.162 C 
BRANCH   7   8
HETATM    8  C   UNL     1       7.635  32.454  62.806  1.00  0.00    -0.039 A 
HETATM    9  C   UNL     1       6.276  32.355  62.461  1.00  0.00     0.032 A 
HETATM   10  C   UNL     1       5.259  32.735  63.348  1.00  0.00     0.009 A 
HETATM   11  C   UNL     1       5.627  33.313  64.564  1.00  0.00     0.023 A 
HETATM   12  C   UNL     1       6.973  33.429  64.923  1.00  0.00     0.002 A 
HETATM   13  C   UNL     1       7.971  32.987  64.057  1.00  0.00     0.009 A 
BRANCH  10  14
HETATM   14  N   UNL     1       3.934  32.625  62.902  1.00  0.00    -0.289 NA
HETATM   15  H   UNL     1       3.878  31.820  62.277  1.00  0.00     0.128 HD
BRANCH  14  16
HETATM   16  C   UNL     1       3.281  33.795  62.290  1.00  0.00     0.052 C 
HETATM   17  C   UNL     1       1.947  34.096  62.977  1.00  0.00     0.026 C 
HETATM   18  C   UNL     1       3.032  33.484  60.812  1.00  0.00     0.026 C 
ENDBRANCH  14  16
ENDBRANCH  10  14
ENDBRANCH   7   8
ENDBRANCH   1   7
BRANCH   3  19
HETATM   19  C   UNL     1       7.365  29.514  57.761  1.00  0.00     0.152 C 
BRANCH  19  20
HETATM   20  C   UNL     1       6.506  28.296  57.356  1.00  0.00     0.255 C 
BRANCH  20  21
HETATM   21  N   UNL     1       7.043  27.540  56.169  1.00  0.00    -0.065 N 
HETATM   22  H   UNL     1       8.072  27.674  56.233  1.00  0.00     0.280 HD
HETATM   23  C   UNL     1       6.783  26.053  56.195  1.00  0.00     0.274 C 
HETATM   24  C   UNL     1       7.169  25.390  54.915  1.00  0.00    -0.019 A 
HETATM   25  C   UNL     1       7.472  26.107  53.775  1.00  0.00    -0.008 A 
HETATM   26  C   UNL     1       7.259  23.983  54.674  1.00  0.00     0.017 A 
HETATM   27  S   UNL     1       7.872  25.121  52.452  1.00  0.00    -0.106 SA
HETATM   28  C   UNL     1       7.481  27.599  53.692  1.00  0.00     0.074 C 
HETATM   29  C   UNL     1       7.629  23.701  53.376  1.00  0.00     0.051 A 
HETATM   30  C   UNL     1       6.653  28.186  54.847  1.00  0.00     0.240 C 
ENDBRANCH  20  21
ENDBRANCH  19  20
ENDBRANCH   3  19
TORSDOF 7
ENDMDL
MODEL 5
REMARK VINA RESULT:      -8.3      1.799      2.416
REMARK  7 active torsions:
REMARK  status: ('A' for Active; 'I' for Inactive)
REMARK    1  A    between atoms: C_2  and  N_3 
REMARK    2  A    between atoms: N_3  and  C_4 
REMARK    3  A    between atoms: C_6  and  C_7 
REMARK    4  A    between atoms: C_7  and  N_8 
REMARK       I    between atoms: N_8  and  C_9 
REMARK       I    between atoms: C_9  and  N_10 
REMARK    5  A    between atoms: N_10  and  C_11 
REMARK    6  A    between atoms: C_11  and  C_12 
REMARK    7  A    between atoms: C_12  and  N_13 
ROOT
HETATM    1  N   UNL     1       4.810  26.564  56.050  1.00  0.00    -0.339 N 
HETATM    2  C   UNL     1       5.140  27.740  56.644  1.00  0.00     0.316 C 
HETATM    3  N   UNL     1       4.394  28.789  56.181  1.00  0.00    -0.342 N 
HETATM    4  O   UNL     1       6.027  27.885  57.476  1.00  0.00    -0.248 OA
HETATM    5  H   UNL     1       4.288  26.581  55.188  1.00  0.00     0.164 HD
HETATM    6  H   UNL     1       3.575  28.509  55.655  1.00  0.00     0.164 HD
ENDROOT
BRANCH   1   7
HETATM    7  C   UNL     1       5.492  25.324  56.365  1.00  0.00     0.162 C 
BRANCH   7   8
HETATM    8  C   UNL     1       6.196  24.736  55.170  1.00  0.00    -0.039 A 
HETATM    9  C   UNL     1       7.303  23.888  55.350  1.00  0.00     0.032 A 
HETATM   10  C   UNL     1       7.915  23.232  54.273  1.00  0.00     0.009 A 
HETATM   11  C   UNL     1       7.460  23.516  52.984  1.00  0.00     0.023 A 
HETATM   12  C   UNL     1       6.368  24.364  52.781  1.00  0.00     0.002 A 
HETATM   13  C   UNL     1       5.729  24.957  53.868  1.00  0.00     0.009 A 
BRANCH  10  14
HETATM   14  N   UNL     1       9.029  22.427  54.551  1.00  0.00    -0.289 NA
HETATM   15  H   UNL     1       9.772  22.681  53.900  1.00  0.00     0.128 HD
BRANCH  14  16
HETATM   16  C   UNL     1       8.867  20.964  54.598  1.00  0.00     0.052 C 
HETATM   17  C   UNL     1       8.459  20.417  53.229  1.00  0.00     0.026 C 
HETATM   18  C   UNL     1       7.775  20.637  55.621  1.00  0.00     0.026 C 
ENDBRANCH  14  16
ENDBRANCH  10  14
ENDBRANCH   7   8
ENDBRANCH   1   7
BRANCH   3  19
HETATM   19  C   UNL     1       4.301  30.104  56.812  1.00  0.00     0.152 C 
BRANCH  19  20
HETATM   20  C   UNL     1       5.574  30.965  56.964  1.00  0.00     0.255 C 
BRANCH  20  21
HETATM   21  N   UNL     1       6.068  31.076  58.382  1.00  0.00    -0.065 N 
HETATM   22  H   UNL     1       5.516  30.362  58.895  1.00  0.00     0.280 HD
HETATM   23  C   UNL     1       7.527  30.737  58.572  1.00  0.00     0.274 C 
HETATM   24  C   UNL     1       8.003  31.044  59.953  1.00  0.00    -0.019 A 
HETATM   25  C   UNL     1       7.254  31.791  60.841  1.00  0.00    -0.008 A 
HETATM   26  C   UNL     1       9.250  30.655  60.535  1.00  0.00     0.017 A 
HETATM   27  S   UNL     1       8.020  32.007  62.342  1.00  0.00    -0.106 SA
HETATM   28  C   UNL     1       5.898  32.344  60.548  1.00  0.00     0.074 C 
HETATM   29  C   UNL     1       9.386  31.114  61.827  1.00  0.00     0.051 A 
HETATM   30  C   UNL     1       5.680  32.399  59.027  1.00  0.00     0.240 C 
ENDBRANCH  20  21
ENDBRANCH  19  20
ENDBRANCH   3  19
TORSDOF 7
ENDMDL
MODEL 6
REMARK VINA RESULT:      -8.2      4.366      6.331
REMARK  7 active torsions:
REMARK  status: ('A' for Active; 'I' for Inactive)
REMARK    1  A    between atoms: C_2  and  N_3 
REMARK    2  A    between atoms: N_3  and  C_4 
REMARK    3  A    between atoms: C_6  and  C_7 
REMARK    4  A    between atoms: C_7  and  N_8 
REMARK       I    between atoms: N_8  and  C_9 
REMARK       I    between atoms: C_9  and  N_10 
REMARK    5  A    between atoms: N_10  and  C_11 
REMARK    6  A    between atoms: C_11  and  C_12 
REMARK    7  A    between atoms: C_12  and  N_13 
ROOT
HETATM    1  N   UNL     1       7.017  23.371  52.524  1.00  0.00    -0.339 N 
HETATM    2  C   UNL     1       7.120  24.714  52.347  1.00  0.00     0.316 C 
HETATM    3  N   UNL     1       5.912  25.305  52.102  1.00  0.00    -0.342 N 
HETATM    4  O   UNL     1       8.168  25.348  52.362  1.00  0.00    -0.248 OA
HETATM    5  H   UNL     1       6.183  22.900  52.211  1.00  0.00     0.164 HD
HETATM    6  H   UNL     1       5.117  24.715  52.313  1.00  0.00     0.164 HD
ENDROOT
BRANCH   1   7
HETATM    7  C   UNL     1       8.177  22.535  52.766  1.00  0.00     0.162 C 
BRANCH   7   8
HETATM    8  C   UNL     1       8.291  22.115  54.209  1.00  0.00    -0.039 A 
HETATM    9  C   UNL     1       8.130  23.064  55.234  1.00  0.00     0.032 A 
HETATM   10  C   UNL     1       8.116  22.696  56.586  1.00  0.00     0.009 A 
HETATM   11  C   UNL     1       8.366  21.360  56.908  1.00  0.00     0.023 A 
HETATM   12  C   UNL     1       8.537  20.402  55.906  1.00  0.00     0.002 A 
HETATM   13  C   UNL     1       8.483  20.774  54.563  1.00  0.00     0.009 A 
BRANCH  10  14
HETATM   14  N   UNL     1       7.978  23.718  57.536  1.00  0.00    -0.289 NA
HETATM   15  H   UNL     1       7.385  23.370  58.290  1.00  0.00     0.128 HD
BRANCH  14  16
HETATM   16  C   UNL     1       7.522  25.049  57.099  1.00  0.00     0.052 C 
HETATM   17  C   UNL     1       7.997  26.133  58.069  1.00  0.00     0.026 C 
HETATM   18  C   UNL     1       5.992  25.040  57.057  1.00  0.00     0.026 C 
ENDBRANCH  14  16
ENDBRANCH  10  14
ENDBRANCH   7   8
ENDBRANCH   1   7
BRANCH   3  19
HETATM   19  C   UNL     1       5.646  26.741  52.159  1.00  0.00     0.152 C 
BRANCH  19  20
HETATM   20  C   UNL     1       4.659  27.289  53.213  1.00  0.00     0.255 C 
BRANCH  20  21
HETATM   21  N   UNL     1       5.320  27.737  54.490  1.00  0.00    -0.065 N 
HETATM   22  H   UNL     1       5.325  26.884  55.082  1.00  0.00     0.280 HD
HETATM   23  C   UNL     1       6.754  28.184  54.337  1.00  0.00     0.274 C 
HETATM   24  C   UNL     1       7.294  28.790  55.590  1.00  0.00    -0.019 A 
HETATM   25  C   UNL     1       6.481  29.130  56.654  1.00  0.00    -0.008 A 
HETATM   26  C   UNL     1       8.658  29.117  55.863  1.00  0.00     0.017 A 
HETATM   27  S   UNL     1       7.335  29.809  57.955  1.00  0.00    -0.106 SA
HETATM   28  C   UNL     1       5.004  28.911  56.693  1.00  0.00     0.074 C 
HETATM   29  C   UNL     1       8.818  29.679  57.112  1.00  0.00     0.051 A 
HETATM   30  C   UNL     1       4.469  28.735  55.262  1.00  0.00     0.240 C 
ENDBRANCH  20  21
ENDBRANCH  19  20
ENDBRANCH   3  19
TORSDOF 7
ENDMDL
MODEL 7
REMARK VINA RESULT:      -8.2      3.459     11.582
REMARK  7 active torsions:
REMARK  status: ('A' for Active; 'I' for Inactive)
REMARK    1  A    between atoms: C_2  and  N_3 
REMARK    2  A    between atoms: N_3  and  C_4 
REMARK    3  A    between atoms: C_6  and  C_7 
REMARK    4  A    between atoms: C_7  and  N_8 
REMARK       I    between atoms: N_8  and  C_9 
REMARK       I    between atoms: C_9  and  N_10 
REMARK    5  A    between atoms: N_10  and  C_11 
REMARK    6  A    between atoms: C_11  and  C_12 
REMARK    7  A    between atoms: C_12  and  N_13 
ROOT
HETATM    1  N   UNL     1       7.533  31.204  60.413  1.00  0.00    -0.339 N 
HETATM    2  C   UNL     1       7.961  30.470  59.353  1.00  0.00     0.316 C 
HETATM    3  N   UNL     1       6.928  29.974  58.608  1.00  0.00    -0.342 N 
HETATM    4  O   UNL     1       9.133  30.228  59.090  1.00  0.00    -0.248 OA
HETATM    5  H   UNL     1       6.578  31.110  60.719  1.00  0.00     0.164 HD
HETATM    6  H   UNL     1       6.034  30.404  58.809  1.00  0.00     0.164 HD
ENDROOT
BRANCH   1   7
HETATM    7  C   UNL     1       8.456  31.802  61.359  1.00  0.00     0.162 C 
BRANCH   7   8
HETATM    8  C   UNL     1       7.762  32.700  62.350  1.00  0.00    -0.039 A 
HETATM    9  C   UNL     1       6.761  33.586  61.917  1.00  0.00     0.032 A 
HETATM   10  C   UNL     1       6.013  34.356  62.819  1.00  0.00     0.009 A 
HETATM   11  C   UNL     1       6.352  34.297  64.172  1.00  0.00     0.023 A 
HETATM   12  C   UNL     1       7.350  33.430  64.624  1.00  0.00     0.002 A 
HETATM   13  C   UNL     1       8.040  32.623  63.720  1.00  0.00     0.009 A 
BRANCH  10  14
HETATM   14  N   UNL     1       5.055  35.231  62.288  1.00  0.00    -0.289 NA
HETATM   15  H   UNL     1       5.217  35.304  61.283  1.00  0.00     0.128 HD
BRANCH  14  16
HETATM   16  C   UNL     1       4.897  36.570  62.880  1.00  0.00     0.052 C 
HETATM   17  C   UNL     1       3.500  37.129  62.602  1.00  0.00     0.026 C 
HETATM   18  C   UNL     1       5.946  37.495  62.256  1.00  0.00     0.026 C 
ENDBRANCH  14  16
ENDBRANCH  10  14
ENDBRANCH   7   8
ENDBRANCH   1   7
BRANCH   3  19
HETATM   19  C   UNL     1       7.050  29.405  57.267  1.00  0.00     0.152 C 
BRANCH  19  20
HETATM   20  C   UNL     1       6.006  28.376  56.781  1.00  0.00     0.255 C 
BRANCH  20  21
HETATM   21  N   UNL     1       6.526  26.964  56.717  1.00  0.00    -0.065 N 
HETATM   22  H   UNL     1       5.971  26.460  57.436  1.00  0.00     0.280 HD
HETATM   23  C   UNL     1       6.296  26.263  55.400  1.00  0.00     0.274 C 
HETATM   24  C   UNL     1       6.993  24.945  55.332  1.00  0.00    -0.019 A 
HETATM   25  C   UNL     1       7.940  24.563  56.262  1.00  0.00    -0.008 A 
HETATM   26  C   UNL     1       6.819  23.936  54.335  1.00  0.00     0.017 A 
HETATM   27  S   UNL     1       8.592  23.025  55.958  1.00  0.00    -0.106 SA
HETATM   28  C   UNL     1       8.350  25.388  57.439  1.00  0.00     0.074 C 
HETATM   29  C   UNL     1       7.628  22.842  54.556  1.00  0.00     0.051 A 
HETATM   30  C   UNL     1       7.966  26.857  57.200  1.00  0.00     0.240 C 
ENDBRANCH  20  21
ENDBRANCH  19  20
ENDBRANCH   3  19
TORSDOF 7
ENDMDL
MODEL 8
REMARK VINA RESULT:      -8.2      1.949      3.184
REMARK  7 active torsions:
REMARK  status: ('A' for Active; 'I' for Inactive)
REMARK    1  A    between atoms: C_2  and  N_3 
REMARK    2  A    between atoms: N_3  and  C_4 
REMARK    3  A    between atoms: C_6  and  C_7 
REMARK    4  A    between atoms: C_7  and  N_8 
REMARK       I    between atoms: N_8  and  C_9 
REMARK       I    between atoms: C_9  and  N_10 
REMARK    5  A    between atoms: N_10  and  C_11 
REMARK    6  A    between atoms: C_11  and  C_12 
REMARK    7  A    between atoms: C_12  and  N_13 
ROOT
HETATM    1  N   UNL     1       6.210  27.480  56.408  1.00  0.00    -0.339 N 
HETATM    2  C   UNL     1       7.064  27.764  57.425  1.00  0.00     0.316 C 
HETATM    3  N   UNL     1       7.355  29.098  57.508  1.00  0.00    -0.342 N 
HETATM    4  O   UNL     1       7.565  26.937  58.178  1.00  0.00    -0.248 OA
HETATM    5  H   UNL     1       6.082  28.158  55.673  1.00  0.00     0.164 HD
HETATM    6  H   UNL     1       6.733  29.687  56.969  1.00  0.00     0.164 HD
ENDROOT
BRANCH   1   7
HETATM    7  C   UNL     1       5.787  26.124  56.114  1.00  0.00     0.162 C 
BRANCH   7   8
HETATM    8  C   UNL     1       6.221  25.671  54.744  1.00  0.00    -0.039 A 
HETATM    9  C   UNL     1       5.326  25.743  53.662  1.00  0.00     0.032 A 
HETATM   10  C   UNL     1       5.723  25.438  52.353  1.00  0.00     0.009 A 
HETATM   11  C   UNL     1       7.020  24.961  52.152  1.00  0.00     0.023 A 
HETATM   12  C   UNL     1       7.923  24.872  53.215  1.00  0.00     0.002 A 
HETATM   13  C   UNL     1       7.531  25.241  54.501  1.00  0.00     0.009 A 
BRANCH  10  14
HETATM   14  N   UNL     1       4.751  25.514  51.345  1.00  0.00    -0.289 NA
HETATM   15  H   UNL     1       4.556  24.566  51.023  1.00  0.00     0.128 HD
BRANCH  14  16
HETATM   16  C   UNL     1       4.973  26.409  50.196  1.00  0.00     0.052 C 
HETATM   17  C   UNL     1       4.796  27.874  50.604  1.00  0.00     0.026 C 
HETATM   18  C   UNL     1       3.952  26.058  49.112  1.00  0.00     0.026 C 
ENDBRANCH  14  16
ENDBRANCH  10  14
ENDBRANCH   7   8
ENDBRANCH   1   7
BRANCH   3  19
HETATM   19  C   UNL     1       7.994  29.755  58.646  1.00  0.00     0.152 C 
BRANCH  19  20
HETATM   20  C   UNL     1       7.723  31.253  58.909  1.00  0.00     0.255 C 
BRANCH  20  21
HETATM   21  N   UNL     1       7.099  31.532  60.251  1.00  0.00    -0.065 N 
HETATM   22  H   UNL     1       6.783  30.599  60.579  1.00  0.00     0.280 HD
HETATM   23  C   UNL     1       8.050  32.073  61.291  1.00  0.00     0.274 C 
HETATM   24  C   UNL     1       7.343  32.505  62.532  1.00  0.00    -0.019 A 
HETATM   25  C   UNL     1       5.970  32.632  62.592  1.00  0.00    -0.008 A 
HETATM   26  C   UNL     1       7.945  32.858  63.780  1.00  0.00     0.017 A 
HETATM   27  S   UNL     1       5.412  33.146  64.112  1.00  0.00    -0.106 SA
HETATM   28  C   UNL     1       5.042  32.332  61.460  1.00  0.00     0.074 C 
HETATM   29  C   UNL     1       7.009  33.228  64.723  1.00  0.00     0.051 A 
HETATM   30  C   UNL     1       5.822  32.352  60.135  1.00  0.00     0.240 C 
ENDBRANCH  20  21
ENDBRANCH  19  20
ENDBRANCH   3  19
TORSDOF 7
ENDMDL
MODEL 9
REMARK VINA RESULT:      -8.1      1.480      2.152
REMARK  7 active torsions:
REMARK  status: ('A' for Active; 'I' for Inactive)
REMARK    1  A    between atoms: C_2  and  N_3 
REMARK    2  A    between atoms: N_3  and  C_4 
REMARK    3  A    between atoms: C_6  and  C_7 
REMARK    4  A    between atoms: C_7  and  N_8 
REMARK       I    between atoms: N_8  and  C_9 
REMARK       I    between atoms: C_9  and  N_10 
REMARK    5  A    between atoms: N_10  and  C_11 
REMARK    6  A    between atoms: C_11  and  C_12 
REMARK    7  A    between atoms: C_12  and  N_13 
ROOT
HETATM    1  N   UNL     1       6.823  27.870  54.962  1.00  0.00    -0.339 N 
HETATM    2  C   UNL     1       6.859  27.903  56.319  1.00  0.00     0.316 C 
HETATM    3  N   UNL     1       7.750  28.823  56.798  1.00  0.00    -0.342 N 
HETATM    4  O   UNL     1       6.206  27.177  57.060  1.00  0.00    -0.248 OA
HETATM    5  H   UNL     1       7.584  28.279  54.443  1.00  0.00     0.164 HD
HETATM    6  H   UNL     1       8.070  29.485  56.101  1.00  0.00     0.164 HD
ENDROOT
BRANCH   1   7
HETATM    7  C   UNL     1       5.970  26.948  54.236  1.00  0.00     0.162 C 
BRANCH   7   8
HETATM    8  C   UNL     1       6.712  25.719  53.777  1.00  0.00    -0.039 A 
HETATM    9  C   UNL     1       6.746  24.572  54.589  1.00  0.00     0.032 A 
HETATM   10  C   UNL     1       7.328  23.374  54.152  1.00  0.00     0.009 A 
HETATM   11  C   UNL     1       7.970  23.368  52.912  1.00  0.00     0.023 A 
HETATM   12  C   UNL     1       7.957  24.499  52.093  1.00  0.00     0.002 A 
HETATM   13  C   UNL     1       7.317  25.664  52.515  1.00  0.00     0.009 A 
BRANCH  10  14
HETATM   14  N   UNL     1       7.336  22.293  55.045  1.00  0.00    -0.289 NA
HETATM   15  H   UNL     1       6.506  22.364  55.634  1.00  0.00     0.128 HD
BRANCH  14  16
HETATM   16  C   UNL     1       8.532  22.049  55.869  1.00  0.00     0.052 C 
HETATM   17  C   UNL     1       8.585  20.594  56.337  1.00  0.00     0.026 C 
HETATM   18  C   UNL     1       8.467  22.972  57.089  1.00  0.00     0.026 C 
ENDBRANCH  14  16
ENDBRANCH  10  14
ENDBRANCH   7   8
ENDBRANCH   1   7
BRANCH   3  19
HETATM   19  C   UNL     1       7.813  29.302  58.177  1.00  0.00     0.152 C 
BRANCH  19  20
HETATM   20  C   UNL     1       8.936  30.276  58.593  1.00  0.00     0.255 C 
BRANCH  20  21
HETATM   21  N   UNL     1       8.540  31.228  59.691  1.00  0.00    -0.065 N 
HETATM   22  H   UNL     1       9.159  32.050  59.545  1.00  0.00     0.280 HD
HETATM   23  C   UNL     1       7.115  31.721  59.619  1.00  0.00     0.274 C 
HETATM   24  C   UNL     1       6.727  32.505  60.827  1.00  0.00    -0.019 A 
HETATM   25  C   UNL     1       7.503  32.533  61.969  1.00  0.00    -0.008 A 
HETATM   26  C   UNL     1       5.543  33.290  60.994  1.00  0.00     0.017 A 
HETATM   27  S   UNL     1       6.839  33.489  63.205  1.00  0.00    -0.106 SA
HETATM   28  C   UNL     1       8.809  31.824  62.121  1.00  0.00     0.074 C 
HETATM   29  C   UNL     1       5.480  33.877  62.240  1.00  0.00     0.051 A 
HETATM   30  C   UNL     1       8.916  30.706  61.071  1.00  0.00     0.240 C 
ENDBRANCH  20  21
ENDBRANCH  19  20
ENDBRANCH   3  19
TORSDOF 7
ENDMDL
MODEL 10
REMARK VINA RESULT:      -8.0      6.553     10.216
REMARK  7 active torsions:
REMARK  status: ('A' for Active; 'I' for Inactive)
REMARK    1  A    between atoms: C_2  and  N_3 
REMARK    2  A    between atoms: N_3  and  C_4 
REMARK    3  A    between atoms: C_6  and  C_7 
REMARK    4  A    between atoms: C_7  and  N_8 
REMARK       I    between atoms: N_8  and  C_9 
REMARK       I    between atoms: C_9  and  N_10 
REMARK    5  A    between atoms: N_10  and  C_11 
REMARK    6  A    between atoms: C_11  and  C_12 
REMARK    7  A    between atoms: C_12  and  N_13 
ROOT
HETATM    1  N   UNL     1       4.856  25.742  54.856  1.00  0.00    -0.339 N 
HETATM    2  C   UNL     1       5.136  26.760  54.000  1.00  0.00     0.316 C 
HETATM    3  N   UNL     1       4.685  26.517  52.732  1.00  0.00    -0.342 N 
HETATM    4  O   UNL     1       5.755  27.776  54.291  1.00  0.00    -0.248 OA
HETATM    5  H   UNL     1       4.613  24.840  54.479  1.00  0.00     0.164 HD
HETATM    6  H   UNL     1       4.027  25.750  52.671  1.00  0.00     0.164 HD
ENDROOT
BRANCH   1   7
HETATM    7  C   UNL     1       5.268  25.770  56.246  1.00  0.00     0.162 C 
BRANCH   7   8
HETATM    8  C   UNL     1       6.595  25.091  56.466  1.00  0.00    -0.039 A 
HETATM    9  C   UNL     1       6.960  23.986  55.678  1.00  0.00     0.032 A 
HETATM   10  C   UNL     1       8.228  23.397  55.773  1.00  0.00     0.009 A 
HETATM   11  C   UNL     1       9.104  23.873  56.751  1.00  0.00     0.023 A 
HETATM   12  C   UNL     1       8.757  24.964  57.552  1.00  0.00     0.002 A 
HETATM   13  C   UNL     1       7.516  25.581  57.400  1.00  0.00     0.009 A 
BRANCH  10  14
HETATM   14  N   UNL     1       8.489  22.282  54.964  1.00  0.00    -0.289 NA
HETATM   15  H   UNL     1       9.484  22.279  54.742  1.00  0.00     0.128 HD
BRANCH  14  16
HETATM   16  C   UNL     1       7.691  22.077  53.743  1.00  0.00     0.052 C 
HETATM   17  C   UNL     1       7.915  20.674  53.173  1.00  0.00     0.026 C 
HETATM   18  C   UNL     1       8.124  23.119  52.709  1.00  0.00     0.026 C 
ENDBRANCH  14  16
ENDBRANCH  10  14
ENDBRANCH   7   8
ENDBRANCH   1   7
BRANCH   3  19
HETATM   19  C   UNL     1       4.568  27.515  51.671  1.00  0.00     0.152 C 
BRANCH  19  20
HETATM   20  C   UNL     1       4.795  27.092  50.202  1.00  0.00     0.255 C 
BRANCH  20  21
HETATM   21  N   UNL     1       3.547  27.128  49.360  1.00  0.00    -0.065 N 
HETATM   22  H   UNL     1       2.828  26.677  49.959  1.00  0.00     0.280 HD
HETATM   23  C   UNL     1       3.047  28.513  49.027  1.00  0.00     0.274 C 
HETATM   24  C   UNL     1       1.926  28.487  48.042  1.00  0.00    -0.019 A 
HETATM   25  C   UNL     1       1.589  27.348  47.338  1.00  0.00    -0.008 A 
HETATM   26  C   UNL     1       1.086  29.584  47.674  1.00  0.00     0.017 A 
HETATM   27  S   UNL     1       0.286  27.581  46.275  1.00  0.00    -0.106 SA
HETATM   28  C   UNL     1       2.267  26.026  47.495  1.00  0.00     0.074 C 
HETATM   29  C   UNL     1       0.155  29.228  46.722  1.00  0.00     0.051 A 
HETATM   30  C   UNL     1       3.649  26.227  48.137  1.00  0.00     0.240 C 
ENDBRANCH  20  21
ENDBRANCH  19  20
ENDBRANCH   3  19
TORSDOF 7
ENDMDL
