MODEL 1
REMARK VINA RESULT:      -9.3      0.000      0.000
REMARK  7 active torsions:
REMARK  status: ('A' for Active; 'I' for Inactive)
REMARK       I    between atoms: C_2  and  N_3 
REMARK    1  A    between atoms: N_3  and  C_4 
REMARK    2  A    between atoms: N_9  and  C_10 
REMARK    3  A    between atoms: C_10  and  C_11 
REMARK    4  A    between atoms: C_11  and  C_12 
REMARK    5  A    between atoms: C_12  and  O_13 
REMARK    6  A    between atoms: O_13  and  C_14 
REMARK    7  A    between atoms: C_17  and  C_18 
REMARK       I    between atoms: N_30  and  C_31 
ROOT
HETATM    1  C   UNL     1       5.209  34.143  66.276  1.00  0.00     0.191 C 
HETATM    2  S   UNL     1       4.204  35.405  65.642  1.00  0.00    -0.042 SA
HETATM    3  C   UNL     1       4.876  35.018  63.974  1.00  0.00     0.224 A 
HETATM    4  C   UNL     1       3.773  34.253  63.190  1.00  0.00     0.271 A 
HETATM    5  O   UNL     1       3.345  33.141  63.469  1.00  0.00    -0.269 OA
HETATM    6  N   UNL     1       3.360  35.094  62.138  1.00  0.00    -0.314 N 
HETATM    7  C   UNL     1       4.160  36.255  62.097  1.00  0.00     0.047 A 
HETATM    8  C   UNL     1       5.080  36.255  63.154  1.00  0.00     0.019 A 
HETATM    9  C   UNL     1       4.127  37.287  61.176  1.00  0.00     0.030 A 
HETATM   10  C   UNL     1       5.039  38.335  61.331  1.00  0.00     0.002 A 
HETATM   11  C   UNL     1       5.962  38.337  62.388  1.00  0.00     0.001 A 
HETATM   12  C   UNL     1       5.989  37.291  63.312  1.00  0.00     0.013 A 
HETATM   13  N   UNL     1       6.023  34.155  64.237  1.00  0.00    -0.201 N 
HETATM   14  C   UNL     1       6.824  33.672  63.215  1.00  0.00     0.238 C 
HETATM   15  C   UNL     1       7.904  32.707  63.636  1.00  0.00     0.119 C 
HETATM   16  O   UNL     1       6.677  33.984  62.033  1.00  0.00    -0.272 OA
HETATM   17  N   UNL     1       6.109  33.621  65.513  1.00  0.00    -0.141 NA
ENDROOT
BRANCH   6  18
HETATM   18  C   UNL     1       2.386  34.781  61.101  1.00  0.00     0.134 C 
BRANCH  18  19
HETATM   19  C   UNL     1       2.964  34.419  59.736  1.00  0.00     0.047 C 
BRANCH  19  20
HETATM   20  C   UNL     1       3.953  33.261  59.816  1.00  0.00     0.177 C 
BRANCH  20  21
HETATM   21  O   UNL     1       4.803  33.364  58.674  1.00  0.00    -0.351 OA
BRANCH  21  22
HETATM   22  C   UNL     1       5.604  32.301  58.379  1.00  0.00     0.068 A 
HETATM   23  C   UNL     1       6.674  31.840  59.138  1.00  0.00     0.037 A 
HETATM   24  C   UNL     1       7.428  30.738  58.703  1.00  0.00     0.011 A 
HETATM   25  C   UNL     1       7.130  30.070  57.503  1.00  0.00    -0.050 A 
HETATM   26  C   UNL     1       6.036  30.550  56.759  1.00  0.00     0.011 A 
HETATM   27  C   UNL     1       5.289  31.648  57.191  1.00  0.00     0.037 A 
BRANCH  25  28
HETATM   28  C   UNL     1       7.939  28.865  56.995  1.00  0.00    -0.024 C 
HETATM   29  C   UNL     1       7.572  27.532  57.682  1.00  0.00     0.019 C 
HETATM   30  C   UNL     1       7.698  28.684  55.481  1.00  0.00     0.019 C 
HETATM   31  C   UNL     1       9.445  29.106  57.244  1.00  0.00     0.019 C 
ENDBRANCH  25  28
ENDBRANCH  21  22
ENDBRANCH  20  21
ENDBRANCH  19  20
ENDBRANCH  18  19
ENDBRANCH   6  18
BRANCH   1  32
HETATM   32  N   UNL     1       4.944  33.824  67.575  1.00  0.00    -0.305 N 
HETATM   33  C   UNL     1       5.624  34.137  68.729  1.00  0.00     0.219 C 
HETATM   34  C   UNL     1       6.922  34.889  68.626  1.00  0.00     0.117 C 
HETATM   35  O   UNL     1       5.158  33.794  69.816  1.00  0.00    -0.274 OA
HETATM   36  H   UNL     1       4.124  33.258  67.736  1.00  0.00     0.171 HD
ENDBRANCH   1  32
TORSDOF 7
ENDMDL
MODEL 2
REMARK VINA RESULT:      -9.1     12.037     14.472
REMARK  7 active torsions:
REMARK  status: ('A' for Active; 'I' for Inactive)
REMARK       I    between atoms: C_2  and  N_3 
REMARK    1  A    between atoms: N_3  and  C_4 
REMARK    2  A    between atoms: N_9  and  C_10 
REMARK    3  A    between atoms: C_10  and  C_11 
REMARK    4  A    between atoms: C_11  and  C_12 
REMARK    5  A    between atoms: C_12  and  O_13 
REMARK    6  A    between atoms: O_13  and  C_14 
REMARK    7  A    between atoms: C_17  and  C_18 
REMARK       I    between atoms: N_30  and  C_31 
ROOT
HETATM    1  C   UNL     1       1.715  31.056  50.220  1.00  0.00     0.191 C 
HETATM    2  S   UNL     1       1.444  29.358  50.444  1.00  0.00    -0.042 SA
HETATM    3  C   UNL     1       2.932  29.046  49.410  1.00  0.00     0.224 A 
HETATM    4  C   UNL     1       4.082  28.611  50.362  1.00  0.00     0.271 A 
HETATM    5  O   UNL     1       4.604  29.318  51.214  1.00  0.00    -0.269 OA
HETATM    6  N   UNL     1       4.369  27.264  50.068  1.00  0.00    -0.314 N 
HETATM    7  C   UNL     1       3.612  26.834  48.958  1.00  0.00     0.047 A 
HETATM    8  C   UNL     1       2.755  27.853  48.523  1.00  0.00     0.019 A 
HETATM    9  C   UNL     1       3.656  25.610  48.314  1.00  0.00     0.030 A 
HETATM   10  C   UNL     1       2.817  25.417  47.212  1.00  0.00     0.002 A 
HETATM   11  C   UNL     1       1.958  26.437  46.773  1.00  0.00     0.001 A 
HETATM   12  C   UNL     1       1.920  27.669  47.429  1.00  0.00     0.013 A 
HETATM   13  N   UNL     1       3.224  30.338  48.796  1.00  0.00    -0.201 N 
HETATM   14  C   UNL     1       4.272  30.504  47.907  1.00  0.00     0.238 C 
HETATM   15  C   UNL     1       4.513  31.919  47.441  1.00  0.00     0.119 C 
HETATM   16  O   UNL     1       4.985  29.579  47.517  1.00  0.00    -0.272 OA
HETATM   17  N   UNL     1       2.586  31.437  49.348  1.00  0.00    -0.141 NA
ENDROOT
BRANCH   6  18
HETATM   18  C   UNL     1       5.415  26.444  50.665  1.00  0.00     0.134 C 
BRANCH  18  19
HETATM   19  C   UNL     1       5.020  25.679  51.924  1.00  0.00     0.047 C 
BRANCH  19  20
HETATM   20  C   UNL     1       5.267  26.487  53.193  1.00  0.00     0.177 C 
BRANCH  20  21
HETATM   21  O   UNL     1       6.649  26.337  53.516  1.00  0.00    -0.351 OA
BRANCH  21  22
HETATM   22  C   UNL     1       7.116  25.077  53.746  1.00  0.00     0.068 A 
HETATM   23  C   UNL     1       7.896  24.316  52.883  1.00  0.00     0.037 A 
HETATM   24  C   UNL     1       8.295  23.020  53.245  1.00  0.00     0.011 A 
HETATM   25  C   UNL     1       7.927  22.454  54.477  1.00  0.00    -0.050 A 
HETATM   26  C   UNL     1       7.146  23.248  55.337  1.00  0.00     0.011 A 
HETATM   27  C   UNL     1       6.747  24.536  54.975  1.00  0.00     0.037 A 
BRANCH  25  28
HETATM   28  C   UNL     1       8.340  21.035  54.902  1.00  0.00    -0.024 C 
HETATM   29  C   UNL     1       7.356  20.367  55.887  1.00  0.00     0.019 C 
HETATM   30  C   UNL     1       8.428  20.129  53.655  1.00  0.00     0.019 C 
HETATM   31  C   UNL     1       9.720  21.079  55.595  1.00  0.00     0.019 C 
ENDBRANCH  25  28
ENDBRANCH  21  22
ENDBRANCH  20  21
ENDBRANCH  19  20
ENDBRANCH  18  19
ENDBRANCH   6  18
BRANCH   1  32
HETATM   32  N   UNL     1       0.939  31.850  51.012  1.00  0.00    -0.305 N 
HETATM   33  C   UNL     1      -0.178  32.594  50.712  1.00  0.00     0.219 C 
HETATM   34  C   UNL     1      -0.647  32.657  49.285  1.00  0.00     0.117 C 
HETATM   35  O   UNL     1      -0.765  33.191  51.615  1.00  0.00    -0.274 OA
HETATM   36  H   UNL     1       1.221  31.924  51.979  1.00  0.00     0.171 HD
ENDBRANCH   1  32
TORSDOF 7
ENDMDL
MODEL 3
REMARK VINA RESULT:      -8.7      7.598     10.196
REMARK  7 active torsions:
REMARK  status: ('A' for Active; 'I' for Inactive)
REMARK       I    between atoms: C_2  and  N_3 
REMARK    1  A    between atoms: N_3  and  C_4 
REMARK    2  A    between atoms: N_9  and  C_10 
REMARK    3  A    between atoms: C_10  and  C_11 
REMARK    4  A    between atoms: C_11  and  C_12 
REMARK    5  A    between atoms: C_12  and  O_13 
REMARK    6  A    between atoms: O_13  and  C_14 
REMARK    7  A    between atoms: C_17  and  C_18 
REMARK       I    between atoms: N_30  and  C_31 
ROOT
HETATM    1  C   UNL     1       7.189  26.303  57.572  1.00  0.00     0.191 C 
HETATM    2  S   UNL     1       5.632  26.523  56.845  1.00  0.00    -0.042 SA
HETATM    3  C   UNL     1       6.149  28.231  56.401  1.00  0.00     0.224 A 
HETATM    4  C   UNL     1       6.453  28.249  54.876  1.00  0.00     0.271 A 
HETATM    5  O   UNL     1       7.362  27.641  54.326  1.00  0.00    -0.269 OA
HETATM    6  N   UNL     1       5.474  29.062  54.273  1.00  0.00    -0.314 N 
HETATM    7  C   UNL     1       4.658  29.657  55.258  1.00  0.00     0.047 A 
HETATM    8  C   UNL     1       5.021  29.208  56.534  1.00  0.00     0.019 A 
HETATM    9  C   UNL     1       3.636  30.573  55.084  1.00  0.00     0.030 A 
HETATM   10  C   UNL     1       2.972  31.041  56.223  1.00  0.00     0.002 A 
HETATM   11  C   UNL     1       3.336  30.594  57.503  1.00  0.00     0.001 A 
HETATM   12  C   UNL     1       4.368  29.669  57.668  1.00  0.00     0.013 A 
HETATM   13  N   UNL     1       7.364  28.455  57.178  1.00  0.00    -0.201 N 
HETATM   14  C   UNL     1       8.045  29.660  57.139  1.00  0.00     0.238 C 
HETATM   15  C   UNL     1       9.341  29.701  57.910  1.00  0.00     0.119 C 
HETATM   16  O   UNL     1       7.649  30.644  56.513  1.00  0.00    -0.272 OA
HETATM   17  N   UNL     1       7.952  27.330  57.733  1.00  0.00    -0.141 NA
ENDROOT
BRANCH   6  18
HETATM   18  C   UNL     1       5.386  29.423  52.864  1.00  0.00     0.134 C 
BRANCH  18  19
HETATM   19  C   UNL     1       4.589  28.466  51.984  1.00  0.00     0.047 C 
BRANCH  19  20
HETATM   20  C   UNL     1       4.728  27.015  52.433  1.00  0.00     0.177 C 
BRANCH  20  21
HETATM   21  O   UNL     1       5.774  26.438  51.652  1.00  0.00    -0.351 OA
BRANCH  21  22
HETATM   22  C   UNL     1       6.437  25.366  52.169  1.00  0.00     0.068 A 
HETATM   23  C   UNL     1       7.709  24.932  51.811  1.00  0.00     0.037 A 
HETATM   24  C   UNL     1       8.266  23.795  52.418  1.00  0.00     0.011 A 
HETATM   25  C   UNL     1       7.570  23.067  53.398  1.00  0.00    -0.050 A 
HETATM   26  C   UNL     1       6.290  23.533  53.750  1.00  0.00     0.011 A 
HETATM   27  C   UNL     1       5.735  24.662  53.143  1.00  0.00     0.037 A 
BRANCH  25  28
HETATM   28  C   UNL     1       8.148  21.815  54.076  1.00  0.00    -0.024 C 
HETATM   29  C   UNL     1       7.389  21.389  55.352  1.00  0.00     0.019 C 
HETATM   30  C   UNL     1       8.098  20.626  53.093  1.00  0.00     0.019 C 
HETATM   31  C   UNL     1       9.616  22.074  54.485  1.00  0.00     0.019 C 
ENDBRANCH  25  28
ENDBRANCH  21  22
ENDBRANCH  20  21
ENDBRANCH  19  20
ENDBRANCH  18  19
ENDBRANCH   6  18
BRANCH   1  32
HETATM   32  N   UNL     1       7.456  25.013  57.928  1.00  0.00    -0.305 N 
HETATM   33  C   UNL     1       8.471  24.170  57.540  1.00  0.00     0.219 C 
HETATM   34  C   UNL     1       9.448  24.641  56.499  1.00  0.00     0.117 C 
HETATM   35  O   UNL     1       8.554  23.052  58.049  1.00  0.00    -0.274 OA
HETATM   36  H   UNL     1       6.808  24.588  58.575  1.00  0.00     0.171 HD
ENDBRANCH   1  32
TORSDOF 7
ENDMDL
MODEL 4
REMARK VINA RESULT:      -8.6     11.091     13.718
REMARK  7 active torsions:
REMARK  status: ('A' for Active; 'I' for Inactive)
REMARK       I    between atoms: C_2  and  N_3 
REMARK    1  A    between atoms: N_3  and  C_4 
REMARK    2  A    between atoms: N_9  and  C_10 
REMARK    3  A    between atoms: C_10  and  C_11 
REMARK    4  A    between atoms: C_11  and  C_12 
REMARK    5  A    between atoms: C_12  and  O_13 
REMARK    6  A    between atoms: O_13  and  C_14 
REMARK    7  A    between atoms: C_17  and  C_18 
REMARK       I    between atoms: N_30  and  C_31 
ROOT
HETATM    1  C   UNL     1       2.250  32.263  48.906  1.00  0.00     0.191 C 
HETATM    2  S   UNL     1       1.777  30.617  49.170  1.00  0.00    -0.042 SA
HETATM    3  C   UNL     1       3.503  30.271  49.701  1.00  0.00     0.224 A 
HETATM    4  C   UNL     1       3.498  30.131  51.250  1.00  0.00     0.271 A 
HETATM    5  O   UNL     1       3.246  31.029  52.043  1.00  0.00    -0.269 OA
HETATM    6  N   UNL     1       3.806  28.789  51.541  1.00  0.00    -0.314 N 
HETATM    7  C   UNL     1       4.122  28.091  50.356  1.00  0.00     0.047 A 
HETATM    8  C   UNL     1       3.969  28.924  49.240  1.00  0.00     0.019 A 
HETATM    9  C   UNL     1       4.547  26.781  50.221  1.00  0.00     0.030 A 
HETATM   10  C   UNL     1       4.819  26.309  48.933  1.00  0.00     0.002 A 
HETATM   11  C   UNL     1       4.669  27.143  47.813  1.00  0.00     0.001 A 
HETATM   12  C   UNL     1       4.240  28.463  47.960  1.00  0.00     0.013 A 
HETATM   13  N   UNL     1       4.254  31.451  49.286  1.00  0.00    -0.201 N 
HETATM   14  C   UNL     1       5.620  31.557  49.485  1.00  0.00     0.238 C 
HETATM   15  C   UNL     1       6.234  32.880  49.101  1.00  0.00     0.119 C 
HETATM   16  O   UNL     1       6.309  30.651  49.955  1.00  0.00    -0.272 OA
HETATM   17  N   UNL     1       3.503  32.564  48.941  1.00  0.00    -0.141 NA
ENDROOT
BRANCH   6  18
HETATM   18  C   UNL     1       3.974  28.198  52.862  1.00  0.00     0.134 C 
BRANCH  18  19
HETATM   19  C   UNL     1       5.090  28.790  53.716  1.00  0.00     0.047 C 
BRANCH  19  20
HETATM   20  C   UNL     1       6.049  27.725  54.236  1.00  0.00     0.177 C 
BRANCH  20  21
HETATM   21  O   UNL     1       6.568  27.043  53.095  1.00  0.00    -0.351 OA
BRANCH  21  22
HETATM   22  C   UNL     1       7.003  25.762  53.262  1.00  0.00     0.068 A 
HETATM   23  C   UNL     1       7.523  24.933  52.274  1.00  0.00     0.037 A 
HETATM   24  C   UNL     1       7.920  23.623  52.586  1.00  0.00     0.011 A 
HETATM   25  C   UNL     1       7.810  23.111  53.889  1.00  0.00    -0.050 A 
HETATM   26  C   UNL     1       7.290  23.973  54.872  1.00  0.00     0.011 A 
HETATM   27  C   UNL     1       6.893  25.275  54.561  1.00  0.00     0.037 A 
BRANCH  25  28
HETATM   28  C   UNL     1       8.228  21.679  54.262  1.00  0.00    -0.024 C 
HETATM   29  C   UNL     1       9.732  21.530  54.577  1.00  0.00     0.019 C 
HETATM   30  C   UNL     1       7.449  21.224  55.515  1.00  0.00     0.019 C 
HETATM   31  C   UNL     1       7.911  20.722  53.092  1.00  0.00     0.019 C 
ENDBRANCH  25  28
ENDBRANCH  21  22
ENDBRANCH  20  21
ENDBRANCH  19  20
ENDBRANCH  18  19
ENDBRANCH   6  18
BRANCH   1  32
HETATM   32  N   UNL     1       1.205  33.108  48.667  1.00  0.00    -0.305 N 
HETATM   33  C   UNL     1       0.421  33.830  49.536  1.00  0.00     0.219 C 
HETATM   34  C   UNL     1       0.635  33.665  51.014  1.00  0.00     0.117 C 
HETATM   35  O   UNL     1      -0.436  34.590  49.085  1.00  0.00    -0.274 OA
HETATM   36  H   UNL     1       0.943  33.227  47.699  1.00  0.00     0.171 HD
ENDBRANCH   1  32
TORSDOF 7
ENDMDL
MODEL 5
REMARK VINA RESULT:      -8.6     12.426     14.927
REMARK  7 active torsions:
REMARK  status: ('A' for Active; 'I' for Inactive)
REMARK       I    between atoms: C_2  and  N_3 
REMARK    1  A    between atoms: N_3  and  C_4 
REMARK    2  A    between atoms: N_9  and  C_10 
REMARK    3  A    between atoms: C_10  and  C_11 
REMARK    4  A    between atoms: C_11  and  C_12 
REMARK    5  A    between atoms: C_12  and  O_13 
REMARK    6  A    between atoms: O_13  and  C_14 
REMARK    7  A    between atoms: C_17  and  C_18 
REMARK       I    between atoms: N_30  and  C_31 
ROOT
HETATM    1  C   UNL     1       0.814  30.048  46.795  1.00  0.00     0.191 C 
HETATM    2  S   UNL     1       2.524  29.976  46.523  1.00  0.00    -0.042 SA
HETATM    3  C   UNL     1       2.762  30.355  48.306  1.00  0.00     0.224 A 
HETATM    4  C   UNL     1       3.193  29.039  49.013  1.00  0.00     0.271 A 
HETATM    5  O   UNL     1       2.498  28.039  49.136  1.00  0.00    -0.269 OA
HETATM    6  N   UNL     1       4.522  29.221  49.442  1.00  0.00    -0.314 N 
HETATM    7  C   UNL     1       4.940  30.545  49.192  1.00  0.00     0.047 A 
HETATM    8  C   UNL     1       3.933  31.261  48.532  1.00  0.00     0.019 A 
HETATM    9  C   UNL     1       6.141  31.142  49.529  1.00  0.00     0.030 A 
HETATM   10  C   UNL     1       6.325  32.487  49.191  1.00  0.00     0.002 A 
HETATM   11  C   UNL     1       5.317  33.207  48.531  1.00  0.00     0.001 A 
HETATM   12  C   UNL     1       4.107  32.596  48.195  1.00  0.00     0.013 A 
HETATM   13  N   UNL     1       1.445  30.786  48.764  1.00  0.00    -0.201 N 
HETATM   14  C   UNL     1       1.222  31.194  50.068  1.00  0.00     0.238 C 
HETATM   15  C   UNL     1      -0.212  31.506  50.417  1.00  0.00     0.119 C 
HETATM   16  O   UNL     1       2.114  31.292  50.911  1.00  0.00    -0.272 OA
HETATM   17  N   UNL     1       0.382  30.506  47.921  1.00  0.00    -0.141 NA
ENDROOT
BRANCH   6  18
HETATM   18  C   UNL     1       5.330  28.279  50.205  1.00  0.00     0.134 C 
BRANCH  18  19
HETATM   19  C   UNL     1       4.884  28.036  51.643  1.00  0.00     0.047 C 
BRANCH  19  20
HETATM   20  C   UNL     1       4.980  26.567  52.039  1.00  0.00     0.177 C 
BRANCH  20  21
HETATM   21  O   UNL     1       5.594  26.525  53.326  1.00  0.00    -0.351 OA
BRANCH  21  22
HETATM   22  C   UNL     1       6.197  25.363  53.707  1.00  0.00     0.068 A 
HETATM   23  C   UNL     1       6.444  24.952  55.012  1.00  0.00     0.037 A 
HETATM   24  C   UNL     1       7.091  23.730  55.259  1.00  0.00     0.011 A 
HETATM   25  C   UNL     1       7.505  22.892  54.211  1.00  0.00    -0.050 A 
HETATM   26  C   UNL     1       7.235  23.326  52.900  1.00  0.00     0.011 A 
HETATM   27  C   UNL     1       6.594  24.542  52.655  1.00  0.00     0.037 A 
BRANCH  25  28
HETATM   28  C   UNL     1       8.223  21.552  54.447  1.00  0.00    -0.024 C 
HETATM   29  C   UNL     1       7.611  20.708  55.585  1.00  0.00     0.019 C 
HETATM   30  C   UNL     1       8.163  20.702  53.160  1.00  0.00     0.019 C 
HETATM   31  C   UNL     1       9.701  21.811  54.816  1.00  0.00     0.019 C 
ENDBRANCH  25  28
ENDBRANCH  21  22
ENDBRANCH  20  21
ENDBRANCH  19  20
ENDBRANCH  18  19
ENDBRANCH   6  18
BRANCH   1  32
HETATM   32  N   UNL     1       0.066  29.606  45.743  1.00  0.00    -0.305 N 
HETATM   33  C   UNL     1      -0.331  28.335  45.399  1.00  0.00     0.219 C 
HETATM   34  C   UNL     1       0.155  27.175  46.223  1.00  0.00     0.117 C 
HETATM   35  O   UNL     1      -1.070  28.176  44.427  1.00  0.00    -0.274 OA
HETATM   36  H   UNL     1      -0.247  30.312  45.093  1.00  0.00     0.171 HD
ENDBRANCH   1  32
TORSDOF 7
ENDMDL
MODEL 6
REMARK VINA RESULT:      -8.4      7.677     10.788
REMARK  7 active torsions:
REMARK  status: ('A' for Active; 'I' for Inactive)
REMARK       I    between atoms: C_2  and  N_3 
REMARK    1  A    between atoms: N_3  and  C_4 
REMARK    2  A    between atoms: N_9  and  C_10 
REMARK    3  A    between atoms: C_10  and  C_11 
REMARK    4  A    between atoms: C_11  and  C_12 
REMARK    5  A    between atoms: C_12  and  O_13 
REMARK    6  A    between atoms: O_13  and  C_14 
REMARK    7  A    between atoms: C_17  and  C_18 
REMARK       I    between atoms: N_30  and  C_31 
ROOT
HETATM    1  C   UNL     1       9.272  28.702  56.581  1.00  0.00     0.191 C 
HETATM    2  S   UNL     1       8.556  29.114  55.058  1.00  0.00    -0.042 SA
HETATM    3  C   UNL     1       7.289  27.819  55.372  1.00  0.00     0.224 A 
HETATM    4  C   UNL     1       5.969  28.539  55.767  1.00  0.00     0.271 A 
HETATM    5  O   UNL     1       5.798  29.203  56.781  1.00  0.00    -0.269 OA
HETATM    6  N   UNL     1       5.047  28.301  54.730  1.00  0.00    -0.314 N 
HETATM    7  C   UNL     1       5.596  27.413  53.782  1.00  0.00     0.047 A 
HETATM    8  C   UNL     1       6.916  27.087  54.120  1.00  0.00     0.019 A 
HETATM    9  C   UNL     1       4.989  26.874  52.661  1.00  0.00     0.030 A 
HETATM   10  C   UNL     1       5.733  25.992  51.870  1.00  0.00     0.002 A 
HETATM   11  C   UNL     1       7.056  25.663  52.208  1.00  0.00     0.001 A 
HETATM   12  C   UNL     1       7.660  26.212  53.341  1.00  0.00     0.013 A 
HETATM   13  N   UNL     1       7.823  27.055  56.496  1.00  0.00    -0.201 N 
HETATM   14  C   UNL     1       7.159  25.955  57.013  1.00  0.00     0.238 C 
HETATM   15  C   UNL     1       7.782  25.338  58.241  1.00  0.00     0.119 C 
HETATM   16  O   UNL     1       6.122  25.500  56.531  1.00  0.00    -0.272 OA
HETATM   17  N   UNL     1       8.869  27.639  57.191  1.00  0.00    -0.141 NA
ENDROOT
BRANCH   6  18
HETATM   18  C   UNL     1       3.655  28.728  54.684  1.00  0.00     0.134 C 
BRANCH  18  19
HETATM   19  C   UNL     1       3.423  30.236  54.691  1.00  0.00     0.047 C 
BRANCH  19  20
HETATM   20  C   UNL     1       4.354  30.968  53.730  1.00  0.00     0.177 C 
BRANCH  20  21
HETATM   21  O   UNL     1       3.622  31.177  52.524  1.00  0.00    -0.351 OA
BRANCH  21  22
HETATM   22  C   UNL     1       3.827  30.305  51.496  1.00  0.00     0.068 A 
HETATM   23  C   UNL     1       5.041  30.034  50.874  1.00  0.00     0.037 A 
HETATM   24  C   UNL     1       5.103  29.119  49.811  1.00  0.00     0.011 A 
HETATM   25  C   UNL     1       3.957  28.453  49.345  1.00  0.00    -0.050 A 
HETATM   26  C   UNL     1       2.743  28.738  49.997  1.00  0.00     0.011 A 
HETATM   27  C   UNL     1       2.682  29.650  51.053  1.00  0.00     0.037 A 
BRANCH  25  28
HETATM   28  C   UNL     1       3.990  27.452  48.178  1.00  0.00    -0.024 C 
HETATM   29  C   UNL     1       3.878  25.976  48.619  1.00  0.00     0.019 C 
HETATM   30  C   UNL     1       2.812  27.737  47.221  1.00  0.00     0.019 C 
HETATM   31  C   UNL     1       5.319  27.596  47.404  1.00  0.00     0.019 C 
ENDBRANCH  25  28
ENDBRANCH  21  22
ENDBRANCH  20  21
ENDBRANCH  19  20
ENDBRANCH  18  19
ENDBRANCH   6  18
BRANCH   1  32
HETATM   32  N   UNL     1      10.237  29.574  56.993  1.00  0.00    -0.305 N 
HETATM   33  C   UNL     1      10.173  30.628  57.874  1.00  0.00     0.219 C 
HETATM   34  C   UNL     1       8.844  30.995  58.472  1.00  0.00     0.117 C 
HETATM   35  O   UNL     1      11.202  31.246  58.150  1.00  0.00    -0.274 OA
HETATM   36  H   UNL     1      11.153  29.446  56.588  1.00  0.00     0.171 HD
ENDBRANCH   1  32
TORSDOF 7
ENDMDL
MODEL 7
REMARK VINA RESULT:      -8.4     11.307     14.260
REMARK  7 active torsions:
REMARK  status: ('A' for Active; 'I' for Inactive)
REMARK       I    between atoms: C_2  and  N_3 
REMARK    1  A    between atoms: N_3  and  C_4 
REMARK    2  A    between atoms: N_9  and  C_10 
REMARK    3  A    between atoms: C_10  and  C_11 
REMARK    4  A    between atoms: C_11  and  C_12 
REMARK    5  A    between atoms: C_12  and  O_13 
REMARK    6  A    between atoms: O_13  and  C_14 
REMARK    7  A    between atoms: C_17  and  C_18 
REMARK       I    between atoms: N_30  and  C_31 
ROOT
HETATM    1  C   UNL     1       3.044  32.607  49.665  1.00  0.00     0.191 C 
HETATM    2  S   UNL     1       2.267  31.146  50.181  1.00  0.00    -0.042 SA
HETATM    3  C   UNL     1       3.228  30.253  48.893  1.00  0.00     0.224 A 
HETATM    4  C   UNL     1       4.359  29.466  49.613  1.00  0.00     0.271 A 
HETATM    5  O   UNL     1       5.298  29.967  50.218  1.00  0.00    -0.269 OA
HETATM    6  N   UNL     1       4.071  28.097  49.455  1.00  0.00    -0.314 N 
HETATM    7  C   UNL     1       2.951  27.927  48.615  1.00  0.00     0.047 A 
HETATM    8  C   UNL     1       2.421  29.170  48.245  1.00  0.00     0.019 A 
HETATM    9  C   UNL     1       2.396  26.746  48.156  1.00  0.00     0.030 A 
HETATM   10  C   UNL     1       1.285  26.827  47.309  1.00  0.00     0.002 A 
HETATM   11  C   UNL     1       0.754  28.071  46.936  1.00  0.00     0.001 A 
HETATM   12  C   UNL     1       1.320  29.258  47.404  1.00  0.00     0.013 A 
HETATM   13  N   UNL     1       3.781  31.311  48.054  1.00  0.00    -0.201 N 
HETATM   14  C   UNL     1       4.551  31.031  46.937  1.00  0.00     0.238 C 
HETATM   15  C   UNL     1       5.140  32.230  46.236  1.00  0.00     0.119 C 
HETATM   16  O   UNL     1       4.768  29.889  46.532  1.00  0.00    -0.272 OA
HETATM   17  N   UNL     1       3.734  32.593  48.575  1.00  0.00    -0.141 NA
ENDROOT
BRANCH   6  18
HETATM   18  C   UNL     1       4.882  26.975  49.910  1.00  0.00     0.134 C 
BRANCH  18  19
HETATM   19  C   UNL     1       4.776  26.640  51.395  1.00  0.00     0.047 C 
BRANCH  19  20
HETATM   20  C   UNL     1       6.132  26.667  52.092  1.00  0.00     0.177 C 
BRANCH  20  21
HETATM   21  O   UNL     1       5.909  26.272  53.445  1.00  0.00    -0.351 OA
BRANCH  21  22
HETATM   22  C   UNL     1       6.446  25.089  53.860  1.00  0.00     0.068 A 
HETATM   23  C   UNL     1       6.580  24.662  55.176  1.00  0.00     0.037 A 
HETATM   24  C   UNL     1       7.170  23.419  55.460  1.00  0.00     0.011 A 
HETATM   25  C   UNL     1       7.637  22.575  54.438  1.00  0.00    -0.050 A 
HETATM   26  C   UNL     1       7.481  23.027  53.115  1.00  0.00     0.011 A 
HETATM   27  C   UNL     1       6.897  24.264  52.833  1.00  0.00     0.037 A 
BRANCH  25  28
HETATM   28  C   UNL     1       8.294  21.213  54.716  1.00  0.00    -0.024 C 
HETATM   29  C   UNL     1       8.405  20.309  53.469  1.00  0.00     0.019 C 
HETATM   30  C   UNL     1       9.724  21.431  55.255  1.00  0.00     0.019 C 
HETATM   31  C   UNL     1       7.467  20.439  55.767  1.00  0.00     0.019 C 
ENDBRANCH  25  28
ENDBRANCH  21  22
ENDBRANCH  20  21
ENDBRANCH  19  20
ENDBRANCH  18  19
ENDBRANCH   6  18
BRANCH   1  32
HETATM   32  N   UNL     1       2.829  33.670  50.492  1.00  0.00    -0.305 N 
HETATM   33  C   UNL     1       3.681  34.317  51.357  1.00  0.00     0.219 C 
HETATM   34  C   UNL     1       5.076  33.786  51.536  1.00  0.00     0.117 C 
HETATM   35  O   UNL     1       3.283  35.312  51.964  1.00  0.00    -0.274 OA
HETATM   36  H   UNL     1       1.895  34.053  50.491  1.00  0.00     0.171 HD
ENDBRANCH   1  32
TORSDOF 7
ENDMDL
MODEL 8
REMARK VINA RESULT:      -8.0     10.117     13.523
REMARK  7 active torsions:
REMARK  status: ('A' for Active; 'I' for Inactive)
REMARK       I    between atoms: C_2  and  N_3 
REMARK    1  A    between atoms: N_3  and  C_4 
REMARK    2  A    between atoms: N_9  and  C_10 
REMARK    3  A    between atoms: C_10  and  C_11 
REMARK    4  A    between atoms: C_11  and  C_12 
REMARK    5  A    between atoms: C_12  and  O_13 
REMARK    6  A    between atoms: O_13  and  C_14 
REMARK    7  A    between atoms: C_17  and  C_18 
REMARK       I    between atoms: N_30  and  C_31 
ROOT
HETATM    1  C   UNL     1       2.086  31.758  49.183  1.00  0.00     0.191 C 
HETATM    2  S   UNL     1       1.843  30.349  50.162  1.00  0.00    -0.042 SA
HETATM    3  C   UNL     1       3.666  30.272  50.394  1.00  0.00     0.224 A 
HETATM    4  C   UNL     1       3.977  30.767  51.836  1.00  0.00     0.271 A 
HETATM    5  O   UNL     1       3.794  31.903  52.252  1.00  0.00    -0.269 OA
HETATM    6  N   UNL     1       4.470  29.659  52.551  1.00  0.00    -0.314 N 
HETATM    7  C   UNL     1       4.619  28.549  51.693  1.00  0.00     0.047 A 
HETATM    8  C   UNL     1       4.168  28.862  50.403  1.00  0.00     0.019 A 
HETATM    9  C   UNL     1       5.140  27.302  51.987  1.00  0.00     0.030 A 
HETATM   10  C   UNL     1       5.204  26.356  50.959  1.00  0.00     0.002 A 
HETATM   11  C   UNL     1       4.754  26.668  49.665  1.00  0.00     0.001 A 
HETATM   12  C   UNL     1       4.230  27.929  49.377  1.00  0.00     0.013 A 
HETATM   13  N   UNL     1       4.198  31.199  49.400  1.00  0.00    -0.201 N 
HETATM   14  C   UNL     1       5.559  31.396  49.238  1.00  0.00     0.238 C 
HETATM   15  C   UNL     1       5.948  32.463  48.245  1.00  0.00     0.119 C 
HETATM   16  O   UNL     1       6.414  30.766  49.860  1.00  0.00    -0.272 OA
HETATM   17  N   UNL     1       3.285  32.067  48.822  1.00  0.00    -0.141 NA
ENDROOT
BRANCH   6  18
HETATM   18  C   UNL     1       4.951  29.651  53.926  1.00  0.00     0.134 C 
BRANCH  18  19
HETATM   19  C   UNL     1       4.387  28.549  54.819  1.00  0.00     0.047 C 
BRANCH  19  20
HETATM   20  C   UNL     1       5.473  27.850  55.630  1.00  0.00     0.177 C 
BRANCH  20  21
HETATM   21  O   UNL     1       4.958  26.570  55.994  1.00  0.00    -0.351 OA
BRANCH  21  22
HETATM   22  C   UNL     1       5.746  25.480  55.775  1.00  0.00     0.068 A 
HETATM   23  C   UNL     1       6.557  24.848  56.711  1.00  0.00     0.037 A 
HETATM   24  C   UNL     1       7.333  23.737  56.340  1.00  0.00     0.011 A 
HETATM   25  C   UNL     1       7.316  23.232  55.029  1.00  0.00    -0.050 A 
HETATM   26  C   UNL     1       6.480  23.883  54.104  1.00  0.00     0.011 A 
HETATM   27  C   UNL     1       5.711  24.989  54.472  1.00  0.00     0.037 A 
BRANCH  25  28
HETATM   28  C   UNL     1       8.159  22.023  54.589  1.00  0.00    -0.024 C 
HETATM   29  C   UNL     1       8.009  21.670  53.093  1.00  0.00     0.019 C 
HETATM   30  C   UNL     1       9.652  22.315  54.846  1.00  0.00     0.019 C 
HETATM   31  C   UNL     1       7.739  20.774  55.396  1.00  0.00     0.019 C 
ENDBRANCH  25  28
ENDBRANCH  21  22
ENDBRANCH  20  21
ENDBRANCH  19  20
ENDBRANCH  18  19
ENDBRANCH   6  18
BRANCH   1  32
HETATM   32  N   UNL     1       0.934  32.419  48.869  1.00  0.00    -0.305 N 
HETATM   33  C   UNL     1       0.055  32.238  47.827  1.00  0.00     0.219 C 
HETATM   34  C   UNL     1       0.377  31.214  46.774  1.00  0.00     0.117 C 
HETATM   35  O   UNL     1      -0.970  32.918  47.778  1.00  0.00    -0.274 OA
HETATM   36  H   UNL     1       0.674  33.175  49.485  1.00  0.00     0.171 HD
ENDBRANCH   1  32
TORSDOF 7
ENDMDL
MODEL 9
REMARK VINA RESULT:      -7.9      8.520     12.178
REMARK  7 active torsions:
REMARK  status: ('A' for Active; 'I' for Inactive)
REMARK       I    between atoms: C_2  and  N_3 
REMARK    1  A    between atoms: N_3  and  C_4 
REMARK    2  A    between atoms: N_9  and  C_10 
REMARK    3  A    between atoms: C_10  and  C_11 
REMARK    4  A    between atoms: C_11  and  C_12 
REMARK    5  A    between atoms: C_12  and  O_13 
REMARK    6  A    between atoms: O_13  and  C_14 
REMARK    7  A    between atoms: C_17  and  C_18 
REMARK       I    between atoms: N_30  and  C_31 
ROOT
HETATM    1  C   UNL     1       7.452  25.446  56.958  1.00  0.00     0.191 C 
HETATM    2  S   UNL     1       5.897  25.701  56.238  1.00  0.00    -0.042 SA
HETATM    3  C   UNL     1       6.497  27.342  55.667  1.00  0.00     0.224 A 
HETATM    4  C   UNL     1       6.775  27.236  54.141  1.00  0.00     0.271 A 
HETATM    5  O   UNL     1       7.640  26.542  53.623  1.00  0.00    -0.269 OA
HETATM    6  N   UNL     1       5.831  28.058  53.495  1.00  0.00    -0.314 N 
HETATM    7  C   UNL     1       5.065  28.764  54.446  1.00  0.00     0.047 A 
HETATM    8  C   UNL     1       5.426  28.387  55.746  1.00  0.00     0.019 A 
HETATM    9  C   UNL     1       4.092  29.721  54.221  1.00  0.00     0.030 A 
HETATM   10  C   UNL     1       3.474  30.303  55.333  1.00  0.00     0.002 A 
HETATM   11  C   UNL     1       3.835  29.928  56.637  1.00  0.00     0.001 A 
HETATM   12  C   UNL     1       4.819  28.961  56.853  1.00  0.00     0.013 A 
HETATM   13  N   UNL     1       7.736  27.553  56.409  1.00  0.00    -0.201 N 
HETATM   14  C   UNL     1       8.480  28.713  56.276  1.00  0.00     0.238 C 
HETATM   15  C   UNL     1       9.789  28.737  57.025  1.00  0.00     0.119 C 
HETATM   16  O   UNL     1       8.127  29.670  55.587  1.00  0.00    -0.272 OA
HETATM   17  N   UNL     1       8.272  26.439  57.035  1.00  0.00    -0.141 NA
ENDROOT
BRANCH   6  18
HETATM   18  C   UNL     1       5.738  28.324  52.065  1.00  0.00     0.134 C 
BRANCH  18  19
HETATM   19  C   UNL     1       5.309  27.144  51.199  1.00  0.00     0.047 C 
BRANCH  19  20
HETATM   20  C   UNL     1       4.987  27.564  49.768  1.00  0.00     0.177 C 
BRANCH  20  21
HETATM   21  O   UNL     1       3.688  27.054  49.470  1.00  0.00    -0.351 OA
BRANCH  21  22
HETATM   22  C   UNL     1       2.833  27.857  48.775  1.00  0.00     0.068 A 
HETATM   23  C   UNL     1       2.682  29.230  48.931  1.00  0.00     0.037 A 
HETATM   24  C   UNL     1       1.746  29.932  48.153  1.00  0.00     0.011 A 
HETATM   25  C   UNL     1       0.942  29.280  47.203  1.00  0.00    -0.050 A 
HETATM   26  C   UNL     1       1.122  27.893  47.058  1.00  0.00     0.011 A 
HETATM   27  C   UNL     1       2.051  27.195  47.833  1.00  0.00     0.037 A 
BRANCH  25  28
HETATM   28  C   UNL     1      -0.097  30.018  46.342  1.00  0.00    -0.024 C 
HETATM   29  C   UNL     1       0.520  31.012  45.334  1.00  0.00     0.019 C 
HETATM   30  C   UNL     1      -0.916  28.991  45.531  1.00  0.00     0.019 C 
HETATM   31  C   UNL     1      -1.050  30.824  47.251  1.00  0.00     0.019 C 
ENDBRANCH  25  28
ENDBRANCH  21  22
ENDBRANCH  20  21
ENDBRANCH  19  20
ENDBRANCH  18  19
ENDBRANCH   6  18
BRANCH   1  32
HETATM   32  N   UNL     1       7.656  24.172  57.401  1.00  0.00    -0.305 N 
HETATM   33  C   UNL     1       8.222  23.087  56.774  1.00  0.00     0.219 C 
HETATM   34  C   UNL     1       8.648  23.219  55.338  1.00  0.00     0.117 C 
HETATM   35  O   UNL     1       8.364  22.036  57.399  1.00  0.00    -0.274 OA
HETATM   36  H   UNL     1       7.336  23.971  58.337  1.00  0.00     0.171 HD
ENDBRANCH   1  32
TORSDOF 7
ENDMDL
MODEL 10
REMARK VINA RESULT:      -7.7     10.460     13.647
REMARK  7 active torsions:
REMARK  status: ('A' for Active; 'I' for Inactive)
REMARK       I    between atoms: C_2  and  N_3 
REMARK    1  A    between atoms: N_3  and  C_4 
REMARK    2  A    between atoms: N_9  and  C_10 
REMARK    3  A    between atoms: C_10  and  C_11 
REMARK    4  A    between atoms: C_11  and  C_12 
REMARK    5  A    between atoms: C_12  and  O_13 
REMARK    6  A    between atoms: O_13  and  C_14 
REMARK    7  A    between atoms: C_17  and  C_18 
REMARK       I    between atoms: N_30  and  C_31 
ROOT
HETATM    1  C   UNL     1       5.073  33.070  48.438  1.00  0.00     0.191 C 
HETATM    2  S   UNL     1       5.834  32.281  49.780  1.00  0.00    -0.042 SA
HETATM    3  C   UNL     1       4.196  31.561  50.206  1.00  0.00     0.224 A 
HETATM    4  C   UNL     1       4.219  30.064  49.790  1.00  0.00     0.271 A 
HETATM    5  O   UNL     1       4.301  29.647  48.641  1.00  0.00    -0.269 OA
HETATM    6  N   UNL     1       4.157  29.307  50.976  1.00  0.00    -0.314 N 
HETATM    7  C   UNL     1       3.977  30.156  52.088  1.00  0.00     0.047 A 
HETATM    8  C   UNL     1       3.982  31.499  51.687  1.00  0.00     0.019 A 
HETATM    9  C   UNL     1       3.797  29.804  53.414  1.00  0.00     0.030 A 
HETATM   10  C   UNL     1       3.619  30.830  54.348  1.00  0.00     0.002 A 
HETATM   11  C   UNL     1       3.622  32.176  53.948  1.00  0.00     0.001 A 
HETATM   12  C   UNL     1       3.805  32.522  52.608  1.00  0.00     0.013 A 
HETATM   13  N   UNL     1       3.247  32.315  49.393  1.00  0.00    -0.201 N 
HETATM   14  C   UNL     1       1.883  32.084  49.459  1.00  0.00     0.238 C 
HETATM   15  C   UNL     1       1.042  32.866  48.481  1.00  0.00     0.119 C 
HETATM   16  O   UNL     1       1.367  31.289  50.245  1.00  0.00    -0.272 OA
HETATM   17  N   UNL     1       3.786  33.068  48.363  1.00  0.00    -0.141 NA
ENDROOT
BRANCH   6  18
HETATM   18  C   UNL     1       4.093  27.856  51.084  1.00  0.00     0.134 C 
BRANCH  18  19
HETATM   19  C   UNL     1       5.426  27.123  50.972  1.00  0.00     0.047 C 
BRANCH  19  20
HETATM   20  C   UNL     1       6.210  27.146  52.280  1.00  0.00     0.177 C 
BRANCH  20  21
HETATM   21  O   UNL     1       5.507  26.310  53.198  1.00  0.00    -0.351 OA
BRANCH  21  22
HETATM   22  C   UNL     1       6.133  25.184  53.642  1.00  0.00     0.068 A 
HETATM   23  C   UNL     1       6.272  24.786  54.967  1.00  0.00     0.037 A 
HETATM   24  C   UNL     1       6.959  23.603  55.283  1.00  0.00     0.011 A 
HETATM   25  C   UNL     1       7.520  22.789  54.285  1.00  0.00    -0.050 A 
HETATM   26  C   UNL     1       7.357  23.208  52.952  1.00  0.00     0.011 A 
HETATM   27  C   UNL     1       6.676  24.387  52.639  1.00  0.00     0.037 A 
BRANCH  25  28
HETATM   28  C   UNL     1       8.285  21.492  54.598  1.00  0.00    -0.024 C 
HETATM   29  C   UNL     1       8.406  20.534  53.393  1.00  0.00     0.019 C 
HETATM   30  C   UNL     1       9.718  21.837  55.058  1.00  0.00     0.019 C 
HETATM   31  C   UNL     1       7.562  20.719  55.723  1.00  0.00     0.019 C 
ENDBRANCH  25  28
ENDBRANCH  21  22
ENDBRANCH  20  21
ENDBRANCH  19  20
ENDBRANCH  18  19
ENDBRANCH   6  18
BRANCH   1  32
HETATM   32  N   UNL     1       5.950  33.649  47.567  1.00  0.00    -0.305 N 
HETATM   33  C   UNL     1       6.185  33.397  46.236  1.00  0.00     0.219 C 
HETATM   34  C   UNL     1       5.451  32.267  45.570  1.00  0.00     0.117 C 
HETATM   35  O   UNL     1       6.989  34.099  45.622  1.00  0.00    -0.274 OA
HETATM   36  H   UNL     1       6.537  34.377  47.946  1.00  0.00     0.171 HD
ENDBRANCH   1  32
TORSDOF 7
ENDMDL
