MODEL 1
REMARK VINA RESULT:      -8.9      0.000      0.000
REMARK  8 active torsions:
REMARK  status: ('A' for Active; 'I' for Inactive)
REMARK    1  A    between atoms: C_5  and  C_6 
REMARK       I    between atoms: C_6  and  N_7 
REMARK    2  A    between atoms: N_7  and  N_8 
REMARK       I    between atoms: N_8  and  C_9 
REMARK    3  A    between atoms: C_9  and  C_10 
REMARK    4  A    between atoms: C_10  and  C_11 
REMARK    5  A    between atoms: C_11  and  N_12 
REMARK    6  A    between atoms: N_12  and  C_13 
REMARK    7  A    between atoms: C_14  and  N_15 
REMARK    8  A    between atoms: C_19  and  C_20 
ROOT
HETATM    1  C   UNL     1       6.343  27.499  53.855  1.00  0.00     0.102 C 
ENDROOT
BRANCH   1   2
HETATM    2  C   UNL     1       5.358  27.631  55.009  1.00  0.00     0.119 C 
BRANCH   2   3
HETATM    3  C   UNL     1       5.847  28.717  55.929  1.00  0.00     0.237 C 
HETATM    4  N   UNL     1       6.454  28.260  57.078  1.00  0.00    -0.267 N 
HETATM    5  H   UNL     1       6.688  27.286  57.263  1.00  0.00     0.190 HD
HETATM    6  O   UNL     1       5.654  29.911  55.708  1.00  0.00    -0.272 OA
BRANCH   4   7
HETATM    7  N   UNL     1       6.899  29.201  58.009  1.00  0.00    -0.262 N 
HETATM    8  C   UNL     1       8.252  29.421  58.149  1.00  0.00     0.286 C 
HETATM    9  O   UNL     1       9.077  28.827  57.454  1.00  0.00    -0.264 OA
HETATM   10  H   UNL     1       6.189  29.683  58.554  1.00  0.00     0.190 HD
BRANCH   8  11
HETATM   11  C   UNL     1       8.627  30.387  59.156  1.00  0.00     0.102 A 
HETATM   12  N   UNL     1       8.219  30.252  60.468  1.00  0.00    -0.361 N 
HETATM   13  C   UNL     1       8.695  31.288  61.223  1.00  0.00     0.088 A 
HETATM   14  H   UNL     1       7.646  29.485  60.802  1.00  0.00     0.165 HD
HETATM   15  C   UNL     1       9.422  32.112  60.398  1.00  0.00     0.019 A 
HETATM   16  C   UNL     1       9.383  31.548  59.099  1.00  0.00     0.036 A 
ENDBRANCH   8  11
ENDBRANCH   4   7
ENDBRANCH   2   3
ENDBRANCH   1   2
BRANCH   1  17
HETATM   17  N   UNL     1       7.526  26.754  54.286  1.00  0.00    -0.290 NA
HETATM   18  H   UNL     1       7.876  27.067  55.200  1.00  0.00     0.127 HD
BRANCH  17  19
HETATM   19  C   UNL     1       7.547  25.351  54.190  1.00  0.00     0.041 A 
HETATM   20  C   UNL     1       7.513  24.514  55.332  1.00  0.00     0.124 A 
HETATM   21  C   UNL     1       7.629  23.112  55.239  1.00  0.00     0.054 A 
HETATM   22  C   UNL     1       7.810  22.498  53.995  1.00  0.00     0.050 A 
HETATM   23  C   UNL     1       7.881  23.312  52.859  1.00  0.00     0.018 A 
HETATM   24  C   UNL     1       7.766  24.707  52.961  1.00  0.00     0.027 A 
BRANCH  20  25
HETATM   25  N   UNL     1       7.329  25.081  56.672  1.00  0.00    -0.114 N 
HETATM   26  O   UNL     1       8.301  25.641  57.205  1.00  0.00    -0.532 OA
HETATM   27  O   UNL     1       6.202  24.992  57.180  1.00  0.00    -0.532 OA
ENDBRANCH  20  25
BRANCH  22  28
HETATM   28  C   UNL     1       7.935  20.999  53.861  1.00  0.00     0.417 C 
HETATM   29  F   UNL     1       9.216  20.576  53.689  1.00  0.00    -0.166 F 
HETATM   30  F   UNL     1       7.467  20.344  54.959  1.00  0.00    -0.166 F 
HETATM   31  F   UNL     1       7.231  20.511  52.803  1.00  0.00    -0.166 F 
ENDBRANCH  22  28
ENDBRANCH  17  19
ENDBRANCH   1  17
TORSDOF 8
ENDMDL
MODEL 2
REMARK VINA RESULT:      -8.5      9.064     12.604
REMARK  8 active torsions:
REMARK  status: ('A' for Active; 'I' for Inactive)
REMARK    1  A    between atoms: C_5  and  C_6 
REMARK       I    between atoms: C_6  and  N_7 
REMARK    2  A    between atoms: N_7  and  N_8 
REMARK       I    between atoms: N_8  and  C_9 
REMARK    3  A    between atoms: C_9  and  C_10 
REMARK    4  A    between atoms: C_10  and  C_11 
REMARK    5  A    between atoms: C_11  and  N_12 
REMARK    6  A    between atoms: N_12  and  C_13 
REMARK    7  A    between atoms: C_14  and  N_15 
REMARK    8  A    between atoms: C_19  and  C_20 
ROOT
HETATM    1  C   UNL     1       4.818  35.517  65.179  1.00  0.00     0.102 C 
ENDROOT
BRANCH   1   2
HETATM    2  C   UNL     1       4.287  35.849  66.567  1.00  0.00     0.119 C 
BRANCH   2   3
HETATM    3  C   UNL     1       4.716  34.759  67.512  1.00  0.00     0.237 C 
HETATM    4  N   UNL     1       6.040  34.819  67.888  1.00  0.00    -0.267 N 
HETATM    5  H   UNL     1       6.670  35.591  67.673  1.00  0.00     0.190 HD
HETATM    6  O   UNL     1       3.967  33.849  67.860  1.00  0.00    -0.272 OA
BRANCH   4   7
HETATM    7  N   UNL     1       6.533  33.820  68.730  1.00  0.00    -0.262 N 
HETATM    8  C   UNL     1       6.294  33.904  70.085  1.00  0.00     0.286 C 
HETATM    9  O   UNL     1       5.634  34.824  70.567  1.00  0.00    -0.264 OA
HETATM   10  H   UNL     1       7.062  33.069  68.295  1.00  0.00     0.190 HD
BRANCH   8  11
HETATM   11  C   UNL     1       6.868  32.847  70.887  1.00  0.00     0.102 A 
HETATM   12  N   UNL     1       6.532  31.524  70.679  1.00  0.00    -0.361 N 
HETATM   13  C   UNL     1       7.198  30.720  71.562  1.00  0.00     0.088 A 
HETATM   14  H   UNL     1       5.879  31.216  69.968  1.00  0.00     0.165 HD
HETATM   15  C   UNL     1       7.979  31.523  72.358  1.00  0.00     0.019 A 
HETATM   16  C   UNL     1       7.775  32.860  71.936  1.00  0.00     0.036 A 
ENDBRANCH   8  11
ENDBRANCH   4   7
ENDBRANCH   2   3
ENDBRANCH   1   2
BRANCH   1  17
HETATM   17  N   UNL     1       4.785  34.070  64.959  1.00  0.00    -0.290 NA
HETATM   18  H   UNL     1       3.847  33.732  64.710  1.00  0.00     0.127 HD
BRANCH  17  19
HETATM   19  C   UNL     1       5.771  33.457  64.166  1.00  0.00     0.041 A 
HETATM   20  C   UNL     1       5.452  32.698  63.014  1.00  0.00     0.124 A 
HETATM   21  C   UNL     1       6.433  32.007  62.275  1.00  0.00     0.054 A 
HETATM   22  C   UNL     1       7.772  32.030  62.681  1.00  0.00     0.050 A 
HETATM   23  C   UNL     1       8.101  32.746  63.838  1.00  0.00     0.018 A 
HETATM   24  C   UNL     1       7.117  33.431  64.569  1.00  0.00     0.027 A 
BRANCH  20  25
HETATM   25  N   UNL     1       4.072  32.623  62.525  1.00  0.00    -0.114 N 
HETATM   26  O   UNL     1       3.485  33.689  62.275  1.00  0.00    -0.532 OA
HETATM   27  O   UNL     1       3.582  31.496  62.364  1.00  0.00    -0.532 OA
ENDBRANCH  20  25
BRANCH  22  28
HETATM   28  C   UNL     1       8.848  31.303  61.911  1.00  0.00     0.417 C 
HETATM   29  F   UNL     1       8.467  30.946  60.655  1.00  0.00    -0.166 F 
HETATM   30  F   UNL     1       9.972  32.055  61.763  1.00  0.00    -0.166 F 
HETATM   31  F   UNL     1       9.241  30.154  62.525  1.00  0.00    -0.166 F 
ENDBRANCH  22  28
ENDBRANCH  17  19
ENDBRANCH   1  17
TORSDOF 8
ENDMDL
MODEL 3
REMARK VINA RESULT:      -8.4      4.098      7.208
REMARK  8 active torsions:
REMARK  status: ('A' for Active; 'I' for Inactive)
REMARK    1  A    between atoms: C_5  and  C_6 
REMARK       I    between atoms: C_6  and  N_7 
REMARK    2  A    between atoms: N_7  and  N_8 
REMARK       I    between atoms: N_8  and  C_9 
REMARK    3  A    between atoms: C_9  and  C_10 
REMARK    4  A    between atoms: C_10  and  C_11 
REMARK    5  A    between atoms: C_11  and  N_12 
REMARK    6  A    between atoms: N_12  and  C_13 
REMARK    7  A    between atoms: C_14  and  N_15 
REMARK    8  A    between atoms: C_19  and  C_20 
ROOT
HETATM    1  C   UNL     1       6.024  27.419  55.318  1.00  0.00     0.102 C 
ENDROOT
BRANCH   1   2
HETATM    2  C   UNL     1       5.666  28.587  54.409  1.00  0.00     0.119 C 
BRANCH   2   3
HETATM    3  C   UNL     1       4.639  28.117  53.413  1.00  0.00     0.237 C 
HETATM    4  N   UNL     1       5.144  27.841  52.162  1.00  0.00    -0.267 N 
HETATM    5  H   UNL     1       6.135  27.817  51.927  1.00  0.00     0.190 HD
HETATM    6  O   UNL     1       3.440  28.056  53.676  1.00  0.00    -0.272 OA
BRANCH   4   7
HETATM    7  N   UNL     1       4.252  27.440  51.165  1.00  0.00    -0.262 N 
HETATM    8  C   UNL     1       4.554  27.704  49.846  1.00  0.00     0.286 C 
HETATM    9  O   UNL     1       5.604  28.262  49.525  1.00  0.00    -0.264 OA
HETATM   10  H   UNL     1       3.403  26.969  51.466  1.00  0.00     0.190 HD
BRANCH   8  11
HETATM   11  C   UNL     1       3.563  27.285  48.882  1.00  0.00     0.102 A 
HETATM   12  N   UNL     1       2.227  27.594  49.043  1.00  0.00    -0.361 N 
HETATM   13  C   UNL     1       1.493  27.085  48.008  1.00  0.00     0.088 A 
HETATM   14  H   UNL     1       1.865  28.123  49.828  1.00  0.00     0.165 HD
HETATM   15  C   UNL     1       2.355  26.434  47.159  1.00  0.00     0.019 A 
HETATM   16  C   UNL     1       3.657  26.558  47.704  1.00  0.00     0.036 A 
ENDBRANCH   8  11
ENDBRANCH   4   7
ENDBRANCH   2   3
ENDBRANCH   1   2
BRANCH   1  17
HETATM   17  N   UNL     1       5.473  26.174  54.779  1.00  0.00    -0.290 NA
HETATM   18  H   UNL     1       4.944  26.323  53.911  1.00  0.00     0.127 HD
BRANCH  17  19
HETATM   19  C   UNL     1       6.284  25.029  54.687  1.00  0.00     0.041 A 
HETATM   20  C   UNL     1       6.506  24.355  53.462  1.00  0.00     0.124 A 
HETATM   21  C   UNL     1       7.241  23.154  53.387  1.00  0.00     0.054 A 
HETATM   22  C   UNL     1       7.758  22.569  54.548  1.00  0.00     0.050 A 
HETATM   23  C   UNL     1       7.518  23.202  55.773  1.00  0.00     0.018 A 
HETATM   24  C   UNL     1       6.784  24.396  55.838  1.00  0.00     0.027 A 
BRANCH  20  25
HETATM   25  N   UNL     1       5.995  24.904  52.202  1.00  0.00    -0.114 N 
HETATM   26  O   UNL     1       6.799  25.481  51.450  1.00  0.00    -0.532 OA
HETATM   27  O   UNL     1       4.794  24.734  51.949  1.00  0.00    -0.532 OA
ENDBRANCH  20  25
BRANCH  22  28
HETATM   28  C   UNL     1       8.551  21.285  54.503  1.00  0.00     0.417 C 
HETATM   29  F   UNL     1       9.055  21.003  53.272  1.00  0.00    -0.166 F 
HETATM   30  F   UNL     1       9.618  21.310  55.348  1.00  0.00    -0.166 F 
HETATM   31  F   UNL     1       7.810  20.202  54.864  1.00  0.00    -0.166 F 
ENDBRANCH  22  28
ENDBRANCH  17  19
ENDBRANCH   1  17
TORSDOF 8
ENDMDL
MODEL 4
REMARK VINA RESULT:      -8.1      2.057      2.618
REMARK  8 active torsions:
REMARK  status: ('A' for Active; 'I' for Inactive)
REMARK    1  A    between atoms: C_5  and  C_6 
REMARK       I    between atoms: C_6  and  N_7 
REMARK    2  A    between atoms: N_7  and  N_8 
REMARK       I    between atoms: N_8  and  C_9 
REMARK    3  A    between atoms: C_9  and  C_10 
REMARK    4  A    between atoms: C_10  and  C_11 
REMARK    5  A    between atoms: C_11  and  N_12 
REMARK    6  A    between atoms: N_12  and  C_13 
REMARK    7  A    between atoms: C_14  and  N_15 
REMARK    8  A    between atoms: C_19  and  C_20 
ROOT
HETATM    1  C   UNL     1       7.964  27.133  55.875  1.00  0.00     0.102 C 
ENDROOT
BRANCH   1   2
HETATM    2  C   UNL     1       7.380  28.537  55.794  1.00  0.00     0.119 C 
BRANCH   2   3
HETATM    3  C   UNL     1       6.984  28.968  57.182  1.00  0.00     0.237 C 
HETATM    4  N   UNL     1       7.954  29.674  57.858  1.00  0.00    -0.267 N 
HETATM    5  H   UNL     1       8.823  30.010  57.444  1.00  0.00     0.190 HD
HETATM    6  O   UNL     1       5.913  28.651  57.695  1.00  0.00    -0.272 OA
BRANCH   4   7
HETATM    7  N   UNL     1       7.687  30.075  59.168  1.00  0.00    -0.262 N 
HETATM    8  C   UNL     1       8.190  31.275  59.621  1.00  0.00     0.286 C 
HETATM    9  O   UNL     1       8.848  32.015  58.889  1.00  0.00    -0.264 OA
HETATM   10  H   UNL     1       7.128  29.446  59.739  1.00  0.00     0.190 HD
BRANCH   8  11
HETATM   11  C   UNL     1       7.894  31.598  60.998  1.00  0.00     0.102 A 
HETATM   12  N   UNL     1       6.599  31.584  61.476  1.00  0.00    -0.361 N 
HETATM   13  C   UNL     1       6.577  31.928  62.800  1.00  0.00     0.088 A 
HETATM   14  H   UNL     1       5.793  31.350  60.908  1.00  0.00     0.165 HD
HETATM   15  C   UNL     1       7.871  32.171  63.193  1.00  0.00     0.019 A 
HETATM   16  C   UNL     1       8.701  31.964  62.064  1.00  0.00     0.036 A 
ENDBRANCH   8  11
ENDBRANCH   4   7
ENDBRANCH   2   3
ENDBRANCH   1   2
BRANCH   1  17
HETATM   17  N   UNL     1       6.928  26.140  55.587  1.00  0.00    -0.290 NA
HETATM   18  H   UNL     1       6.138  26.537  55.063  1.00  0.00     0.127 HD
BRANCH  17  19
HETATM   19  C   UNL     1       7.286  24.877  55.083  1.00  0.00     0.041 A 
HETATM   20  C   UNL     1       6.909  24.445  53.788  1.00  0.00     0.124 A 
HETATM   21  C   UNL     1       7.188  23.145  53.319  1.00  0.00     0.054 A 
HETATM   22  C   UNL     1       7.833  22.218  54.146  1.00  0.00     0.050 A 
HETATM   23  C   UNL     1       8.181  22.616  55.442  1.00  0.00     0.018 A 
HETATM   24  C   UNL     1       7.899  23.912  55.900  1.00  0.00     0.027 A 
BRANCH  20  25
HETATM   25  N   UNL     1       6.228  25.356  52.862  1.00  0.00    -0.114 N 
HETATM   26  O   UNL     1       5.104  25.030  52.447  1.00  0.00    -0.532 OA
HETATM   27  O   UNL     1       6.806  26.413  52.572  1.00  0.00    -0.532 OA
ENDBRANCH  20  25
BRANCH  22  28
HETATM   28  C   UNL     1       8.148  20.819  53.675  1.00  0.00     0.417 C 
HETATM   29  F   UNL     1       9.351  20.716  53.048  1.00  0.00    -0.166 F 
HETATM   30  F   UNL     1       8.182  19.926  54.702  1.00  0.00    -0.166 F 
HETATM   31  F   UNL     1       7.224  20.346  52.794  1.00  0.00    -0.166 F 
ENDBRANCH  22  28
ENDBRANCH  17  19
ENDBRANCH   1  17
TORSDOF 8
ENDMDL
MODEL 5
REMARK VINA RESULT:      -8.1      4.071      7.280
REMARK  8 active torsions:
REMARK  status: ('A' for Active; 'I' for Inactive)
REMARK    1  A    between atoms: C_5  and  C_6 
REMARK       I    between atoms: C_6  and  N_7 
REMARK    2  A    between atoms: N_7  and  N_8 
REMARK       I    between atoms: N_8  and  C_9 
REMARK    3  A    between atoms: C_9  and  C_10 
REMARK    4  A    between atoms: C_10  and  C_11 
REMARK    5  A    between atoms: C_11  and  N_12 
REMARK    6  A    between atoms: N_12  and  C_13 
REMARK    7  A    between atoms: C_14  and  N_15 
REMARK    8  A    between atoms: C_19  and  C_20 
ROOT
HETATM    1  C   UNL     1       7.504  26.518  53.393  1.00  0.00     0.102 C 
ENDROOT
BRANCH   1   2
HETATM    2  C   UNL     1       6.593  27.737  53.335  1.00  0.00     0.119 C 
BRANCH   2   3
HETATM    3  C   UNL     1       5.379  27.383  52.518  1.00  0.00     0.237 C 
HETATM    4  N   UNL     1       5.630  27.195  51.177  1.00  0.00    -0.267 N 
HETATM    5  H   UNL     1       6.559  27.159  50.759  1.00  0.00     0.190 HD
HETATM    6  O   UNL     1       4.247  27.340  52.995  1.00  0.00    -0.272 OA
BRANCH   4   7
HETATM    7  N   UNL     1       4.553  26.907  50.337  1.00  0.00    -0.262 N 
HETATM    8  C   UNL     1       4.245  27.778  49.314  1.00  0.00     0.286 C 
HETATM    9  O   UNL     1       4.914  28.790  49.107  1.00  0.00    -0.264 OA
HETATM   10  H   UNL     1       4.032  26.055  50.529  1.00  0.00     0.190 HD
BRANCH   8  11
HETATM   11  C   UNL     1       3.096  27.421  48.514  1.00  0.00     0.102 A 
HETATM   12  N   UNL     1       1.810  27.671  48.950  1.00  0.00    -0.361 N 
HETATM   13  C   UNL     1       0.901  27.240  48.024  1.00  0.00     0.088 A 
HETATM   14  H   UNL     1       1.595  28.113  49.837  1.00  0.00     0.165 HD
HETATM   15  C   UNL     1       1.597  26.700  46.970  1.00  0.00     0.019 A 
HETATM   16  C   UNL     1       2.976  26.812  47.274  1.00  0.00     0.036 A 
ENDBRANCH   8  11
ENDBRANCH   4   7
ENDBRANCH   2   3
ENDBRANCH   1   2
BRANCH   1  17
HETATM   17  N   UNL     1       6.736  25.301  53.123  1.00  0.00    -0.290 NA
HETATM   18  H   UNL     1       6.506  25.195  52.128  1.00  0.00     0.127 HD
BRANCH  17  19
HETATM   19  C   UNL     1       7.140  24.076  53.683  1.00  0.00     0.041 A 
HETATM   20  C   UNL     1       7.105  23.833  55.077  1.00  0.00     0.124 A 
HETATM   21  C   UNL     1       7.598  22.640  55.644  1.00  0.00     0.054 A 
HETATM   22  C   UNL     1       8.172  21.655  54.831  1.00  0.00     0.050 A 
HETATM   23  C   UNL     1       8.247  21.894  53.455  1.00  0.00     0.018 A 
HETATM   24  C   UNL     1       7.754  23.085  52.899  1.00  0.00     0.027 A 
BRANCH  20  25
HETATM   25  N   UNL     1       6.522  24.817  55.995  1.00  0.00    -0.114 N 
HETATM   26  O   UNL     1       5.361  25.200  55.775  1.00  0.00    -0.532 OA
HETATM   27  O   UNL     1       7.215  25.185  56.954  1.00  0.00    -0.532 OA
ENDBRANCH  20  25
BRANCH  22  28
HETATM   28  C   UNL     1       8.707  20.366  55.406  1.00  0.00     0.417 C 
HETATM   29  F   UNL     1       9.861  20.524  56.110  1.00  0.00    -0.166 F 
HETATM   30  F   UNL     1       7.825  19.778  56.260  1.00  0.00    -0.166 F 
HETATM   31  F   UNL     1       8.976  19.440  54.446  1.00  0.00    -0.166 F 
ENDBRANCH  22  28
ENDBRANCH  17  19
ENDBRANCH   1  17
TORSDOF 8
ENDMDL
MODEL 6
REMARK VINA RESULT:      -8.0      7.419     11.398
REMARK  8 active torsions:
REMARK  status: ('A' for Active; 'I' for Inactive)
REMARK    1  A    between atoms: C_5  and  C_6 
REMARK       I    between atoms: C_6  and  N_7 
REMARK    2  A    between atoms: N_7  and  N_8 
REMARK       I    between atoms: N_8  and  C_9 
REMARK    3  A    between atoms: C_9  and  C_10 
REMARK    4  A    between atoms: C_10  and  C_11 
REMARK    5  A    between atoms: C_11  and  N_12 
REMARK    6  A    between atoms: N_12  and  C_13 
REMARK    7  A    between atoms: C_14  and  N_15 
REMARK    8  A    between atoms: C_19  and  C_20 
ROOT
HETATM    1  C   UNL     1       8.878  31.593  62.341  1.00  0.00     0.102 C 
ENDROOT
BRANCH   1   2
HETATM    2  C   UNL     1       9.592  31.614  60.996  1.00  0.00     0.119 C 
BRANCH   2   3
HETATM    3  C   UNL     1       8.557  31.511  59.907  1.00  0.00     0.237 C 
HETATM    4  N   UNL     1       8.067  30.240  59.705  1.00  0.00    -0.267 N 
HETATM    5  H   UNL     1       8.263  29.439  60.305  1.00  0.00     0.190 HD
HETATM    6  O   UNL     1       8.231  32.469  59.208  1.00  0.00    -0.272 OA
BRANCH   4   7
HETATM    7  N   UNL     1       7.134  30.047  58.685  1.00  0.00    -0.262 N 
HETATM    8  C   UNL     1       7.190  28.894  57.931  1.00  0.00     0.286 C 
HETATM    9  O   UNL     1       8.027  28.019  58.153  1.00  0.00    -0.264 OA
HETATM   10  H   UNL     1       6.448  30.784  58.540  1.00  0.00     0.190 HD
BRANCH   8  11
HETATM   11  C   UNL     1       6.208  28.789  56.876  1.00  0.00     0.102 A 
HETATM   12  N   UNL     1       4.880  28.534  57.152  1.00  0.00    -0.361 N 
HETATM   13  C   UNL     1       4.155  28.476  55.994  1.00  0.00     0.088 A 
HETATM   14  H   UNL     1       4.516  28.409  58.090  1.00  0.00     0.165 HD
HETATM   15  C   UNL     1       5.017  28.694  54.946  1.00  0.00     0.019 A 
HETATM   16  C   UNL     1       6.308  28.892  55.497  1.00  0.00     0.036 A 
ENDBRANCH   8  11
ENDBRANCH   4   7
ENDBRANCH   2   3
ENDBRANCH   1   2
BRANCH   1  17
HETATM   17  N   UNL     1       7.512  32.097  62.194  1.00  0.00    -0.290 NA
HETATM   18  H   UNL     1       6.916  31.463  61.646  1.00  0.00     0.127 HD
BRANCH  17  19
HETATM   19  C   UNL     1       6.823  32.597  63.313  1.00  0.00     0.041 A 
HETATM   20  C   UNL     1       5.416  32.755  63.328  1.00  0.00     0.124 A 
HETATM   21  C   UNL     1       4.737  33.343  64.414  1.00  0.00     0.054 A 
HETATM   22  C   UNL     1       5.451  33.822  65.518  1.00  0.00     0.050 A 
HETATM   23  C   UNL     1       6.846  33.708  65.505  1.00  0.00     0.018 A 
HETATM   24  C   UNL     1       7.513  33.121  64.419  1.00  0.00     0.027 A 
BRANCH  20  25
HETATM   25  N   UNL     1       4.597  32.280  62.208  1.00  0.00    -0.114 N 
HETATM   26  O   UNL     1       3.648  31.519  62.463  1.00  0.00    -0.532 OA
HETATM   27  O   UNL     1       4.886  32.689  61.074  1.00  0.00    -0.532 OA
ENDBRANCH  20  25
BRANCH  22  28
HETATM   28  C   UNL     1       4.755  34.456  66.699  1.00  0.00     0.417 C 
HETATM   29  F   UNL     1       4.775  33.684  67.818  1.00  0.00    -0.166 F 
HETATM   30  F   UNL     1       5.320  35.643  67.052  1.00  0.00    -0.166 F 
HETATM   31  F   UNL     1       3.444  34.723  66.448  1.00  0.00    -0.166 F 
ENDBRANCH  22  28
ENDBRANCH  17  19
ENDBRANCH   1  17
TORSDOF 8
ENDMDL
MODEL 7
REMARK VINA RESULT:      -7.9      3.909      7.192
REMARK  8 active torsions:
REMARK  status: ('A' for Active; 'I' for Inactive)
REMARK    1  A    between atoms: C_5  and  C_6 
REMARK       I    between atoms: C_6  and  N_7 
REMARK    2  A    between atoms: N_7  and  N_8 
REMARK       I    between atoms: N_8  and  C_9 
REMARK    3  A    between atoms: C_9  and  C_10 
REMARK    4  A    between atoms: C_10  and  C_11 
REMARK    5  A    between atoms: C_11  and  N_12 
REMARK    6  A    between atoms: N_12  and  C_13 
REMARK    7  A    between atoms: C_14  and  N_15 
REMARK    8  A    between atoms: C_19  and  C_20 
ROOT
HETATM    1  C   UNL     1       5.869  27.651  54.915  1.00  0.00     0.102 C 
ENDROOT
BRANCH   1   2
HETATM    2  C   UNL     1       5.386  28.760  53.990  1.00  0.00     0.119 C 
BRANCH   2   3
HETATM    3  C   UNL     1       4.467  28.156  52.963  1.00  0.00     0.237 C 
HETATM    4  N   UNL     1       5.104  27.683  51.837  1.00  0.00    -0.267 N 
HETATM    5  H   UNL     1       6.115  27.611  51.728  1.00  0.00     0.190 HD
HETATM    6  O   UNL     1       3.244  28.151  53.086  1.00  0.00    -0.272 OA
BRANCH   4   7
HETATM    7  N   UNL     1       4.323  27.145  50.812  1.00  0.00    -0.262 N 
HETATM    8  C   UNL     1       4.474  27.623  49.529  1.00  0.00     0.286 C 
HETATM    9  O   UNL     1       5.299  28.495  49.259  1.00  0.00    -0.264 OA
HETATM   10  H   UNL     1       3.662  26.417  51.070  1.00  0.00     0.190 HD
BRANCH   8  11
HETATM   11  C   UNL     1       3.603  27.034  48.536  1.00  0.00     0.102 A 
HETATM   12  N   UNL     1       3.600  25.674  48.299  1.00  0.00    -0.361 N 
HETATM   13  C   UNL     1       2.700  25.364  47.317  1.00  0.00     0.088 A 
HETATM   14  H   UNL     1       4.191  25.017  48.795  1.00  0.00     0.165 HD
HETATM   15  C   UNL     1       2.108  26.534  46.904  1.00  0.00     0.019 A 
HETATM   16  C   UNL     1       2.672  27.585  47.669  1.00  0.00     0.036 A 
ENDBRANCH   8  11
ENDBRANCH   4   7
ENDBRANCH   2   3
ENDBRANCH   1   2
BRANCH   1  17
HETATM   17  N   UNL     1       5.155  26.406  54.624  1.00  0.00    -0.290 NA
HETATM   18  H   UNL     1       4.480  26.512  53.857  1.00  0.00     0.127 HD
BRANCH  17  19
HETATM   19  C   UNL     1       5.867  25.199  54.509  1.00  0.00     0.041 A 
HETATM   20  C   UNL     1       6.410  24.531  55.633  1.00  0.00     0.124 A 
HETATM   21  C   UNL     1       7.202  23.371  55.507  1.00  0.00     0.054 A 
HETATM   22  C   UNL     1       7.502  22.854  54.242  1.00  0.00     0.050 A 
HETATM   23  C   UNL     1       7.004  23.522  53.118  1.00  0.00     0.018 A 
HETATM   24  C   UNL     1       6.217  24.676  53.253  1.00  0.00     0.027 A 
BRANCH  20  25
HETATM   25  N   UNL     1       6.142  25.012  56.992  1.00  0.00    -0.114 N 
HETATM   26  O   UNL     1       7.112  25.345  57.692  1.00  0.00    -0.532 OA
HETATM   27  O   UNL     1       4.958  25.083  57.351  1.00  0.00    -0.532 OA
ENDBRANCH  20  25
BRANCH  22  28
HETATM   28  C   UNL     1       8.346  21.614  54.072  1.00  0.00     0.417 C 
HETATM   29  F   UNL     1       7.795  20.694  53.235  1.00  0.00    -0.166 F 
HETATM   30  F   UNL     1       9.577  21.895  53.562  1.00  0.00    -0.166 F 
HETATM   31  F   UNL     1       8.565  20.968  55.250  1.00  0.00    -0.166 F 
ENDBRANCH  22  28
ENDBRANCH  17  19
ENDBRANCH   1  17
TORSDOF 8
ENDMDL
MODEL 8
REMARK VINA RESULT:      -7.9      3.551      6.056
REMARK  8 active torsions:
REMARK  status: ('A' for Active; 'I' for Inactive)
REMARK    1  A    between atoms: C_5  and  C_6 
REMARK       I    between atoms: C_6  and  N_7 
REMARK    2  A    between atoms: N_7  and  N_8 
REMARK       I    between atoms: N_8  and  C_9 
REMARK    3  A    between atoms: C_9  and  C_10 
REMARK    4  A    between atoms: C_10  and  C_11 
REMARK    5  A    between atoms: C_11  and  N_12 
REMARK    6  A    between atoms: N_12  and  C_13 
REMARK    7  A    between atoms: C_14  and  N_15 
REMARK    8  A    between atoms: C_19  and  C_20 
ROOT
HETATM    1  C   UNL     1       5.606  26.281  56.641  1.00  0.00     0.102 C 
ENDROOT
BRANCH   1   2
HETATM    2  C   UNL     1       5.329  27.777  56.714  1.00  0.00     0.119 C 
BRANCH   2   3
HETATM    3  C   UNL     1       4.461  28.156  55.544  1.00  0.00     0.237 C 
HETATM    4  N   UNL     1       4.476  27.251  54.506  1.00  0.00    -0.267 N 
HETATM    5  H   UNL     1       4.917  26.333  54.542  1.00  0.00     0.190 HD
HETATM    6  O   UNL     1       3.849  29.221  55.489  1.00  0.00    -0.272 OA
BRANCH   4   7
HETATM    7  N   UNL     1       3.733  27.546  53.362  1.00  0.00    -0.262 N 
HETATM    8  C   UNL     1       4.379  28.035  52.247  1.00  0.00     0.286 C 
HETATM    9  O   UNL     1       5.600  28.193  52.227  1.00  0.00    -0.264 OA
HETATM   10  H   UNL     1       2.729  27.390  53.409  1.00  0.00     0.190 HD
BRANCH   8  11
HETATM   11  C   UNL     1       3.531  28.345  51.118  1.00  0.00     0.102 A 
HETATM   12  N   UNL     1       3.584  27.603  49.955  1.00  0.00    -0.361 N 
HETATM   13  C   UNL     1       2.695  28.092  49.038  1.00  0.00     0.088 A 
HETATM   14  H   UNL     1       4.203  26.812  49.821  1.00  0.00     0.165 HD
HETATM   15  C   UNL     1       2.053  29.167  49.605  1.00  0.00     0.019 A 
HETATM   16  C   UNL     1       2.575  29.328  50.913  1.00  0.00     0.036 A 
ENDBRANCH   8  11
ENDBRANCH   4   7
ENDBRANCH   2   3
ENDBRANCH   1   2
BRANCH   1  17
HETATM   17  N   UNL     1       6.789  26.029  55.815  1.00  0.00    -0.290 NA
HETATM   18  H   UNL     1       7.550  26.692  56.006  1.00  0.00     0.127 HD
BRANCH  17  19
HETATM   19  C   UNL     1       7.282  24.719  55.677  1.00  0.00     0.041 A 
HETATM   20  C   UNL     1       7.043  23.939  54.519  1.00  0.00     0.124 A 
HETATM   21  C   UNL     1       7.458  22.595  54.421  1.00  0.00     0.054 A 
HETATM   22  C   UNL     1       8.106  21.975  55.495  1.00  0.00     0.050 A 
HETATM   23  C   UNL     1       8.319  22.719  56.660  1.00  0.00     0.018 A 
HETATM   24  C   UNL     1       7.902  24.056  56.749  1.00  0.00     0.027 A 
BRANCH  20  25
HETATM   25  N   UNL     1       6.369  24.516  53.352  1.00  0.00    -0.114 N 
HETATM   26  O   UNL     1       7.061  24.795  52.359  1.00  0.00    -0.532 OA
HETATM   27  O   UNL     1       5.140  24.666  53.418  1.00  0.00    -0.532 OA
ENDBRANCH  20  25
BRANCH  22  28
HETATM   28  C   UNL     1       8.565  20.538  55.421  1.00  0.00     0.417 C 
HETATM   29  F   UNL     1       9.863  20.364  55.791  1.00  0.00    -0.166 F 
HETATM   30  F   UNL     1       7.833  19.722  56.228  1.00  0.00    -0.166 F 
HETATM   31  F   UNL     1       8.459  20.021  54.166  1.00  0.00    -0.166 F 
ENDBRANCH  22  28
ENDBRANCH  17  19
ENDBRANCH   1  17
TORSDOF 8
ENDMDL
MODEL 9
REMARK VINA RESULT:      -7.5      5.020      7.800
REMARK  8 active torsions:
REMARK  status: ('A' for Active; 'I' for Inactive)
REMARK    1  A    between atoms: C_5  and  C_6 
REMARK       I    between atoms: C_6  and  N_7 
REMARK    2  A    between atoms: N_7  and  N_8 
REMARK       I    between atoms: N_8  and  C_9 
REMARK    3  A    between atoms: C_9  and  C_10 
REMARK    4  A    between atoms: C_10  and  C_11 
REMARK    5  A    between atoms: C_11  and  N_12 
REMARK    6  A    between atoms: N_12  and  C_13 
REMARK    7  A    between atoms: C_14  and  N_15 
REMARK    8  A    between atoms: C_19  and  C_20 
ROOT
HETATM    1  C   UNL     1       5.201  28.227  54.827  1.00  0.00     0.102 C 
ENDROOT
BRANCH   1   2
HETATM    2  C   UNL     1       6.082  27.543  55.864  1.00  0.00     0.119 C 
BRANCH   2   3
HETATM    3  C   UNL     1       6.186  26.083  55.510  1.00  0.00     0.237 C 
HETATM    4  N   UNL     1       7.285  25.759  54.745  1.00  0.00    -0.267 N 
HETATM    5  H   UNL     1       8.050  26.396  54.528  1.00  0.00     0.190 HD
HETATM    6  O   UNL     1       5.324  25.262  55.816  1.00  0.00    -0.272 OA
BRANCH   4   7
HETATM    7  N   UNL     1       7.436  24.433  54.335  1.00  0.00    -0.262 N 
HETATM    8  C   UNL     1       8.298  23.609  55.026  1.00  0.00     0.286 C 
HETATM    9  O   UNL     1       8.918  24.008  56.012  1.00  0.00    -0.264 OA
HETATM   10  H   UNL     1       6.897  24.136  53.525  1.00  0.00     0.190 HD
BRANCH   8  11
HETATM   11  C   UNL     1       8.420  22.263  54.515  1.00  0.00     0.102 A 
HETATM   12  N   UNL     1       8.672  21.196  55.355  1.00  0.00    -0.361 N 
HETATM   13  C   UNL     1       8.748  20.034  54.638  1.00  0.00     0.088 A 
HETATM   14  H   UNL     1       8.784  21.286  56.358  1.00  0.00     0.165 HD
HETATM   15  C   UNL     1       8.544  20.342  53.314  1.00  0.00     0.019 A 
HETATM   16  C   UNL     1       8.337  21.741  53.234  1.00  0.00     0.036 A 
ENDBRANCH   8  11
ENDBRANCH   4   7
ENDBRANCH   2   3
ENDBRANCH   1   2
BRANCH   1  17
HETATM   17  N   UNL     1       4.606  27.230  53.935  1.00  0.00    -0.290 NA
HETATM   18  H   UNL     1       3.746  26.821  54.322  1.00  0.00     0.127 HD
BRANCH  17  19
HETATM   19  C   UNL     1       4.461  27.510  52.565  1.00  0.00     0.041 A 
HETATM   20  C   UNL     1       5.049  26.703  51.561  1.00  0.00     0.124 A 
HETATM   21  C   UNL     1       4.982  27.037  50.193  1.00  0.00     0.054 A 
HETATM   22  C   UNL     1       4.343  28.213  49.784  1.00  0.00     0.050 A 
HETATM   23  C   UNL     1       3.787  29.041  50.765  1.00  0.00     0.018 A 
HETATM   24  C   UNL     1       3.859  28.701  52.124  1.00  0.00     0.027 A 
BRANCH  20  25
HETATM   25  N   UNL     1       5.738  25.456  51.910  1.00  0.00    -0.114 N 
HETATM   26  O   UNL     1       5.084  24.574  52.491  1.00  0.00    -0.532 OA
HETATM   27  O   UNL     1       6.927  25.347  51.578  1.00  0.00    -0.532 OA
ENDBRANCH  20  25
BRANCH  22  28
HETATM   28  C   UNL     1       4.251  28.599  48.327  1.00  0.00     0.417 C 
HETATM   29  F   UNL     1       3.725  29.838  48.127  1.00  0.00    -0.166 F 
HETATM   30  F   UNL     1       5.470  28.607  47.720  1.00  0.00    -0.166 F 
HETATM   31  F   UNL     1       3.477  27.741  47.608  1.00  0.00    -0.166 F 
ENDBRANCH  22  28
ENDBRANCH  17  19
ENDBRANCH   1  17
TORSDOF 8
ENDMDL
MODEL 10
REMARK VINA RESULT:      -7.4      8.181     11.977
REMARK  8 active torsions:
REMARK  status: ('A' for Active; 'I' for Inactive)
REMARK    1  A    between atoms: C_5  and  C_6 
REMARK       I    between atoms: C_6  and  N_7 
REMARK    2  A    between atoms: N_7  and  N_8 
REMARK       I    between atoms: N_8  and  C_9 
REMARK    3  A    between atoms: C_9  and  C_10 
REMARK    4  A    between atoms: C_10  and  C_11 
REMARK    5  A    between atoms: C_11  and  N_12 
REMARK    6  A    between atoms: N_12  and  C_13 
REMARK    7  A    between atoms: C_14  and  N_15 
REMARK    8  A    between atoms: C_19  and  C_20 
ROOT
HETATM    1  C   UNL     1       4.490  32.497  61.734  1.00  0.00     0.102 C 
ENDROOT
BRANCH   1   2
HETATM    2  C   UNL     1       4.127  32.792  60.285  1.00  0.00     0.119 C 
BRANCH   2   3
HETATM    3  C   UNL     1       5.021  31.970  59.395  1.00  0.00     0.237 C 
HETATM    4  N   UNL     1       6.255  31.682  59.936  1.00  0.00    -0.267 N 
HETATM    5  H   UNL     1       6.527  31.877  60.899  1.00  0.00     0.190 HD
HETATM    6  O   UNL     1       4.704  31.646  58.252  1.00  0.00    -0.272 OA
BRANCH   4   7
HETATM    7  N   UNL     1       7.163  30.960  59.160  1.00  0.00    -0.262 N 
HETATM    8  C   UNL     1       8.441  31.447  58.992  1.00  0.00     0.286 C 
HETATM    9  O   UNL     1       8.809  32.491  59.531  1.00  0.00    -0.264 OA
HETATM   10  H   UNL     1       6.829  30.095  58.743  1.00  0.00     0.190 HD
BRANCH   8  11
HETATM   11  C   UNL     1       9.307  30.655  58.149  1.00  0.00     0.102 A 
HETATM   12  N   UNL     1       8.918  29.415  57.683  1.00  0.00    -0.361 N 
HETATM   13  C   UNL     1       9.905  28.864  56.914  1.00  0.00     0.088 A 
HETATM   14  H   UNL     1       8.021  28.991  57.896  1.00  0.00     0.165 HD
HETATM   15  C   UNL     1      10.954  29.751  56.876  1.00  0.00     0.019 A 
HETATM   16  C   UNL     1      10.581  30.878  57.650  1.00  0.00     0.036 A 
ENDBRANCH   8  11
ENDBRANCH   4   7
ENDBRANCH   2   3
ENDBRANCH   1   2
BRANCH   1  17
HETATM   17  N   UNL     1       5.395  33.527  62.247  1.00  0.00    -0.290 NA
HETATM   18  H   UNL     1       5.269  34.431  61.774  1.00  0.00     0.127 HD
BRANCH  17  19
HETATM   19  C   UNL     1       5.550  33.700  63.633  1.00  0.00     0.041 A 
HETATM   20  C   UNL     1       4.546  34.288  64.440  1.00  0.00     0.124 A 
HETATM   21  C   UNL     1       4.740  34.546  65.813  1.00  0.00     0.054 A 
HETATM   22  C   UNL     1       5.964  34.246  66.422  1.00  0.00     0.050 A 
HETATM   23  C   UNL     1       6.980  33.697  65.632  1.00  0.00     0.018 A 
HETATM   24  C   UNL     1       6.779  33.445  64.267  1.00  0.00     0.027 A 
BRANCH  20  25
HETATM   25  N   UNL     1       3.237  34.632  63.875  1.00  0.00    -0.114 N 
HETATM   26  O   UNL     1       3.179  35.589  63.085  1.00  0.00    -0.532 OA
HETATM   27  O   UNL     1       2.271  33.928  64.199  1.00  0.00    -0.532 OA
ENDBRANCH  20  25
BRANCH  22  28
HETATM   28  C   UNL     1       6.204  34.508  67.889  1.00  0.00     0.417 C 
HETATM   29  F   UNL     1       7.518  34.464  68.239  1.00  0.00    -0.166 F 
HETATM   30  F   UNL     1       5.754  35.734  68.273  1.00  0.00    -0.166 F 
HETATM   31  F   UNL     1       5.571  33.607  68.689  1.00  0.00    -0.166 F 
ENDBRANCH  22  28
ENDBRANCH  17  19
ENDBRANCH   1  17
TORSDOF 8
ENDMDL
