MODEL 1
REMARK VINA RESULT:      -9.5      0.000      0.000
REMARK  3 active torsions:
REMARK  status: ('A' for Active; 'I' for Inactive)
REMARK    1  A    between atoms: C_2  and  N_3 
REMARK       I    between atoms: N_3  and  C_4 
REMARK    2  A    between atoms: C_4  and  C_5 
REMARK    3  A    between atoms: C_22  and  C_23 
REMARK       I    between atoms: C_23  and  N_24 
ROOT
HETATM    1  C   UNL     1       7.629  32.391  61.267  1.00  0.00     0.109 A 
HETATM    2  C   UNL     1       6.418  33.062  61.460  1.00  0.00     0.136 A 
HETATM    3  F   UNL     1       5.605  33.329  60.425  1.00  0.00    -0.205 F 
HETATM    4  C   UNL     1       6.001  33.484  62.724  1.00  0.00     0.066 A 
HETATM    5  C   UNL     1       6.801  33.237  63.839  1.00  0.00     0.050 A 
HETATM    6  C   UNL     1       6.385  33.671  65.140  1.00  0.00     0.099 C 
HETATM    7  N   UNL     1       6.045  34.025  66.191  1.00  0.00    -0.191 NA
HETATM    8  C   UNL     1       8.013  32.567  63.673  1.00  0.00     0.066 A 
HETATM    9  C   UNL     1       8.416  32.151  62.400  1.00  0.00     0.136 A 
HETATM   10  F   UNL     1       9.595  31.522  62.319  1.00  0.00    -0.205 F 
ENDROOT
BRANCH   1  11
HETATM   11  C   UNL     1       8.101  31.940  59.921  1.00  0.00     0.262 C 
HETATM   12  N   UNL     1       7.570  30.751  59.446  1.00  0.00    -0.323 N 
HETATM   13  H   UNL     1       6.934  30.246  60.054  1.00  0.00     0.169 HD
HETATM   14  O   UNL     1       8.914  32.633  59.321  1.00  0.00    -0.267 OA
BRANCH  12  15
HETATM   15  C   UNL     1       7.806  30.135  58.196  1.00  0.00     0.036 A 
HETATM   16  C   UNL     1       9.075  29.845  57.692  1.00  0.00     0.032 A 
HETATM   17  C   UNL     1       9.252  29.246  56.435  1.00  0.00     0.034 A 
HETATM   18  C   UNL     1       8.102  28.947  55.702  1.00  0.00     0.063 A 
HETATM   19  C   UNL     1       6.822  29.216  56.164  1.00  0.00     0.030 A 
HETATM   20  N   UNL     1       7.931  28.378  54.471  1.00  0.00    -0.277 N 
HETATM   21  C   UNL     1       6.670  29.818  57.430  1.00  0.00     0.046 A 
HETATM   22  C   UNL     1       5.951  28.762  55.130  1.00  0.00     0.156 A 
HETATM   23  N   UNL     1       6.648  28.248  54.091  1.00  0.00    -0.168 NA
HETATM   24  H   UNL     1       8.655  28.055  53.839  1.00  0.00     0.189 HD
BRANCH  22  25
HETATM   25  C   UNL     1       4.483  28.813  55.120  1.00  0.00     0.270 C 
HETATM   26  N   UNL     1       3.891  28.062  56.097  1.00  0.00    -0.365 N 
HETATM   27  H   UNL     1       4.482  27.545  56.736  1.00  0.00     0.159 HD
HETATM   28  H   UNL     1       2.886  28.036  56.173  1.00  0.00     0.159 HD
HETATM   29  O   UNL     1       3.816  29.462  54.320  1.00  0.00    -0.266 OA
ENDBRANCH  22  25
ENDBRANCH  12  15
ENDBRANCH   1  11
TORSDOF 3
ENDMDL
MODEL 2
REMARK VINA RESULT:      -9.4      5.046      9.700
REMARK  3 active torsions:
REMARK  status: ('A' for Active; 'I' for Inactive)
REMARK    1  A    between atoms: C_2  and  N_3 
REMARK       I    between atoms: N_3  and  C_4 
REMARK    2  A    between atoms: C_4  and  C_5 
REMARK    3  A    between atoms: C_22  and  C_23 
REMARK       I    between atoms: C_23  and  N_24 
ROOT
HETATM    1  C   UNL     1       6.834  24.329  55.341  1.00  0.00     0.109 A 
HETATM    2  C   UNL     1       7.624  23.402  56.028  1.00  0.00     0.136 A 
HETATM    3  F   UNL     1       7.912  23.571  57.327  1.00  0.00    -0.205 F 
HETATM    4  C   UNL     1       8.145  22.268  55.401  1.00  0.00     0.066 A 
HETATM    5  C   UNL     1       7.881  22.035  54.052  1.00  0.00     0.050 A 
HETATM    6  C   UNL     1       8.416  20.877  53.398  1.00  0.00     0.099 C 
HETATM    7  N   UNL     1       8.852  19.940  52.873  1.00  0.00    -0.191 NA
HETATM    8  C   UNL     1       7.095  22.945  53.345  1.00  0.00     0.066 A 
HETATM    9  C   UNL     1       6.580  24.075  53.987  1.00  0.00     0.136 A 
HETATM   10  F   UNL     1       5.841  24.906  53.241  1.00  0.00    -0.205 F 
ENDROOT
BRANCH   1  11
HETATM   11  C   UNL     1       6.276  25.556  55.988  1.00  0.00     0.262 C 
HETATM   12  N   UNL     1       6.800  26.769  55.571  1.00  0.00    -0.323 N 
HETATM   13  H   UNL     1       7.552  26.745  54.890  1.00  0.00     0.169 HD
HETATM   14  O   UNL     1       5.401  25.426  56.836  1.00  0.00    -0.267 OA
BRANCH  12  15
HETATM   15  C   UNL     1       6.417  28.066  55.981  1.00  0.00     0.036 A 
HETATM   16  C   UNL     1       5.374  28.794  55.406  1.00  0.00     0.032 A 
HETATM   17  C   UNL     1       5.046  30.087  55.842  1.00  0.00     0.034 A 
HETATM   18  C   UNL     1       5.808  30.622  56.882  1.00  0.00     0.063 A 
HETATM   19  C   UNL     1       6.852  29.935  57.484  1.00  0.00     0.030 A 
HETATM   20  N   UNL     1       5.751  31.829  57.523  1.00  0.00    -0.277 N 
HETATM   21  C   UNL     1       7.162  28.637  57.028  1.00  0.00     0.046 A 
HETATM   22  C   UNL     1       7.353  30.822  58.482  1.00  0.00     0.156 A 
HETATM   23  N   UNL     1       6.666  31.986  58.495  1.00  0.00    -0.168 NA
HETATM   24  H   UNL     1       5.106  32.589  57.341  1.00  0.00     0.189 HD
BRANCH  22  25
HETATM   25  C   UNL     1       8.466  30.576  59.410  1.00  0.00     0.270 C 
HETATM   26  N   UNL     1       8.090  30.484  60.722  1.00  0.00    -0.365 N 
HETATM   27  H   UNL     1       7.109  30.587  60.953  1.00  0.00     0.159 HD
HETATM   28  H   UNL     1       8.783  30.313  61.433  1.00  0.00     0.159 HD
HETATM   29  O   UNL     1       9.639  30.457  59.071  1.00  0.00    -0.266 OA
ENDBRANCH  22  25
ENDBRANCH  12  15
ENDBRANCH   1  11
TORSDOF 3
ENDMDL
MODEL 3
REMARK VINA RESULT:      -9.4      4.907      9.566
REMARK  3 active torsions:
REMARK  status: ('A' for Active; 'I' for Inactive)
REMARK    1  A    between atoms: C_2  and  N_3 
REMARK       I    between atoms: N_3  and  C_4 
REMARK    2  A    between atoms: C_4  and  C_5 
REMARK    3  A    between atoms: C_22  and  C_23 
REMARK       I    between atoms: C_23  and  N_24 
ROOT
HETATM    1  C   UNL     1       7.679  25.317  54.016  1.00  0.00     0.109 A 
HETATM    2  C   UNL     1       7.500  24.763  52.745  1.00  0.00     0.136 A 
HETATM    3  F   UNL     1       7.130  25.526  51.706  1.00  0.00    -0.205 F 
HETATM    4  C   UNL     1       7.695  23.401  52.500  1.00  0.00     0.066 A 
HETATM    5  C   UNL     1       8.080  22.555  53.539  1.00  0.00     0.050 A 
HETATM    6  C   UNL     1       8.277  21.156  53.298  1.00  0.00     0.099 C 
HETATM    7  N   UNL     1       8.434  20.024  53.099  1.00  0.00    -0.191 NA
HETATM    8  C   UNL     1       8.267  23.085  54.815  1.00  0.00     0.066 A 
HETATM    9  C   UNL     1       8.068  24.450  55.044  1.00  0.00     0.136 A 
HETATM   10  F   UNL     1       8.259  24.883  56.297  1.00  0.00    -0.205 F 
ENDROOT
BRANCH   1  11
HETATM   11  C   UNL     1       7.465  26.769  54.304  1.00  0.00     0.262 C 
HETATM   12  N   UNL     1       6.535  27.074  55.286  1.00  0.00    -0.323 N 
HETATM   13  H   UNL     1       6.034  26.302  55.712  1.00  0.00     0.169 HD
HETATM   14  O   UNL     1       8.110  27.595  53.670  1.00  0.00    -0.267 OA
BRANCH  12  15
HETATM   15  C   UNL     1       6.185  28.350  55.781  1.00  0.00     0.036 A 
HETATM   16  C   UNL     1       5.144  29.130  55.274  1.00  0.00     0.032 A 
HETATM   17  C   UNL     1       4.850  30.399  55.794  1.00  0.00     0.034 A 
HETATM   18  C   UNL     1       5.643  30.858  56.848  1.00  0.00     0.063 A 
HETATM   19  C   UNL     1       6.686  30.117  57.384  1.00  0.00     0.030 A 
HETATM   20  N   UNL     1       5.621  32.024  57.561  1.00  0.00    -0.277 N 
HETATM   21  C   UNL     1       6.962  28.844  56.844  1.00  0.00     0.046 A 
HETATM   22  C   UNL     1       7.224  30.933  58.423  1.00  0.00     0.156 A 
HETATM   23  N   UNL     1       6.559  32.106  58.520  1.00  0.00    -0.168 NA
HETATM   24  H   UNL     1       4.987  32.806  57.439  1.00  0.00     0.189 HD
BRANCH  22  25
HETATM   25  C   UNL     1       8.350  30.612  59.310  1.00  0.00     0.270 C 
HETATM   26  N   UNL     1       8.011  30.511  60.631  1.00  0.00    -0.365 N 
HETATM   27  H   UNL     1       7.044  30.657  60.895  1.00  0.00     0.159 HD
HETATM   28  H   UNL     1       8.715  30.290  61.316  1.00  0.00     0.159 HD
HETATM   29  O   UNL     1       9.505  30.442  58.932  1.00  0.00    -0.266 OA
ENDBRANCH  22  25
ENDBRANCH  12  15
ENDBRANCH   1  11
TORSDOF 3
ENDMDL
MODEL 4
REMARK VINA RESULT:      -9.3      5.533      9.803
REMARK  3 active torsions:
REMARK  status: ('A' for Active; 'I' for Inactive)
REMARK    1  A    between atoms: C_2  and  N_3 
REMARK       I    between atoms: N_3  and  C_4 
REMARK    2  A    between atoms: C_4  and  C_5 
REMARK    3  A    between atoms: C_22  and  C_23 
REMARK       I    between atoms: C_23  and  N_24 
ROOT
HETATM    1  C   UNL     1       7.162  24.740  53.952  1.00  0.00     0.109 A 
HETATM    2  C   UNL     1       7.079  23.962  55.112  1.00  0.00     0.136 A 
HETATM    3  F   UNL     1       6.574  24.469  56.247  1.00  0.00    -0.205 F 
HETATM    4  C   UNL     1       7.514  22.635  55.143  1.00  0.00     0.066 A 
HETATM    5  C   UNL     1       8.049  22.051  53.996  1.00  0.00     0.050 A 
HETATM    6  C   UNL     1       8.503  20.692  54.019  1.00  0.00     0.099 C 
HETATM    7  N   UNL     1       8.871  19.592  54.043  1.00  0.00    -0.191 NA
HETATM    8  C   UNL     1       8.141  22.805  52.826  1.00  0.00     0.066 A 
HETATM    9  C   UNL     1       7.701  24.132  52.811  1.00  0.00     0.136 A 
HETATM   10  F   UNL     1       7.829  24.795  51.654  1.00  0.00    -0.205 F 
ENDROOT
BRANCH   1  11
HETATM   11  C   UNL     1       6.714  26.165  53.899  1.00  0.00     0.262 C 
HETATM   12  N   UNL     1       5.345  26.384  53.931  1.00  0.00    -0.323 N 
HETATM   13  H   UNL     1       4.741  25.570  53.945  1.00  0.00     0.169 HD
HETATM   14  O   UNL     1       7.562  27.046  53.832  1.00  0.00    -0.267 OA
BRANCH  12  15
HETATM   15  C   UNL     1       4.666  27.623  53.944  1.00  0.00     0.036 A 
HETATM   16  C   UNL     1       4.006  28.167  52.841  1.00  0.00     0.032 A 
HETATM   17  C   UNL     1       3.360  29.412  52.906  1.00  0.00     0.034 A 
HETATM   18  C   UNL     1       3.402  30.091  54.125  1.00  0.00     0.063 A 
HETATM   19  C   UNL     1       4.045  29.588  55.247  1.00  0.00     0.030 A 
HETATM   20  N   UNL     1       2.888  31.297  54.512  1.00  0.00    -0.277 N 
HETATM   21  C   UNL     1       4.686  28.335  55.157  1.00  0.00     0.046 A 
HETATM   22  C   UNL     1       3.851  30.574  56.259  1.00  0.00     0.156 A 
HETATM   23  N   UNL     1       3.137  31.623  55.793  1.00  0.00    -0.168 NA
HETATM   24  H   UNL     1       2.355  31.947  53.945  1.00  0.00     0.189 HD
BRANCH  22  25
HETATM   25  C   UNL     1       4.333  30.529  57.646  1.00  0.00     0.270 C 
HETATM   26  N   UNL     1       3.352  30.304  58.572  1.00  0.00    -0.365 N 
HETATM   27  H   UNL     1       2.399  30.188  58.250  1.00  0.00     0.159 HD
HETATM   28  H   UNL     1       3.586  30.253  59.551  1.00  0.00     0.159 HD
HETATM   29  O   UNL     1       5.505  30.674  57.979  1.00  0.00    -0.266 OA
ENDBRANCH  22  25
ENDBRANCH  12  15
ENDBRANCH   1  11
TORSDOF 3
ENDMDL
MODEL 5
REMARK VINA RESULT:      -9.2      2.337      8.329
REMARK  3 active torsions:
REMARK  status: ('A' for Active; 'I' for Inactive)
REMARK    1  A    between atoms: C_2  and  N_3 
REMARK       I    between atoms: N_3  and  C_4 
REMARK    2  A    between atoms: C_4  and  C_5 
REMARK    3  A    between atoms: C_22  and  C_23 
REMARK       I    between atoms: C_23  and  N_24 
ROOT
HETATM    1  C   UNL     1       7.819  30.758  58.547  1.00  0.00     0.109 A 
HETATM    2  C   UNL     1       8.927  30.023  58.114  1.00  0.00     0.136 A 
HETATM    3  F   UNL     1      10.119  30.156  58.715  1.00  0.00    -0.205 F 
HETATM    4  C   UNL     1       8.847  29.129  57.044  1.00  0.00     0.066 A 
HETATM    5  C   UNL     1       7.636  28.948  56.377  1.00  0.00     0.050 A 
HETATM    6  C   UNL     1       7.545  28.036  55.275  1.00  0.00     0.099 C 
HETATM    7  N   UNL     1       7.477  27.298  54.383  1.00  0.00    -0.191 NA
HETATM    8  C   UNL     1       6.515  29.667  56.793  1.00  0.00     0.066 A 
HETATM    9  C   UNL     1       6.612  30.558  57.865  1.00  0.00     0.136 A 
HETATM   10  F   UNL     1       5.496  31.219  58.200  1.00  0.00    -0.205 F 
ENDROOT
BRANCH   1  11
HETATM   11  C   UNL     1       7.884  31.730  59.682  1.00  0.00     0.262 C 
HETATM   12  N   UNL     1       7.094  31.446  60.785  1.00  0.00    -0.323 N 
HETATM   13  H   UNL     1       6.496  30.628  60.735  1.00  0.00     0.169 HD
HETATM   14  O   UNL     1       8.618  32.705  59.579  1.00  0.00    -0.267 OA
BRANCH  12  15
HETATM   15  C   UNL     1       7.009  32.166  61.998  1.00  0.00     0.036 A 
HETATM   16  C   UNL     1       8.060  32.295  62.908  1.00  0.00     0.032 A 
HETATM   17  C   UNL     1       7.915  33.008  64.108  1.00  0.00     0.034 A 
HETATM   18  C   UNL     1       6.671  33.591  64.359  1.00  0.00     0.063 A 
HETATM   19  C   UNL     1       5.601  33.490  63.483  1.00  0.00     0.030 A 
HETATM   20  N   UNL     1       6.211  34.332  65.411  1.00  0.00    -0.277 N 
HETATM   21  C   UNL     1       5.771  32.767  62.285  1.00  0.00     0.046 A 
HETATM   22  C   UNL     1       4.542  34.214  64.107  1.00  0.00     0.156 A 
HETATM   23  N   UNL     1       4.931  34.727  65.295  1.00  0.00    -0.168 NA
HETATM   24  H   UNL     1       6.725  34.603  66.242  1.00  0.00     0.189 HD
BRANCH  22  25
HETATM   25  C   UNL     1       3.182  34.418  63.590  1.00  0.00     0.270 C 
HETATM   26  N   UNL     1       2.896  35.715  63.265  1.00  0.00    -0.365 N 
HETATM   27  H   UNL     1       3.614  36.417  63.396  1.00  0.00     0.159 HD
HETATM   28  H   UNL     1       1.988  35.954  62.898  1.00  0.00     0.159 HD
HETATM   29  O   UNL     1       2.352  33.525  63.449  1.00  0.00    -0.266 OA
ENDBRANCH  22  25
ENDBRANCH  12  15
ENDBRANCH   1  11
TORSDOF 3
ENDMDL
MODEL 6
REMARK VINA RESULT:      -9.2      7.836     12.038
REMARK  3 active torsions:
REMARK  status: ('A' for Active; 'I' for Inactive)
REMARK    1  A    between atoms: C_2  and  N_3 
REMARK       I    between atoms: N_3  and  C_4 
REMARK    2  A    between atoms: C_4  and  C_5 
REMARK    3  A    between atoms: C_22  and  C_23 
REMARK       I    between atoms: C_23  and  N_24 
ROOT
HETATM    1  C   UNL     1       3.512  27.181  49.109  1.00  0.00     0.109 A 
HETATM    2  C   UNL     1       3.445  26.391  47.957  1.00  0.00     0.136 A 
HETATM    3  F   UNL     1       4.414  25.510  47.668  1.00  0.00    -0.205 F 
HETATM    4  C   UNL     1       2.377  26.482  47.061  1.00  0.00     0.066 A 
HETATM    5  C   UNL     1       1.338  27.380  47.305  1.00  0.00     0.050 A 
HETATM    6  C   UNL     1       0.241  27.485  46.388  1.00  0.00     0.099 C 
HETATM    7  N   UNL     1      -0.644  27.567  45.643  1.00  0.00    -0.191 NA
HETATM    8  C   UNL     1       1.381  28.177  48.448  1.00  0.00     0.066 A 
HETATM    9  C   UNL     1       2.457  28.074  49.335  1.00  0.00     0.136 A 
HETATM   10  F   UNL     1       2.432  28.878  50.406  1.00  0.00    -0.205 F 
ENDROOT
BRANCH   1  11
HETATM   11  C   UNL     1       4.650  27.109  50.076  1.00  0.00     0.262 C 
HETATM   12  N   UNL     1       4.660  26.025  50.940  1.00  0.00    -0.323 N 
HETATM   13  H   UNL     1       3.879  25.379  50.890  1.00  0.00     0.169 HD
HETATM   14  O   UNL     1       5.498  27.993  50.053  1.00  0.00    -0.267 OA
BRANCH  12  15
HETATM   15  C   UNL     1       5.638  25.695  51.905  1.00  0.00     0.036 A 
HETATM   16  C   UNL     1       6.929  25.262  51.597  1.00  0.00     0.032 A 
HETATM   17  C   UNL     1       7.855  24.931  52.598  1.00  0.00     0.034 A 
HETATM   18  C   UNL     1       7.435  25.053  53.924  1.00  0.00     0.063 A 
HETATM   19  C   UNL     1       6.163  25.481  54.276  1.00  0.00     0.030 A 
HETATM   20  N   UNL     1       8.077  24.813  55.107  1.00  0.00    -0.277 N 
HETATM   21  C   UNL     1       5.250  25.807  53.252  1.00  0.00     0.046 A 
HETATM   22  C   UNL     1       6.148  25.465  55.702  1.00  0.00     0.156 A 
HETATM   23  N   UNL     1       7.334  25.051  56.201  1.00  0.00    -0.168 NA
HETATM   24  H   UNL     1       9.028  24.484  55.232  1.00  0.00     0.189 HD
BRANCH  22  25
HETATM   25  C   UNL     1       5.031  25.835  56.581  1.00  0.00     0.270 C 
HETATM   26  N   UNL     1       4.577  27.112  56.402  1.00  0.00    -0.365 N 
HETATM   27  H   UNL     1       5.024  27.692  55.701  1.00  0.00     0.159 HD
HETATM   28  H   UNL     1       3.810  27.457  56.957  1.00  0.00     0.159 HD
HETATM   29  O   UNL     1       4.526  25.088  57.413  1.00  0.00    -0.266 OA
ENDBRANCH  22  25
ENDBRANCH  12  15
ENDBRANCH   1  11
TORSDOF 3
ENDMDL
MODEL 7
REMARK VINA RESULT:      -9.0      8.372     10.137
REMARK  3 active torsions:
REMARK  status: ('A' for Active; 'I' for Inactive)
REMARK    1  A    between atoms: C_2  and  N_3 
REMARK       I    between atoms: N_3  and  C_4 
REMARK    2  A    between atoms: C_4  and  C_5 
REMARK    3  A    between atoms: C_22  and  C_23 
REMARK       I    between atoms: C_23  and  N_24 
ROOT
HETATM    1  C   UNL     1       7.411  24.704  54.149  1.00  0.00     0.109 A 
HETATM    2  C   UNL     1       7.375  24.532  55.536  1.00  0.00     0.136 A 
HETATM    3  F   UNL     1       6.873  25.485  56.336  1.00  0.00    -0.205 F 
HETATM    4  C   UNL     1       7.856  23.372  56.148  1.00  0.00     0.066 A 
HETATM    5  C   UNL     1       8.391  22.345  55.371  1.00  0.00     0.050 A 
HETATM    6  C   UNL     1       8.892  21.154  55.990  1.00  0.00     0.099 C 
HETATM    7  N   UNL     1       9.298  20.192  56.495  1.00  0.00    -0.191 NA
HETATM    8  C   UNL     1       8.435  22.493  53.985  1.00  0.00     0.066 A 
HETATM    9  C   UNL     1       7.949  23.660  53.387  1.00  0.00     0.136 A 
HETATM   10  F   UNL     1       8.034  23.732  52.052  1.00  0.00    -0.205 F 
ENDROOT
BRANCH   1  11
HETATM   11  C   UNL     1       6.912  25.942  53.473  1.00  0.00     0.262 C 
HETATM   12  N   UNL     1       5.687  25.845  52.833  1.00  0.00    -0.323 N 
HETATM   13  H   UNL     1       5.231  24.939  52.827  1.00  0.00     0.169 HD
HETATM   14  O   UNL     1       7.599  26.955  53.521  1.00  0.00    -0.267 OA
BRANCH  12  15
HETATM   15  C   UNL     1       4.973  26.868  52.169  1.00  0.00     0.036 A 
HETATM   16  C   UNL     1       4.276  27.888  52.820  1.00  0.00     0.032 A 
HETATM   17  C   UNL     1       3.569  28.870  52.110  1.00  0.00     0.034 A 
HETATM   18  C   UNL     1       3.590  28.791  50.716  1.00  0.00     0.063 A 
HETATM   19  C   UNL     1       4.270  27.797  50.028  1.00  0.00     0.030 A 
HETATM   20  N   UNL     1       3.015  29.572  49.753  1.00  0.00    -0.277 N 
HETATM   21  C   UNL     1       4.973  26.821  50.763  1.00  0.00     0.046 A 
HETATM   22  C   UNL     1       4.041  28.079  48.648  1.00  0.00     0.156 A 
HETATM   23  N   UNL     1       3.265  29.175  48.493  1.00  0.00    -0.168 NA
HETATM   24  H   UNL     1       2.438  30.394  49.893  1.00  0.00     0.189 HD
BRANCH  22  25
HETATM   25  C   UNL     1       4.545  27.325  47.493  1.00  0.00     0.270 C 
HETATM   26  N   UNL     1       5.840  27.611  47.160  1.00  0.00    -0.365 N 
HETATM   27  H   UNL     1       6.343  28.296  47.713  1.00  0.00     0.159 HD
HETATM   28  H   UNL     1       6.276  27.141  46.383  1.00  0.00     0.159 HD
HETATM   29  O   UNL     1       3.890  26.502  46.861  1.00  0.00    -0.266 OA
ENDBRANCH  22  25
ENDBRANCH  12  15
ENDBRANCH   1  11
TORSDOF 3
ENDMDL
MODEL 8
REMARK VINA RESULT:      -9.0      4.984      9.217
REMARK  3 active torsions:
REMARK  status: ('A' for Active; 'I' for Inactive)
REMARK    1  A    between atoms: C_2  and  N_3 
REMARK       I    between atoms: N_3  and  C_4 
REMARK    2  A    between atoms: C_4  and  C_5 
REMARK    3  A    between atoms: C_22  and  C_23 
REMARK       I    between atoms: C_23  and  N_24 
ROOT
HETATM    1  C   UNL     1       7.457  25.048  54.657  1.00  0.00     0.109 A 
HETATM    2  C   UNL     1       7.925  24.787  53.366  1.00  0.00     0.136 A 
HETATM    3  F   UNL     1       8.158  25.787  52.502  1.00  0.00    -0.205 F 
HETATM    4  C   UNL     1       8.167  23.486  52.917  1.00  0.00     0.066 A 
HETATM    5  C   UNL     1       7.943  22.404  53.768  1.00  0.00     0.050 A 
HETATM    6  C   UNL     1       8.183  21.065  53.315  1.00  0.00     0.099 C 
HETATM    7  N   UNL     1       8.378  19.984  52.944  1.00  0.00    -0.191 NA
HETATM    8  C   UNL     1       7.478  22.639  55.062  1.00  0.00     0.066 A 
HETATM    9  C   UNL     1       7.241  23.947  55.495  1.00  0.00     0.136 A 
HETATM   10  F   UNL     1       6.787  24.092  56.747  1.00  0.00    -0.205 F 
ENDROOT
BRANCH   1  11
HETATM   11  C   UNL     1       7.179  26.431  55.154  1.00  0.00     0.262 C 
HETATM   12  N   UNL     1       7.907  26.849  56.258  1.00  0.00    -0.323 N 
HETATM   13  H   UNL     1       8.544  26.181  56.679  1.00  0.00     0.169 HD
HETATM   14  O   UNL     1       6.341  27.107  54.572  1.00  0.00    -0.267 OA
BRANCH  12  15
HETATM   15  C   UNL     1       7.875  28.113  56.888  1.00  0.00     0.036 A 
HETATM   16  C   UNL     1       9.011  28.817  57.292  1.00  0.00     0.032 A 
HETATM   17  C   UNL     1       8.921  30.063  57.930  1.00  0.00     0.034 A 
HETATM   18  C   UNL     1       7.642  30.579  58.147  1.00  0.00     0.063 A 
HETATM   19  C   UNL     1       6.486  29.915  57.761  1.00  0.00     0.030 A 
HETATM   20  N   UNL     1       7.216  31.739  58.731  1.00  0.00    -0.277 N 
HETATM   21  C   UNL     1       6.603  28.664  57.122  1.00  0.00     0.046 A 
HETATM   22  C   UNL     1       5.417  30.772  58.160  1.00  0.00     0.156 A 
HETATM   23  N   UNL     1       5.881  31.892  58.757  1.00  0.00    -0.168 NA
HETATM   24  H   UNL     1       7.792  32.470  59.133  1.00  0.00     0.189 HD
BRANCH  22  25
HETATM   25  C   UNL     1       3.978  30.536  57.980  1.00  0.00     0.270 C 
HETATM   26  N   UNL     1       3.663  29.834  56.850  1.00  0.00    -0.365 N 
HETATM   27  H   UNL     1       4.414  29.535  56.240  1.00  0.00     0.159 HD
HETATM   28  H   UNL     1       2.700  29.620  56.642  1.00  0.00     0.159 HD
HETATM   29  O   UNL     1       3.109  30.921  58.757  1.00  0.00    -0.266 OA
ENDBRANCH  22  25
ENDBRANCH  12  15
ENDBRANCH   1  11
TORSDOF 3
ENDMDL
MODEL 9
REMARK VINA RESULT:      -8.9      2.804      3.580
REMARK  3 active torsions:
REMARK  status: ('A' for Active; 'I' for Inactive)
REMARK    1  A    between atoms: C_2  and  N_3 
REMARK       I    between atoms: N_3  and  C_4 
REMARK    2  A    between atoms: C_4  and  C_5 
REMARK    3  A    between atoms: C_22  and  C_23 
REMARK       I    between atoms: C_23  and  N_24 
ROOT
HETATM    1  C   UNL     1       8.114  31.129  60.408  1.00  0.00     0.109 A 
HETATM    2  C   UNL     1       8.850  30.810  61.555  1.00  0.00     0.136 A 
HETATM    3  F   UNL     1       9.818  29.883  61.516  1.00  0.00    -0.205 F 
HETATM    4  C   UNL     1       8.613  31.435  62.781  1.00  0.00     0.066 A 
HETATM    5  C   UNL     1       7.619  32.408  62.886  1.00  0.00     0.050 A 
HETATM    6  C   UNL     1       7.364  33.051  64.141  1.00  0.00     0.099 C 
HETATM    7  N   UNL     1       7.161  33.567  65.159  1.00  0.00    -0.191 NA
HETATM    8  C   UNL     1       6.873  32.744  61.756  1.00  0.00     0.066 A 
HETATM    9  C   UNL     1       7.123  32.110  60.536  1.00  0.00     0.136 A 
HETATM   10  F   UNL     1       6.360  32.480  59.499  1.00  0.00    -0.205 F 
ENDROOT
BRANCH   1  11
HETATM   11  C   UNL     1       8.343  30.464  59.088  1.00  0.00     0.262 C 
HETATM   12  N   UNL     1       7.434  29.483  58.724  1.00  0.00    -0.323 N 
HETATM   13  H   UNL     1       6.704  29.251  59.389  1.00  0.00     0.169 HD
HETATM   14  O   UNL     1       9.302  30.816  58.412  1.00  0.00    -0.267 OA
BRANCH  12  15
HETATM   15  C   UNL     1       7.392  28.745  57.520  1.00  0.00     0.036 A 
HETATM   16  C   UNL     1       7.074  29.292  56.276  1.00  0.00     0.032 A 
HETATM   17  C   UNL     1       7.031  28.507  55.113  1.00  0.00     0.034 A 
HETATM   18  C   UNL     1       7.321  27.148  55.247  1.00  0.00     0.063 A 
HETATM   19  C   UNL     1       7.644  26.563  56.463  1.00  0.00     0.030 A 
HETATM   20  N   UNL     1       7.363  26.133  54.333  1.00  0.00    -0.277 N 
HETATM   21  C   UNL     1       7.680  27.372  57.617  1.00  0.00     0.046 A 
HETATM   22  C   UNL     1       7.867  25.186  56.164  1.00  0.00     0.156 A 
HETATM   23  N   UNL     1       7.689  24.934  54.847  1.00  0.00    -0.168 NA
HETATM   24  H   UNL     1       7.178  26.196  53.338  1.00  0.00     0.189 HD
BRANCH  22  25
HETATM   25  C   UNL     1       8.240  24.123  57.106  1.00  0.00     0.270 C 
HETATM   26  N   UNL     1       8.755  24.578  58.288  1.00  0.00    -0.365 N 
HETATM   27  H   UNL     1       8.839  25.578  58.427  1.00  0.00     0.159 HD
HETATM   28  H   UNL     1       9.038  23.924  59.000  1.00  0.00     0.159 HD
HETATM   29  O   UNL     1       8.113  22.923  56.884  1.00  0.00    -0.266 OA
ENDBRANCH  22  25
ENDBRANCH  12  15
ENDBRANCH   1  11
TORSDOF 3
ENDMDL
MODEL 10
REMARK VINA RESULT:      -8.9      5.098      9.237
REMARK  3 active torsions:
REMARK  status: ('A' for Active; 'I' for Inactive)
REMARK    1  A    between atoms: C_2  and  N_3 
REMARK       I    between atoms: N_3  and  C_4 
REMARK    2  A    between atoms: C_4  and  C_5 
REMARK    3  A    between atoms: C_22  and  C_23 
REMARK       I    between atoms: C_23  and  N_24 
ROOT
HETATM    1  C   UNL     1       7.392  24.267  55.821  1.00  0.00     0.109 A 
HETATM    2  C   UNL     1       8.132  23.188  56.315  1.00  0.00     0.136 A 
HETATM    3  F   UNL     1       8.593  23.190  57.575  1.00  0.00    -0.205 F 
HETATM    4  C   UNL     1       8.424  22.071  55.529  1.00  0.00     0.066 A 
HETATM    5  C   UNL     1       7.973  22.010  54.211  1.00  0.00     0.050 A 
HETATM    6  C   UNL     1       8.272  20.871  53.395  1.00  0.00     0.099 C 
HETATM    7  N   UNL     1       8.518  19.947  52.738  1.00  0.00    -0.191 NA
HETATM    8  C   UNL     1       7.231  23.073  53.696  1.00  0.00     0.066 A 
HETATM    9  C   UNL     1       6.947  24.184  54.495  1.00  0.00     0.136 A 
HETATM   10  F   UNL     1       6.237  25.168  53.928  1.00  0.00    -0.205 F 
ENDROOT
BRANCH   1  11
HETATM   11  C   UNL     1       7.077  25.478  56.640  1.00  0.00     0.262 C 
HETATM   12  N   UNL     1       7.769  26.636  56.322  1.00  0.00    -0.323 N 
HETATM   13  H   UNL     1       8.468  26.578  55.589  1.00  0.00     0.169 HD
HETATM   14  O   UNL     1       6.241  25.384  57.531  1.00  0.00    -0.267 OA
BRANCH  12  15
HETATM   15  C   UNL     1       7.626  27.917  56.901  1.00  0.00     0.036 A 
HETATM   16  C   UNL     1       8.613  28.550  57.658  1.00  0.00     0.032 A 
HETATM   17  C   UNL     1       8.410  29.819  58.224  1.00  0.00     0.034 A 
HETATM   18  C   UNL     1       7.176  30.430  57.998  1.00  0.00     0.063 A 
HETATM   19  C   UNL     1       6.168  29.839  57.250  1.00  0.00     0.030 A 
HETATM   20  N   UNL     1       6.670  31.634  58.401  1.00  0.00    -0.277 N 
HETATM   21  C   UNL     1       6.395  28.564  56.693  1.00  0.00     0.046 A 
HETATM   22  C   UNL     1       5.096  30.780  57.264  1.00  0.00     0.156 A 
HETATM   23  N   UNL     1       5.419  31.882  57.978  1.00  0.00    -0.168 NA
HETATM   24  H   UNL     1       7.133  32.334  58.970  1.00  0.00     0.189 HD
BRANCH  22  25
HETATM   25  C   UNL     1       3.786  30.642  56.614  1.00  0.00     0.270 C 
HETATM   26  N   UNL     1       2.871  29.933  57.344  1.00  0.00    -0.365 N 
HETATM   27  H   UNL     1       3.150  29.569  58.247  1.00  0.00     0.159 HD
HETATM   28  H   UNL     1       1.942  29.788  56.982  1.00  0.00     0.159 HD
HETATM   29  O   UNL     1       3.503  31.109  55.515  1.00  0.00    -0.266 OA
ENDBRANCH  22  25
ENDBRANCH  12  15
ENDBRANCH   1  11
TORSDOF 3
ENDMDL
