MODEL 1
REMARK VINA RESULT:      -8.9      0.000      0.000
REMARK  4 active torsions:
REMARK  status: ('A' for Active; 'I' for Inactive)
REMARK       I    between atoms: C_2  and  N_3 
REMARK    1  A    between atoms: N_3  and  C_4 
REMARK    2  A    between atoms: C_4  and  C_5 
REMARK       I    between atoms: C_5  and  N_6 
REMARK    3  A    between atoms: N_6  and  C_7 
REMARK    4  A    between atoms: C_20  and  C_21 
ROOT
HETATM    1  C   UNL     1       8.244  28.938  57.564  1.00  0.00     0.272 C 
HETATM    2  N   UNL     1       7.837  27.655  57.842  1.00  0.00    -0.322 N 
HETATM    3  O   UNL     1       8.982  29.250  56.631  1.00  0.00    -0.266 OA
HETATM    4  H   UNL     1       7.698  27.448  58.829  1.00  0.00     0.169 HD
ENDROOT
BRANCH   1   5
HETATM    5  C   UNL     1       7.703  30.002  58.497  1.00  0.00     0.104 C 
HETATM    6  C   UNL     1       6.503  30.545  58.195  1.00  0.00     0.046 C 
BRANCH   5   7
HETATM    7  N   UNL     1       8.359  30.472  59.626  1.00  0.00    -0.323 N 
HETATM    8  C   UNL     1       9.173  31.574  59.767  1.00  0.00     0.218 C 
HETATM    9  C   UNL     1       9.597  31.834  61.191  1.00  0.00     0.117 C 
HETATM   10  O   UNL     1       9.594  32.271  58.851  1.00  0.00    -0.274 OA
HETATM   11  H   UNL     1       8.221  29.917  60.462  1.00  0.00     0.169 HD
ENDBRANCH   5   7
BRANCH   6  12
HETATM   12  C   UNL     1       5.623  30.154  57.085  1.00  0.00    -0.034 A 
HETATM   13  C   UNL     1       4.932  28.938  57.131  1.00  0.00     0.011 A 
HETATM   14  C   UNL     1       4.112  28.556  56.066  1.00  0.00     0.001 A 
HETATM   15  C   UNL     1       3.984  29.385  54.952  1.00  0.00     0.000 A 
HETATM   16  C   UNL     1       4.670  30.597  54.902  1.00  0.00     0.001 A 
HETATM   17  C   UNL     1       5.485  30.984  55.968  1.00  0.00     0.011 A 
ENDBRANCH   6  12
ENDBRANCH   1   5
BRANCH   2  18
HETATM   18  C   UNL     1       7.920  26.564  56.959  1.00  0.00     0.035 A 
HETATM   19  C   UNL     1       7.434  26.629  55.649  1.00  0.00     0.042 A 
HETATM   20  C   UNL     1       7.481  25.503  54.819  1.00  0.00    -0.021 A 
HETATM   21  C   UNL     1       6.903  25.564  53.496  1.00  0.00     0.010 A 
HETATM   22  C   UNL     1       8.042  24.314  55.298  1.00  0.00     0.012 A 
HETATM   23  C   UNL     1       5.589  25.872  53.086  1.00  0.00     0.152 A 
HETATM   24  C   UNL     1       7.587  25.346  52.322  1.00  0.00     0.123 A 
HETATM   25  N   UNL     1       5.446  25.835  51.757  1.00  0.00    -0.187 NA
HETATM   26  N   UNL     1       6.681  25.531  51.320  1.00  0.00    -0.289 N 
HETATM   27  H   UNL     1       6.832  25.471  50.318  1.00  0.00     0.188 HD
HETATM   28  C   UNL     1       8.522  24.244  56.606  1.00  0.00     0.003 A 
HETATM   29  C   UNL     1       8.445  25.362  57.440  1.00  0.00     0.029 A 
ENDBRANCH   2  18
TORSDOF 4
ENDMDL
MODEL 2
REMARK VINA RESULT:      -8.7      3.933      6.804
REMARK  4 active torsions:
REMARK  status: ('A' for Active; 'I' for Inactive)
REMARK       I    between atoms: C_2  and  N_3 
REMARK    1  A    between atoms: N_3  and  C_4 
REMARK    2  A    between atoms: C_4  and  C_5 
REMARK       I    between atoms: C_5  and  N_6 
REMARK    3  A    between atoms: N_6  and  C_7 
REMARK    4  A    between atoms: C_20  and  C_21 
ROOT
HETATM    1  C   UNL     1       7.187  24.450  53.450  1.00  0.00     0.272 C 
HETATM    2  N   UNL     1       5.914  24.899  53.194  1.00  0.00    -0.322 N 
HETATM    3  O   UNL     1       8.193  24.814  52.843  1.00  0.00    -0.266 OA
HETATM    4  H   UNL     1       5.173  24.219  53.350  1.00  0.00     0.169 HD
ENDROOT
BRANCH   1   5
HETATM    5  C   UNL     1       7.300  23.448  54.582  1.00  0.00     0.104 C 
HETATM    6  C   UNL     1       7.111  23.904  55.840  1.00  0.00     0.046 C 
BRANCH   5   7
HETATM    7  N   UNL     1       7.603  22.104  54.420  1.00  0.00    -0.323 N 
HETATM    8  C   UNL     1       8.795  21.447  54.628  1.00  0.00     0.218 C 
HETATM    9  C   UNL     1       8.695  19.949  54.470  1.00  0.00     0.117 C 
HETATM   10  O   UNL     1       9.874  21.982  54.856  1.00  0.00    -0.274 OA
HETATM   11  H   UNL     1       6.834  21.529  54.096  1.00  0.00     0.169 HD
ENDBRANCH   5   7
BRANCH   6  12
HETATM   12  C   UNL     1       6.730  25.270  56.225  1.00  0.00    -0.034 A 
HETATM   13  C   UNL     1       5.391  25.576  56.496  1.00  0.00     0.011 A 
HETATM   14  C   UNL     1       5.025  26.878  56.841  1.00  0.00     0.001 A 
HETATM   15  C   UNL     1       5.993  27.880  56.912  1.00  0.00     0.000 A 
HETATM   16  C   UNL     1       7.327  27.581  56.643  1.00  0.00     0.001 A 
HETATM   17  C   UNL     1       7.697  26.277  56.304  1.00  0.00     0.011 A 
ENDBRANCH   6  12
ENDBRANCH   1   5
BRANCH   2  18
HETATM   18  C   UNL     1       5.590  26.046  52.447  1.00  0.00     0.035 A 
HETATM   19  C   UNL     1       4.988  25.968  51.187  1.00  0.00     0.042 A 
HETATM   20  C   UNL     1       4.735  27.130  50.449  1.00  0.00    -0.021 A 
HETATM   21  C   UNL     1       4.185  27.026  49.117  1.00  0.00     0.010 A 
HETATM   22  C   UNL     1       5.064  28.378  50.989  1.00  0.00     0.012 A 
HETATM   23  C   UNL     1       4.670  26.349  47.977  1.00  0.00     0.152 A 
HETATM   24  C   UNL     1       2.996  27.583  48.704  1.00  0.00     0.123 A 
HETATM   25  N   UNL     1       3.861  26.482  46.921  1.00  0.00    -0.187 NA
HETATM   26  N   UNL     1       2.844  27.220  47.399  1.00  0.00    -0.289 N 
HETATM   27  H   UNL     1       2.074  27.435  46.773  1.00  0.00     0.188 HD
HETATM   28  C   UNL     1       5.670  28.459  52.242  1.00  0.00     0.003 A 
HETATM   29  C   UNL     1       5.949  27.294  52.962  1.00  0.00     0.029 A 
ENDBRANCH   2  18
TORSDOF 4
ENDMDL
MODEL 3
REMARK VINA RESULT:      -8.7      3.354      8.233
REMARK  4 active torsions:
REMARK  status: ('A' for Active; 'I' for Inactive)
REMARK       I    between atoms: C_2  and  N_3 
REMARK    1  A    between atoms: N_3  and  C_4 
REMARK    2  A    between atoms: C_4  and  C_5 
REMARK       I    between atoms: C_5  and  N_6 
REMARK    3  A    between atoms: N_6  and  C_7 
REMARK    4  A    between atoms: C_20  and  C_21 
ROOT
HETATM    1  C   UNL     1       4.817  28.024  51.292  1.00  0.00     0.272 C 
HETATM    2  N   UNL     1       4.052  28.197  52.420  1.00  0.00    -0.322 N 
HETATM    3  O   UNL     1       5.765  28.739  50.972  1.00  0.00    -0.266 OA
HETATM    4  H   UNL     1       3.074  27.932  52.327  1.00  0.00     0.169 HD
ENDROOT
BRANCH   1   5
HETATM    5  C   UNL     1       4.426  26.844  50.424  1.00  0.00     0.104 C 
HETATM    6  C   UNL     1       4.926  25.633  50.756  1.00  0.00     0.046 C 
BRANCH   5   7
HETATM    7  N   UNL     1       3.608  26.921  49.306  1.00  0.00    -0.323 N 
HETATM    8  C   UNL     1       3.912  26.678  47.985  1.00  0.00     0.218 C 
HETATM    9  C   UNL     1       2.715  26.740  47.068  1.00  0.00     0.117 C 
HETATM   10  O   UNL     1       5.037  26.490  47.535  1.00  0.00    -0.274 OA
HETATM   11  H   UNL     1       2.654  27.203  49.493  1.00  0.00     0.169 HD
ENDBRANCH   5   7
BRANCH   6  12
HETATM   12  C   UNL     1       5.759  25.324  51.926  1.00  0.00    -0.034 A 
HETATM   13  C   UNL     1       7.154  25.306  51.810  1.00  0.00     0.011 A 
HETATM   14  C   UNL     1       7.946  24.991  52.917  1.00  0.00     0.001 A 
HETATM   15  C   UNL     1       7.348  24.690  54.140  1.00  0.00     0.000 A 
HETATM   16  C   UNL     1       5.960  24.707  54.261  1.00  0.00     0.001 A 
HETATM   17  C   UNL     1       5.166  25.028  53.158  1.00  0.00     0.011 A 
ENDBRANCH   6  12
ENDBRANCH   1   5
BRANCH   2  18
HETATM   18  C   UNL     1       4.405  28.986  53.530  1.00  0.00     0.035 A 
HETATM   19  C   UNL     1       5.410  28.604  54.424  1.00  0.00     0.042 A 
HETATM   20  C   UNL     1       5.692  29.387  55.550  1.00  0.00    -0.021 A 
HETATM   21  C   UNL     1       6.679  28.938  56.505  1.00  0.00     0.010 A 
HETATM   22  C   UNL     1       4.979  30.571  55.765  1.00  0.00     0.012 A 
HETATM   23  C   UNL     1       6.748  27.745  57.256  1.00  0.00     0.152 A 
HETATM   24  C   UNL     1       7.817  29.629  56.853  1.00  0.00     0.123 A 
HETATM   25  N   UNL     1       7.835  27.692  58.033  1.00  0.00    -0.187 NA
HETATM   26  N   UNL     1       8.475  28.841  57.751  1.00  0.00    -0.289 N 
HETATM   27  H   UNL     1       9.362  29.019  58.210  1.00  0.00     0.188 HD
HETATM   28  C   UNL     1       3.972  30.951  54.878  1.00  0.00     0.003 A 
HETATM   29  C   UNL     1       3.673  30.151  53.772  1.00  0.00     0.029 A 
ENDBRANCH   2  18
TORSDOF 4
ENDMDL
MODEL 4
REMARK VINA RESULT:      -8.5      2.597      6.903
REMARK  4 active torsions:
REMARK  status: ('A' for Active; 'I' for Inactive)
REMARK       I    between atoms: C_2  and  N_3 
REMARK    1  A    between atoms: N_3  and  C_4 
REMARK    2  A    between atoms: C_4  and  C_5 
REMARK       I    between atoms: C_5  and  N_6 
REMARK    3  A    between atoms: N_6  and  C_7 
REMARK    4  A    between atoms: C_20  and  C_21 
ROOT
HETATM    1  C   UNL     1       6.524  28.011  55.611  1.00  0.00     0.272 C 
HETATM    2  N   UNL     1       7.327  29.115  55.456  1.00  0.00    -0.322 N 
HETATM    3  O   UNL     1       6.772  27.064  56.355  1.00  0.00    -0.266 OA
HETATM    4  H   UNL     1       7.319  29.531  54.527  1.00  0.00     0.169 HD
ENDROOT
BRANCH   1   5
HETATM    5  C   UNL     1       5.249  28.023  54.791  1.00  0.00     0.104 C 
HETATM    6  C   UNL     1       5.115  27.079  53.832  1.00  0.00     0.046 C 
BRANCH   5   7
HETATM    7  N   UNL     1       4.220  28.942  54.941  1.00  0.00    -0.323 N 
HETATM    8  C   UNL     1       3.970  29.808  55.982  1.00  0.00     0.218 C 
HETATM    9  C   UNL     1       2.823  30.752  55.720  1.00  0.00     0.117 C 
HETATM   10  O   UNL     1       4.549  29.811  57.063  1.00  0.00    -0.274 OA
HETATM   11  H   UNL     1       3.559  28.971  54.175  1.00  0.00     0.169 HD
ENDBRANCH   5   7
BRANCH   6  12
HETATM   12  C   UNL     1       6.053  25.986  53.547  1.00  0.00    -0.034 A 
HETATM   13  C   UNL     1       5.904  24.748  54.183  1.00  0.00     0.011 A 
HETATM   14  C   UNL     1       6.808  23.715  53.928  1.00  0.00     0.001 A 
HETATM   15  C   UNL     1       7.866  23.915  53.042  1.00  0.00     0.000 A 
HETATM   16  C   UNL     1       8.019  25.146  52.407  1.00  0.00     0.001 A 
HETATM   17  C   UNL     1       7.112  26.178  52.654  1.00  0.00     0.011 A 
ENDBRANCH   6  12
ENDBRANCH   1   5
BRANCH   2  18
HETATM   18  C   UNL     1       8.364  29.496  56.327  1.00  0.00     0.035 A 
HETATM   19  C   UNL     1       8.113  30.034  57.593  1.00  0.00     0.042 A 
HETATM   20  C   UNL     1       9.171  30.456  58.406  1.00  0.00    -0.021 A 
HETATM   21  C   UNL     1       8.890  31.081  59.678  1.00  0.00     0.010 A 
HETATM   22  C   UNL     1      10.488  30.314  57.957  1.00  0.00     0.012 A 
HETATM   23  C   UNL     1       8.131  32.231  59.985  1.00  0.00     0.152 A 
HETATM   24  C   UNL     1       9.319  30.618  60.901  1.00  0.00     0.123 A 
HETATM   25  N   UNL     1       8.097  32.486  61.297  1.00  0.00    -0.187 NA
HETATM   26  N   UNL     1       8.811  31.478  61.829  1.00  0.00    -0.289 N 
HETATM   27  H   UNL     1       8.906  31.441  62.838  1.00  0.00     0.188 HD
HETATM   28  C   UNL     1      10.741  29.785  56.691  1.00  0.00     0.003 A 
HETATM   29  C   UNL     1       9.680  29.393  55.871  1.00  0.00     0.029 A 
ENDBRANCH   2  18
TORSDOF 4
ENDMDL
MODEL 5
REMARK VINA RESULT:      -8.2      3.570      6.472
REMARK  4 active torsions:
REMARK  status: ('A' for Active; 'I' for Inactive)
REMARK       I    between atoms: C_2  and  N_3 
REMARK    1  A    between atoms: N_3  and  C_4 
REMARK    2  A    between atoms: C_4  and  C_5 
REMARK       I    between atoms: C_5  and  N_6 
REMARK    3  A    between atoms: N_6  and  C_7 
REMARK    4  A    between atoms: C_20  and  C_21 
ROOT
HETATM    1  C   UNL     1       7.082  24.442  54.231  1.00  0.00     0.272 C 
HETATM    2  N   UNL     1       5.798  24.702  53.814  1.00  0.00    -0.322 N 
HETATM    3  O   UNL     1       8.097  24.771  53.620  1.00  0.00    -0.266 OA
HETATM    4  H   UNL     1       5.108  23.998  54.068  1.00  0.00     0.169 HD
ENDROOT
BRANCH   1   5
HETATM    5  C   UNL     1       7.192  23.708  55.553  1.00  0.00     0.104 C 
HETATM    6  C   UNL     1       7.083  24.440  56.684  1.00  0.00     0.046 C 
BRANCH   5   7
HETATM    7  N   UNL     1       7.415  22.345  55.685  1.00  0.00    -0.323 N 
HETATM    8  C   UNL     1       8.569  21.625  55.467  1.00  0.00     0.218 C 
HETATM    9  C   UNL     1       8.454  20.169  55.847  1.00  0.00     0.117 C 
HETATM   10  O   UNL     1       9.595  22.060  54.957  1.00  0.00    -0.274 OA
HETATM   11  H   UNL     1       6.609  21.807  55.976  1.00  0.00     0.169 HD
ENDBRANCH   5   7
BRANCH   6  12
HETATM   12  C   UNL     1       6.792  25.877  56.768  1.00  0.00    -0.034 A 
HETATM   13  C   UNL     1       5.467  26.324  56.829  1.00  0.00     0.011 A 
HETATM   14  C   UNL     1       5.189  27.691  56.887  1.00  0.00     0.001 A 
HETATM   15  C   UNL     1       6.232  28.617  56.881  1.00  0.00     0.000 A 
HETATM   16  C   UNL     1       7.553  28.178  56.820  1.00  0.00     0.001 A 
HETATM   17  C   UNL     1       7.834  26.811  56.769  1.00  0.00     0.011 A 
ENDBRANCH   6  12
ENDBRANCH   1   5
BRANCH   2  18
HETATM   18  C   UNL     1       5.437  25.634  52.825  1.00  0.00     0.035 A 
HETATM   19  C   UNL     1       5.179  26.975  53.126  1.00  0.00     0.042 A 
HETATM   20  C   UNL     1       4.763  27.859  52.123  1.00  0.00    -0.021 A 
HETATM   21  C   UNL     1       4.426  29.222  52.465  1.00  0.00     0.010 A 
HETATM   22  C   UNL     1       4.632  27.401  50.808  1.00  0.00     0.012 A 
HETATM   23  C   UNL     1       3.471  29.726  53.374  1.00  0.00     0.152 A 
HETATM   24  C   UNL     1       5.036  30.343  51.952  1.00  0.00     0.123 A 
HETATM   25  N   UNL     1       3.465  31.063  53.420  1.00  0.00    -0.187 NA
HETATM   26  N   UNL     1       4.439  31.408  52.560  1.00  0.00    -0.289 N 
HETATM   27  H   UNL     1       4.645  32.394  52.441  1.00  0.00     0.188 HD
HETATM   28  C   UNL     1       4.882  26.063  50.506  1.00  0.00     0.003 A 
HETATM   29  C   UNL     1       5.267  25.177  51.516  1.00  0.00     0.029 A 
ENDBRANCH   2  18
TORSDOF 4
ENDMDL
MODEL 6
REMARK VINA RESULT:      -8.1      3.825      7.146
REMARK  4 active torsions:
REMARK  status: ('A' for Active; 'I' for Inactive)
REMARK       I    between atoms: C_2  and  N_3 
REMARK    1  A    between atoms: N_3  and  C_4 
REMARK    2  A    between atoms: C_4  and  C_5 
REMARK       I    between atoms: C_5  and  N_6 
REMARK    3  A    between atoms: N_6  and  C_7 
REMARK    4  A    between atoms: C_20  and  C_21 
ROOT
HETATM    1  C   UNL     1       5.194  32.892  61.664  1.00  0.00     0.272 C 
HETATM    2  N   UNL     1       5.680  33.263  60.433  1.00  0.00    -0.322 N 
HETATM    3  O   UNL     1       4.369  31.999  61.850  1.00  0.00    -0.266 OA
HETATM    4  H   UNL     1       5.907  34.251  60.336  1.00  0.00     0.169 HD
ENDROOT
BRANCH   1   5
HETATM    5  C   UNL     1       5.761  33.663  62.839  1.00  0.00     0.104 C 
HETATM    6  C   UNL     1       7.022  33.371  63.226  1.00  0.00     0.046 C 
BRANCH   5   7
HETATM    7  N   UNL     1       5.072  34.631  63.557  1.00  0.00    -0.323 N 
HETATM    8  C   UNL     1       4.449  34.530  64.781  1.00  0.00     0.218 C 
HETATM    9  C   UNL     1       3.916  35.844  65.297  1.00  0.00     0.117 C 
HETATM   10  O   UNL     1       4.260  33.490  65.401  1.00  0.00    -0.274 OA
HETATM   11  H   UNL     1       5.017  35.537  63.108  1.00  0.00     0.169 HD
ENDBRANCH   5   7
BRANCH   6  12
HETATM   12  C   UNL     1       7.939  32.427  62.573  1.00  0.00    -0.034 A 
HETATM   13  C   UNL     1       8.750  32.853  61.515  1.00  0.00     0.011 A 
HETATM   14  C   UNL     1       9.606  31.950  60.880  1.00  0.00     0.001 A 
HETATM   15  C   UNL     1       9.652  30.620  61.296  1.00  0.00     0.000 A 
HETATM   16  C   UNL     1       8.847  30.192  62.350  1.00  0.00     0.001 A 
HETATM   17  C   UNL     1       7.995  31.093  62.991  1.00  0.00     0.011 A 
ENDBRANCH   6  12
ENDBRANCH   1   5
BRANCH   2  18
HETATM   18  C   UNL     1       5.575  32.505  59.253  1.00  0.00     0.035 A 
HETATM   19  C   UNL     1       6.322  31.342  59.048  1.00  0.00     0.042 A 
HETATM   20  C   UNL     1       6.234  30.648  57.835  1.00  0.00    -0.021 A 
HETATM   21  C   UNL     1       7.071  29.492  57.610  1.00  0.00     0.010 A 
HETATM   22  C   UNL     1       5.371  31.109  56.835  1.00  0.00     0.012 A 
HETATM   23  C   UNL     1       8.476  29.361  57.639  1.00  0.00     0.152 A 
HETATM   24  C   UNL     1       6.614  28.223  57.336  1.00  0.00     0.123 A 
HETATM   25  N   UNL     1       8.878  28.111  57.386  1.00  0.00    -0.187 NA
HETATM   26  N   UNL     1       7.725  27.439  57.226  1.00  0.00    -0.289 N 
HETATM   27  H   UNL     1       7.774  26.442  57.046  1.00  0.00     0.188 HD
HETATM   28  C   UNL     1       4.629  32.273  57.035  1.00  0.00     0.003 A 
HETATM   29  C   UNL     1       4.744  32.980  58.235  1.00  0.00     0.029 A 
ENDBRANCH   2  18
TORSDOF 4
ENDMDL
MODEL 7
REMARK VINA RESULT:      -8.0      3.088      7.606
REMARK  4 active torsions:
REMARK  status: ('A' for Active; 'I' for Inactive)
REMARK       I    between atoms: C_2  and  N_3 
REMARK    1  A    between atoms: N_3  and  C_4 
REMARK    2  A    between atoms: C_4  and  C_5 
REMARK       I    between atoms: C_5  and  N_6 
REMARK    3  A    between atoms: N_6  and  C_7 
REMARK    4  A    between atoms: C_20  and  C_21 
ROOT
HETATM    1  C   UNL     1       6.555  25.582  53.852  1.00  0.00     0.272 C 
HETATM    2  N   UNL     1       7.370  26.592  54.306  1.00  0.00    -0.322 N 
HETATM    3  O   UNL     1       5.672  25.043  54.517  1.00  0.00    -0.266 OA
HETATM    4  H   UNL     1       8.313  26.593  53.925  1.00  0.00     0.169 HD
ENDROOT
BRANCH   1   5
HETATM    5  C   UNL     1       6.798  25.155  52.418  1.00  0.00     0.104 C 
HETATM    6  C   UNL     1       7.473  24.002  52.217  1.00  0.00     0.046 C 
BRANCH   5   7
HETATM    7  N   UNL     1       6.395  25.872  51.300  1.00  0.00    -0.323 N 
HETATM    8  C   UNL     1       5.403  26.820  51.183  1.00  0.00     0.218 C 
HETATM    9  C   UNL     1       5.351  27.475  49.825  1.00  0.00     0.117 C 
HETATM   10  O   UNL     1       4.575  27.095  52.044  1.00  0.00    -0.274 OA
HETATM   11  H   UNL     1       6.902  25.658  50.450  1.00  0.00     0.169 HD
ENDBRANCH   5   7
BRANCH   6  12
HETATM   12  C   UNL     1       7.937  23.070  53.253  1.00  0.00    -0.034 A 
HETATM   13  C   UNL     1       7.634  21.707  53.160  1.00  0.00     0.011 A 
HETATM   14  C   UNL     1       8.057  20.825  54.156  1.00  0.00     0.001 A 
HETATM   15  C   UNL     1       8.780  21.300  55.250  1.00  0.00     0.000 A 
HETATM   16  C   UNL     1       9.084  22.656  55.348  1.00  0.00     0.001 A 
HETATM   17  C   UNL     1       8.669  23.540  54.349  1.00  0.00     0.011 A 
ENDBRANCH   6  12
ENDBRANCH   1   5
BRANCH   2  18
HETATM   18  C   UNL     1       7.133  27.377  55.449  1.00  0.00     0.035 A 
HETATM   19  C   UNL     1       6.178  28.398  55.465  1.00  0.00     0.042 A 
HETATM   20  C   UNL     1       6.014  29.197  56.602  1.00  0.00    -0.021 A 
HETATM   21  C   UNL     1       5.078  30.298  56.575  1.00  0.00     0.010 A 
HETATM   22  C   UNL     1       6.794  28.953  57.738  1.00  0.00     0.012 A 
HETATM   23  C   UNL     1       5.009  31.417  55.718  1.00  0.00     0.152 A 
HETATM   24  C   UNL     1       4.001  30.444  57.418  1.00  0.00     0.123 A 
HETATM   25  N   UNL     1       3.978  32.219  56.007  1.00  0.00    -0.187 NA
HETATM   26  N   UNL     1       3.373  31.591  57.031  1.00  0.00    -0.289 N 
HETATM   27  H   UNL     1       2.530  32.006  57.415  1.00  0.00     0.188 HD
HETATM   28  C   UNL     1       7.752  27.939  57.723  1.00  0.00     0.003 A 
HETATM   29  C   UNL     1       7.933  27.164  56.574  1.00  0.00     0.029 A 
ENDBRANCH   2  18
TORSDOF 4
ENDMDL
MODEL 8
REMARK VINA RESULT:      -8.0      1.807      2.508
REMARK  4 active torsions:
REMARK  status: ('A' for Active; 'I' for Inactive)
REMARK       I    between atoms: C_2  and  N_3 
REMARK    1  A    between atoms: N_3  and  C_4 
REMARK    2  A    between atoms: C_4  and  C_5 
REMARK       I    between atoms: C_5  and  N_6 
REMARK    3  A    between atoms: N_6  and  C_7 
REMARK    4  A    between atoms: C_20  and  C_21 
ROOT
HETATM    1  C   UNL     1       7.926  29.415  57.466  1.00  0.00     0.272 C 
HETATM    2  N   UNL     1       7.202  28.269  57.240  1.00  0.00    -0.322 N 
HETATM    3  O   UNL     1       8.917  29.755  56.822  1.00  0.00    -0.266 OA
HETATM    4  H   UNL     1       6.788  27.847  58.069  1.00  0.00     0.169 HD
ENDROOT
BRANCH   1   5
HETATM    5  C   UNL     1       7.409  30.291  58.590  1.00  0.00     0.104 C 
HETATM    6  C   UNL     1       6.222  30.909  58.404  1.00  0.00     0.046 C 
BRANCH   5   7
HETATM    7  N   UNL     1       8.076  30.519  59.786  1.00  0.00    -0.323 N 
HETATM    8  C   UNL     1       8.931  31.543  60.126  1.00  0.00     0.218 C 
HETATM    9  C   UNL     1       9.357  31.519  61.573  1.00  0.00     0.117 C 
HETATM   10  O   UNL     1       9.385  32.380  59.353  1.00  0.00    -0.274 OA
HETATM   11  H   UNL     1       7.911  29.826  60.505  1.00  0.00     0.169 HD
ENDBRANCH   5   7
BRANCH   6  12
HETATM   12  C   UNL     1       5.333  30.761  57.243  1.00  0.00    -0.034 A 
HETATM   13  C   UNL     1       4.376  29.740  57.217  1.00  0.00     0.011 A 
HETATM   14  C   UNL     1       3.546  29.585  56.105  1.00  0.00     0.001 A 
HETATM   15  C   UNL     1       3.671  30.446  55.014  1.00  0.00     0.000 A 
HETATM   16  C   UNL     1       4.623  31.463  55.036  1.00  0.00     0.001 A 
HETATM   17  C   UNL     1       5.449  31.625  56.149  1.00  0.00     0.011 A 
ENDBRANCH   6  12
ENDBRANCH   1   5
BRANCH   2  18
HETATM   18  C   UNL     1       7.267  27.481  56.077  1.00  0.00     0.035 A 
HETATM   19  C   UNL     1       7.523  26.107  56.123  1.00  0.00     0.042 A 
HETATM   20  C   UNL     1       7.639  25.367  54.940  1.00  0.00    -0.021 A 
HETATM   21  C   UNL     1       7.981  23.965  55.003  1.00  0.00     0.010 A 
HETATM   22  C   UNL     1       7.471  26.006  53.706  1.00  0.00     0.012 A 
HETATM   23  C   UNL     1       9.100  23.322  55.573  1.00  0.00     0.152 A 
HETATM   24  C   UNL     1       7.208  22.938  54.511  1.00  0.00     0.123 A 
HETATM   25  N   UNL     1       9.050  21.993  55.436  1.00  0.00    -0.187 NA
HETATM   26  N   UNL     1       7.881  21.788  54.805  1.00  0.00    -0.289 N 
HETATM   27  H   UNL     1       7.604  20.832  54.609  1.00  0.00     0.188 HD
HETATM   28  C   UNL     1       7.222  27.377  53.657  1.00  0.00     0.003 A 
HETATM   29  C   UNL     1       7.138  28.116  54.840  1.00  0.00     0.029 A 
ENDBRANCH   2  18
TORSDOF 4
ENDMDL
MODEL 9
REMARK VINA RESULT:      -7.8      3.983      7.136
REMARK  4 active torsions:
REMARK  status: ('A' for Active; 'I' for Inactive)
REMARK       I    between atoms: C_2  and  N_3 
REMARK    1  A    between atoms: N_3  and  C_4 
REMARK    2  A    between atoms: C_4  and  C_5 
REMARK       I    between atoms: C_5  and  N_6 
REMARK    3  A    between atoms: N_6  and  C_7 
REMARK    4  A    between atoms: C_20  and  C_21 
ROOT
HETATM    1  C   UNL     1       4.334  28.987  51.860  1.00  0.00     0.272 C 
HETATM    2  N   UNL     1       3.878  27.922  52.599  1.00  0.00    -0.322 N 
HETATM    3  O   UNL     1       5.519  29.288  51.724  1.00  0.00    -0.266 OA
HETATM    4  H   UNL     1       2.976  28.061  53.050  1.00  0.00     0.169 HD
ENDROOT
BRANCH   1   5
HETATM    5  C   UNL     1       3.256  29.803  51.174  1.00  0.00     0.104 C 
HETATM    6  C   UNL     1       3.024  29.556  49.866  1.00  0.00     0.046 C 
BRANCH   5   7
HETATM    7  N   UNL     1       2.506  30.797  51.788  1.00  0.00    -0.323 N 
HETATM    8  C   UNL     1       2.889  32.058  52.186  1.00  0.00     0.218 C 
HETATM    9  C   UNL     1       1.748  32.901  52.700  1.00  0.00     0.117 C 
HETATM   10  O   UNL     1       4.039  32.482  52.203  1.00  0.00    -0.274 OA
HETATM   11  H   UNL     1       1.542  30.550  51.972  1.00  0.00     0.169 HD
ENDBRANCH   5   7
BRANCH   6  12
HETATM   12  C   UNL     1       3.663  28.517  49.048  1.00  0.00    -0.034 A 
HETATM   13  C   UNL     1       3.182  27.203  49.079  1.00  0.00     0.011 A 
HETATM   14  C   UNL     1       3.802  26.210  48.318  1.00  0.00     0.001 A 
HETATM   15  C   UNL     1       4.906  26.524  47.526  1.00  0.00     0.000 A 
HETATM   16  C   UNL     1       5.389  27.831  47.492  1.00  0.00     0.001 A 
HETATM   17  C   UNL     1       4.767  28.827  48.246  1.00  0.00     0.011 A 
ENDBRANCH   6  12
ENDBRANCH   1   5
BRANCH   2  18
HETATM   18  C   UNL     1       4.663  26.842  53.042  1.00  0.00     0.035 A 
HETATM   19  C   UNL     1       5.280  26.837  54.297  1.00  0.00     0.042 A 
HETATM   20  C   UNL     1       6.103  25.771  54.678  1.00  0.00    -0.021 A 
HETATM   21  C   UNL     1       6.795  25.818  55.946  1.00  0.00     0.010 A 
HETATM   22  C   UNL     1       6.285  24.692  53.806  1.00  0.00     0.012 A 
HETATM   23  C   UNL     1       7.707  26.768  56.454  1.00  0.00     0.152 A 
HETATM   24  C   UNL     1       6.655  24.899  56.960  1.00  0.00     0.123 A 
HETATM   25  N   UNL     1       8.126  26.464  57.687  1.00  0.00    -0.187 NA
HETATM   26  N   UNL     1       7.455  25.335  57.975  1.00  0.00    -0.289 N 
HETATM   27  H   UNL     1       7.592  24.918  58.890  1.00  0.00     0.188 HD
HETATM   28  C   UNL     1       5.676  24.697  52.552  1.00  0.00     0.003 A 
HETATM   29  C   UNL     1       4.881  25.778  52.163  1.00  0.00     0.029 A 
ENDBRANCH   2  18
TORSDOF 4
ENDMDL
MODEL 10
REMARK VINA RESULT:      -7.8      2.835      8.065
REMARK  4 active torsions:
REMARK  status: ('A' for Active; 'I' for Inactive)
REMARK       I    between atoms: C_2  and  N_3 
REMARK    1  A    between atoms: N_3  and  C_4 
REMARK    2  A    between atoms: C_4  and  C_5 
REMARK       I    between atoms: C_5  and  N_6 
REMARK    3  A    between atoms: N_6  and  C_7 
REMARK    4  A    between atoms: C_20  and  C_21 
ROOT
HETATM    1  C   UNL     1       5.809  26.294  53.175  1.00  0.00     0.272 C 
HETATM    2  N   UNL     1       6.437  27.354  53.785  1.00  0.00    -0.322 N 
HETATM    3  O   UNL     1       4.858  25.676  53.650  1.00  0.00    -0.266 OA
HETATM    4  H   UNL     1       7.434  27.434  53.597  1.00  0.00     0.169 HD
ENDROOT
BRANCH   1   5
HETATM    5  C   UNL     1       6.362  25.915  51.815  1.00  0.00     0.104 C 
HETATM    6  C   UNL     1       7.230  24.881  51.761  1.00  0.00     0.046 C 
BRANCH   5   7
HETATM    7  N   UNL     1       6.056  26.565  50.628  1.00  0.00    -0.323 N 
HETATM    8  C   UNL     1       4.968  26.402  49.799  1.00  0.00     0.218 C 
HETATM    9  C   UNL     1       4.922  27.391  48.661  1.00  0.00     0.117 C 
HETATM   10  O   UNL     1       4.127  25.515  49.893  1.00  0.00    -0.274 OA
HETATM   11  H   UNL     1       6.737  27.253  50.330  1.00  0.00     0.169 HD
ENDBRANCH   5   7
BRANCH   6  12
HETATM   12  C   UNL     1       7.642  24.028  52.884  1.00  0.00    -0.034 A 
HETATM   13  C   UNL     1       7.553  22.636  52.779  1.00  0.00     0.011 A 
HETATM   14  C   UNL     1       7.924  21.825  53.854  1.00  0.00     0.001 A 
HETATM   15  C   UNL     1       8.381  22.402  55.038  1.00  0.00     0.000 A 
HETATM   16  C   UNL     1       8.472  23.788  55.148  1.00  0.00     0.001 A 
HETATM   17  C   UNL     1       8.108  24.601  54.072  1.00  0.00     0.011 A 
ENDBRANCH   6  12
ENDBRANCH   1   5
BRANCH   2  18
HETATM   18  C   UNL     1       5.920  28.096  54.862  1.00  0.00     0.035 A 
HETATM   19  C   UNL     1       6.747  28.707  55.809  1.00  0.00     0.042 A 
HETATM   20  C   UNL     1       6.194  29.388  56.900  1.00  0.00    -0.021 A 
HETATM   21  C   UNL     1       7.062  29.945  57.912  1.00  0.00     0.010 A 
HETATM   22  C   UNL     1       4.803  29.478  57.026  1.00  0.00     0.012 A 
HETATM   23  C   UNL     1       8.031  29.324  58.728  1.00  0.00     0.152 A 
HETATM   24  C   UNL     1       7.121  31.275  58.260  1.00  0.00     0.123 A 
HETATM   25  N   UNL     1       8.643  30.189  59.543  1.00  0.00    -0.187 NA
HETATM   26  N   UNL     1       8.084  31.369  59.222  1.00  0.00    -0.289 N 
HETATM   27  H   UNL     1       8.413  32.200  59.701  1.00  0.00     0.188 HD
HETATM   28  C   UNL     1       3.975  28.864  56.086  1.00  0.00     0.003 A 
HETATM   29  C   UNL     1       4.533  28.160  55.015  1.00  0.00     0.029 A 
ENDBRANCH   2  18
TORSDOF 4
ENDMDL
