MODEL 1
REMARK VINA RESULT:     -11.1      0.000      0.000
REMARK  3 active torsions:
REMARK  status: ('A' for Active; 'I' for Inactive)
REMARK    1  A    between atoms: C_3  and  N_4 
REMARK       I    between atoms: N_4  and  C_5 
REMARK    2  A    between atoms: C_5  and  C_6 
REMARK    3  A    between atoms: N_20  and  C_21 
ROOT
HETATM    1  N   UNL     1       8.489  27.732  56.858  1.00  0.00    -0.305 N 
HETATM    2  C   UNL     1       8.070  26.507  57.337  1.00  0.00     0.257 C 
HETATM    3  O   UNL     1       7.761  26.207  58.483  1.00  0.00    -0.267 OA
HETATM    4  H   UNL     1       8.586  27.862  55.865  1.00  0.00     0.170 HD
ENDROOT
BRANCH   2   5
HETATM    5  C   UNL     1       7.942  25.449  56.293  1.00  0.00     0.034 A 
HETATM    6  C   UNL     1       8.385  24.156  56.602  1.00  0.00     0.049 A 
HETATM    7  C   UNL     1       8.270  23.142  55.653  1.00  0.00     0.063 A 
HETATM    8  C   UNL     1       7.724  23.413  54.394  1.00  0.00     0.062 A 
HETATM    9  N   UNL     1       8.701  21.850  55.962  1.00  0.00    -0.317 N 
HETATM   10  N   UNL     1       7.605  22.390  53.452  1.00  0.00    -0.317 N 
HETATM   11  C   UNL     1       7.304  24.702  54.072  1.00  0.00     0.033 A 
HETATM   12  C   UNL     1       8.002  21.092  53.691  1.00  0.00     0.314 A 
HETATM   13  H   UNL     1       7.213  22.565  52.536  1.00  0.00     0.169 HD
HETATM   14  O   UNL     1       7.873  20.217  52.844  1.00  0.00    -0.262 OA
HETATM   15  C   UNL     1       8.615  20.793  55.081  1.00  0.00     0.314 A 
HETATM   16  O   UNL     1       9.000  19.671  55.381  1.00  0.00    -0.262 OA
HETATM   17  C   UNL     1       7.417  25.724  55.020  1.00  0.00     0.019 A 
HETATM   18  H   UNL     1       9.108  21.640  56.864  1.00  0.00     0.169 HD
ENDBRANCH   2   5
BRANCH   1  19
HETATM   19  C   UNL     1       8.728  28.851  57.632  1.00  0.00     0.158 A 
HETATM   20  C   UNL     1       9.892  29.656  57.535  1.00  0.00     0.003 A 
HETATM   21  C   UNL     1      11.055  29.531  56.627  1.00  0.00     0.054 C 
HETATM   22  C   UNL     1       9.697  30.649  58.474  1.00  0.00     0.129 A 
HETATM   23  N   UNL     1       8.504  30.397  59.112  1.00  0.00    -0.241 N 
HETATM   24  N   UNL     1       7.898  29.319  58.558  1.00  0.00    -0.149 NA
BRANCH  23  25
HETATM   25  C   UNL     1       7.851  31.117  60.156  1.00  0.00     0.079 A 
HETATM   26  C   UNL     1       8.246  31.114  61.504  1.00  0.00     0.062 A 
HETATM   27 CL   UNL     1       9.464  30.096  62.192  1.00  0.00    -0.082 Cl
HETATM   28  C   UNL     1       7.555  31.909  62.435  1.00  0.00     0.026 A 
HETATM   29  C   UNL     1       6.469  32.693  62.048  1.00  0.00     0.002 A 
HETATM   30  C   UNL     1       6.049  32.676  60.726  1.00  0.00     0.002 A 
HETATM   31  C   UNL     1       6.726  31.891  59.791  1.00  0.00     0.033 A 
ENDBRANCH  23  25
ENDBRANCH   1  19
TORSDOF 3
ENDMDL
MODEL 2
REMARK VINA RESULT:     -11.0      4.699     10.704
REMARK  3 active torsions:
REMARK  status: ('A' for Active; 'I' for Inactive)
REMARK    1  A    between atoms: C_3  and  N_4 
REMARK       I    between atoms: N_4  and  C_5 
REMARK    2  A    between atoms: C_5  and  C_6 
REMARK    3  A    between atoms: N_20  and  C_21 
ROOT
HETATM    1  N   UNL     1       8.042  30.349  60.055  1.00  0.00    -0.305 N 
HETATM    2  C   UNL     1       7.465  31.601  60.120  1.00  0.00     0.257 C 
HETATM    3  O   UNL     1       7.086  32.309  59.196  1.00  0.00    -0.267 OA
HETATM    4  H   UNL     1       8.185  29.831  60.905  1.00  0.00     0.170 HD
ENDROOT
BRANCH   2   5
HETATM    5  C   UNL     1       7.247  32.108  61.506  1.00  0.00     0.034 A 
HETATM    6  C   UNL     1       5.957  32.517  61.867  1.00  0.00     0.049 A 
HETATM    7  C   UNL     1       5.717  32.985  63.157  1.00  0.00     0.063 A 
HETATM    8  C   UNL     1       6.760  33.057  64.087  1.00  0.00     0.062 A 
HETATM    9  N   UNL     1       4.429  33.383  63.523  1.00  0.00    -0.317 N 
HETATM   10  N   UNL     1       6.510  33.520  65.379  1.00  0.00    -0.317 N 
HETATM   11  C   UNL     1       8.051  32.675  63.726  1.00  0.00     0.033 A 
HETATM   12  C   UNL     1       5.264  33.921  65.811  1.00  0.00     0.314 A 
HETATM   13  H   UNL     1       7.250  33.580  66.066  1.00  0.00     0.169 HD
HETATM   14  O   UNL     1       5.079  34.313  66.956  1.00  0.00    -0.262 OA
HETATM   15  C   UNL     1       4.111  33.851  64.780  1.00  0.00     0.314 A 
HETATM   16  O   UNL     1       2.972  34.191  65.072  1.00  0.00    -0.262 OA
HETATM   17  C   UNL     1       8.298  32.205  62.433  1.00  0.00     0.019 A 
HETATM   18  H   UNL     1       3.667  33.347  62.860  1.00  0.00     0.169 HD
ENDBRANCH   2   5
BRANCH   1  19
HETATM   19  C   UNL     1       8.385  29.688  58.891  1.00  0.00     0.158 A 
HETATM   20  C   UNL     1       9.396  30.120  57.995  1.00  0.00     0.003 A 
HETATM   21  C   UNL     1      10.301  31.291  58.084  1.00  0.00     0.054 C 
HETATM   22  C   UNL     1       9.397  29.167  56.998  1.00  0.00     0.129 A 
HETATM   23  N   UNL     1       8.401  28.260  57.281  1.00  0.00    -0.241 N 
HETATM   24  N   UNL     1       7.817  28.565  58.465  1.00  0.00    -0.149 NA
BRANCH  23  25
HETATM   25  C   UNL     1       7.989  27.095  56.568  1.00  0.00     0.079 A 
HETATM   26  C   UNL     1       7.260  27.103  55.368  1.00  0.00     0.062 A 
HETATM   27 CL   UNL     1       6.554  28.499  54.629  1.00  0.00    -0.082 Cl
HETATM   28  C   UNL     1       6.960  25.888  54.727  1.00  0.00     0.026 A 
HETATM   29  C   UNL     1       7.359  24.668  55.270  1.00  0.00     0.002 A 
HETATM   30  C   UNL     1       8.049  24.647  56.473  1.00  0.00     0.002 A 
HETATM   31  C   UNL     1       8.355  25.847  57.120  1.00  0.00     0.033 A 
ENDBRANCH  23  25
ENDBRANCH   1  19
TORSDOF 3
ENDMDL
MODEL 3
REMARK VINA RESULT:     -10.3      1.900      2.390
REMARK  3 active torsions:
REMARK  status: ('A' for Active; 'I' for Inactive)
REMARK    1  A    between atoms: C_3  and  N_4 
REMARK       I    between atoms: N_4  and  C_5 
REMARK    2  A    between atoms: C_5  and  C_6 
REMARK    3  A    between atoms: N_20  and  C_21 
ROOT
HETATM    1  N   UNL     1       7.024  27.593  56.389  1.00  0.00    -0.305 N 
HETATM    2  C   UNL     1       6.132  26.542  56.461  1.00  0.00     0.257 C 
HETATM    3  O   UNL     1       5.052  26.503  57.036  1.00  0.00    -0.267 OA
HETATM    4  H   UNL     1       7.815  27.523  55.771  1.00  0.00     0.170 HD
ENDROOT
BRANCH   2   5
HETATM    5  C   UNL     1       6.543  25.332  55.692  1.00  0.00     0.034 A 
HETATM    6  C   UNL     1       7.275  24.340  56.358  1.00  0.00     0.049 A 
HETATM    7  C   UNL     1       7.665  23.192  55.671  1.00  0.00     0.063 A 
HETATM    8  C   UNL     1       7.338  23.033  54.320  1.00  0.00     0.062 A 
HETATM    9  N   UNL     1       8.385  22.196  56.335  1.00  0.00    -0.317 N 
HETATM   10  N   UNL     1       7.726  21.876  53.641  1.00  0.00    -0.317 N 
HETATM   11  C   UNL     1       6.632  24.027  53.645  1.00  0.00     0.033 A 
HETATM   12  C   UNL     1       8.430  20.852  54.235  1.00  0.00     0.314 A 
HETATM   13  H   UNL     1       7.499  21.742  52.665  1.00  0.00     0.169 HD
HETATM   14  O   UNL     1       8.745  19.847  53.612  1.00  0.00    -0.262 OA
HETATM   15  C   UNL     1       8.801  21.031  55.728  1.00  0.00     0.314 A 
HETATM   16  O   UNL     1       9.430  20.176  56.337  1.00  0.00    -0.262 OA
HETATM   17  C   UNL     1       6.238  25.181  54.330  1.00  0.00     0.019 A 
HETATM   18  H   UNL     1       8.639  22.301  57.308  1.00  0.00     0.169 HD
ENDBRANCH   2   5
BRANCH   1  19
HETATM   19  C   UNL     1       6.890  28.799  57.050  1.00  0.00     0.158 A 
HETATM   20  C   UNL     1       6.070  29.867  56.605  1.00  0.00     0.003 A 
HETATM   21  C   UNL     1       5.185  29.950  55.420  1.00  0.00     0.054 C 
HETATM   22  C   UNL     1       6.237  30.846  57.564  1.00  0.00     0.129 A 
HETATM   23  N   UNL     1       7.148  30.381  58.486  1.00  0.00    -0.241 N 
HETATM   24  N   UNL     1       7.507  29.110  58.185  1.00  0.00    -0.149 NA
BRANCH  23  25
HETATM   25  C   UNL     1       7.664  31.003  59.661  1.00  0.00     0.079 A 
HETATM   26  C   UNL     1       7.031  32.040  60.367  1.00  0.00     0.062 A 
HETATM   27 CL   UNL     1       5.618  32.893  59.847  1.00  0.00    -0.082 Cl
HETATM   28  C   UNL     1       7.611  32.536  61.547  1.00  0.00     0.026 A 
HETATM   29  C   UNL     1       8.818  32.028  62.026  1.00  0.00     0.002 A 
HETATM   30  C   UNL     1       9.469  31.028  61.318  1.00  0.00     0.002 A 
HETATM   31  C   UNL     1       8.904  30.525  60.144  1.00  0.00     0.033 A 
ENDBRANCH  23  25
ENDBRANCH   1  19
TORSDOF 3
ENDMDL
MODEL 4
REMARK VINA RESULT:      -9.9      4.423     10.579
REMARK  3 active torsions:
REMARK  status: ('A' for Active; 'I' for Inactive)
REMARK    1  A    between atoms: C_3  and  N_4 
REMARK       I    between atoms: N_4  and  C_5 
REMARK    2  A    between atoms: C_5  and  C_6 
REMARK    3  A    between atoms: N_20  and  C_21 
ROOT
HETATM    1  N   UNL     1       7.729  30.793  59.437  1.00  0.00    -0.305 N 
HETATM    2  C   UNL     1       8.314  30.778  60.686  1.00  0.00     0.257 C 
HETATM    3  O   UNL     1       9.223  30.062  61.089  1.00  0.00    -0.267 OA
HETATM    4  H   UNL     1       7.079  31.526  59.209  1.00  0.00     0.170 HD
ENDROOT
BRANCH   2   5
HETATM    5  C   UNL     1       7.784  31.807  61.627  1.00  0.00     0.034 A 
HETATM    6  C   UNL     1       6.772  32.662  61.173  1.00  0.00     0.049 A 
HETATM    7  C   UNL     1       6.247  33.628  62.030  1.00  0.00     0.063 A 
HETATM    8  C   UNL     1       6.735  33.752  63.335  1.00  0.00     0.062 A 
HETATM    9  N   UNL     1       5.230  34.474  61.583  1.00  0.00    -0.317 N 
HETATM   10  N   UNL     1       6.199  34.716  64.190  1.00  0.00    -0.317 N 
HETATM   11  C   UNL     1       7.759  32.920  63.786  1.00  0.00     0.033 A 
HETATM   12  C   UNL     1       5.190  35.578  63.819  1.00  0.00     0.314 A 
HETATM   13  H   UNL     1       6.537  34.821  65.137  1.00  0.00     0.169 HD
HETATM   14  O   UNL     1       4.736  36.405  64.599  1.00  0.00    -0.262 OA
HETATM   15  C   UNL     1       4.655  35.448  62.372  1.00  0.00     0.314 A 
HETATM   16  O   UNL     1       3.764  36.174  61.952  1.00  0.00    -0.262 OA
HETATM   17  C   UNL     1       8.290  31.950  62.930  1.00  0.00     0.019 A 
HETATM   18  H   UNL     1       4.874  34.404  60.639  1.00  0.00     0.169 HD
ENDBRANCH   2   5
BRANCH   1  19
HETATM   19  C   UNL     1       8.015  29.912  58.411  1.00  0.00     0.158 A 
HETATM   20  C   UNL     1       9.220  29.919  57.664  1.00  0.00     0.003 A 
HETATM   21  C   UNL     1      10.411  30.791  57.799  1.00  0.00     0.054 C 
HETATM   22  C   UNL     1       9.073  28.878  56.770  1.00  0.00     0.129 A 
HETATM   23  N   UNL     1       7.823  28.333  56.962  1.00  0.00    -0.241 N 
HETATM   24  N   UNL     1       7.202  28.946  57.998  1.00  0.00    -0.149 NA
BRANCH  23  25
HETATM   25  C   UNL     1       7.184  27.244  56.297  1.00  0.00     0.079 A 
HETATM   26  C   UNL     1       7.329  25.892  56.648  1.00  0.00     0.062 A 
HETATM   27 CL   UNL     1       8.447  25.269  57.811  1.00  0.00    -0.082 Cl
HETATM   28  C   UNL     1       6.602  24.910  55.952  1.00  0.00     0.026 A 
HETATM   29  C   UNL     1       5.750  25.252  54.904  1.00  0.00     0.002 A 
HETATM   30  C   UNL     1       5.627  26.581  54.526  1.00  0.00     0.002 A 
HETATM   31  C   UNL     1       6.342  27.567  55.209  1.00  0.00     0.033 A 
ENDBRANCH  23  25
ENDBRANCH   1  19
TORSDOF 3
ENDMDL
MODEL 5
REMARK VINA RESULT:      -9.7      7.306     10.445
REMARK  3 active torsions:
REMARK  status: ('A' for Active; 'I' for Inactive)
REMARK    1  A    between atoms: C_3  and  N_4 
REMARK       I    between atoms: N_4  and  C_5 
REMARK    2  A    between atoms: C_5  and  C_6 
REMARK    3  A    between atoms: N_20  and  C_21 
ROOT
HETATM    1  N   UNL     1       4.456  25.636  51.177  1.00  0.00    -0.305 N 
HETATM    2  C   UNL     1       4.692  26.607  50.225  1.00  0.00     0.257 C 
HETATM    3  O   UNL     1       5.614  27.412  50.176  1.00  0.00    -0.267 OA
HETATM    4  H   UNL     1       3.727  24.961  51.017  1.00  0.00     0.170 HD
ENDROOT
BRANCH   2   5
HETATM    5  C   UNL     1       3.710  26.622  49.103  1.00  0.00     0.034 A 
HETATM    6  C   UNL     1       2.872  27.737  48.970  1.00  0.00     0.049 A 
HETATM    7  C   UNL     1       1.950  27.786  47.926  1.00  0.00     0.063 A 
HETATM    8  C   UNL     1       1.852  26.725  47.020  1.00  0.00     0.062 A 
HETATM    9  N   UNL     1       1.121  28.902  47.784  1.00  0.00    -0.317 N 
HETATM   10  N   UNL     1       0.932  26.786  45.972  1.00  0.00    -0.317 N 
HETATM   11  C   UNL     1       2.666  25.602  47.161  1.00  0.00     0.033 A 
HETATM   12  C   UNL     1       0.089  27.857  45.768  1.00  0.00     0.314 A 
HETATM   13  H   UNL     1       0.846  26.030  45.306  1.00  0.00     0.169 HD
HETATM   14  O   UNL     1      -0.699  27.882  44.832  1.00  0.00    -0.262 OA
HETATM   15  C   UNL     1       0.190  29.029  46.776  1.00  0.00     0.314 A 
HETATM   16  O   UNL     1      -0.522  30.020  46.676  1.00  0.00    -0.262 OA
HETATM   17  C   UNL     1       3.592  25.547  48.207  1.00  0.00     0.019 A 
HETATM   18  H   UNL     1       1.172  29.672  48.437  1.00  0.00     0.169 HD
ENDBRANCH   2   5
BRANCH   1  19
HETATM   19  C   UNL     1       5.195  25.452  52.330  1.00  0.00     0.158 A 
HETATM   20  C   UNL     1       5.214  26.360  53.419  1.00  0.00     0.003 A 
HETATM   21  C   UNL     1       4.478  27.632  53.603  1.00  0.00     0.054 C 
HETATM   22  C   UNL     1       6.065  25.774  54.335  1.00  0.00     0.129 A 
HETATM   23  N   UNL     1       6.550  24.613  53.776  1.00  0.00    -0.241 N 
HETATM   24  N   UNL     1       5.976  24.404  52.566  1.00  0.00    -0.149 NA
BRANCH  23  25
HETATM   25  C   UNL     1       7.458  23.648  54.305  1.00  0.00     0.079 A 
HETATM   26  C   UNL     1       7.766  23.496  55.666  1.00  0.00     0.062 A 
HETATM   27 CL   UNL     1       7.267  24.560  56.935  1.00  0.00    -0.082 Cl
HETATM   28  C   UNL     1       8.636  22.470  56.074  1.00  0.00     0.026 A 
HETATM   29  C   UNL     1       9.216  21.606  55.146  1.00  0.00     0.002 A 
HETATM   30  C   UNL     1       8.946  21.769  53.795  1.00  0.00     0.002 A 
HETATM   31  C   UNL     1       8.083  22.784  53.377  1.00  0.00     0.033 A 
ENDBRANCH  23  25
ENDBRANCH   1  19
TORSDOF 3
ENDMDL
MODEL 6
REMARK VINA RESULT:      -9.2      4.350     10.265
REMARK  3 active torsions:
REMARK  status: ('A' for Active; 'I' for Inactive)
REMARK    1  A    between atoms: C_3  and  N_4 
REMARK       I    between atoms: N_4  and  C_5 
REMARK    2  A    between atoms: C_5  and  C_6 
REMARK    3  A    between atoms: N_20  and  C_21 
ROOT
HETATM    1  N   UNL     1       7.502  30.377  58.898  1.00  0.00    -0.305 N 
HETATM    2  C   UNL     1       7.967  30.844  60.110  1.00  0.00     0.257 C 
HETATM    3  O   UNL     1       8.990  30.524  60.704  1.00  0.00    -0.267 OA
HETATM    4  H   UNL     1       6.709  30.826  58.472  1.00  0.00     0.170 HD
ENDROOT
BRANCH   2   5
HETATM    5  C   UNL     1       7.120  31.905  60.728  1.00  0.00     0.034 A 
HETATM    6  C   UNL     1       5.843  32.127  60.196  1.00  0.00     0.049 A 
HETATM    7  C   UNL     1       5.022  33.104  60.757  1.00  0.00     0.063 A 
HETATM    8  C   UNL     1       5.473  33.868  61.838  1.00  0.00     0.062 A 
HETATM    9  N   UNL     1       3.744  33.318  60.236  1.00  0.00    -0.317 N 
HETATM   10  N   UNL     1       4.641  34.839  62.399  1.00  0.00    -0.317 N 
HETATM   11  C   UNL     1       6.752  33.669  62.356  1.00  0.00     0.033 A 
HETATM   12  C   UNL     1       3.368  35.099  61.942  1.00  0.00     0.314 A 
HETATM   13  H   UNL     1       4.948  35.401  63.182  1.00  0.00     0.169 HD
HETATM   14  O   UNL     1       2.662  35.952  62.465  1.00  0.00    -0.262 OA
HETATM   15  C   UNL     1       2.871  34.260  60.739  1.00  0.00     0.314 A 
HETATM   16  O   UNL     1       1.756  34.424  60.262  1.00  0.00    -0.262 OA
HETATM   17  C   UNL     1       7.580  32.691  61.797  1.00  0.00     0.019 A 
HETATM   18  H   UNL     1       3.408  32.782  59.448  1.00  0.00     0.169 HD
ENDBRANCH   2   5
BRANCH   1  19
HETATM   19  C   UNL     1       8.083  29.366  58.156  1.00  0.00     0.158 A 
HETATM   20  C   UNL     1       9.330  29.480  57.490  1.00  0.00     0.003 A 
HETATM   21  C   UNL     1      10.277  30.619  57.444  1.00  0.00     0.054 C 
HETATM   22  C   UNL     1       9.513  28.247  56.897  1.00  0.00     0.129 A 
HETATM   23  N   UNL     1       8.402  27.481  57.168  1.00  0.00    -0.241 N 
HETATM   24  N   UNL     1       7.553  28.161  57.976  1.00  0.00    -0.149 NA
BRANCH  23  25
HETATM   25  C   UNL     1       8.094  26.142  56.786  1.00  0.00     0.079 A 
HETATM   26  C   UNL     1       7.197  25.782  55.766  1.00  0.00     0.062 A 
HETATM   27 CL   UNL     1       6.153  26.869  54.917  1.00  0.00    -0.082 Cl
HETATM   28  C   UNL     1       7.018  24.426  55.442  1.00  0.00     0.026 A 
HETATM   29  C   UNL     1       7.703  23.424  56.127  1.00  0.00     0.002 A 
HETATM   30  C   UNL     1       8.564  23.766  57.159  1.00  0.00     0.002 A 
HETATM   31  C   UNL     1       8.753  25.109  57.491  1.00  0.00     0.033 A 
ENDBRANCH  23  25
ENDBRANCH   1  19
TORSDOF 3
ENDMDL
MODEL 7
REMARK VINA RESULT:      -9.2      5.871      7.376
REMARK  3 active torsions:
REMARK  status: ('A' for Active; 'I' for Inactive)
REMARK    1  A    between atoms: C_3  and  N_4 
REMARK       I    between atoms: N_4  and  C_5 
REMARK    2  A    between atoms: C_5  and  C_6 
REMARK    3  A    between atoms: N_20  and  C_21 
ROOT
HETATM    1  N   UNL     1       5.956  26.698  52.010  1.00  0.00    -0.305 N 
HETATM    2  C   UNL     1       5.521  26.498  53.305  1.00  0.00     0.257 C 
HETATM    3  O   UNL     1       4.678  27.132  53.927  1.00  0.00    -0.267 OA
HETATM    4  H   UNL     1       6.564  26.017  51.587  1.00  0.00     0.170 HD
ENDROOT
BRANCH   2   5
HETATM    5  C   UNL     1       6.142  25.327  53.989  1.00  0.00     0.034 A 
HETATM    6  C   UNL     1       6.577  24.253  53.202  1.00  0.00     0.049 A 
HETATM    7  C   UNL     1       7.170  23.148  53.810  1.00  0.00     0.063 A 
HETATM    8  C   UNL     1       7.323  23.105  55.199  1.00  0.00     0.062 A 
HETATM    9  N   UNL     1       7.615  22.081  53.026  1.00  0.00    -0.317 N 
HETATM   10  N   UNL     1       7.926  21.998  55.799  1.00  0.00    -0.317 N 
HETATM   11  C   UNL     1       6.871  24.159  55.990  1.00  0.00     0.033 A 
HETATM   12  C   UNL     1       8.394  20.914  55.088  1.00  0.00     0.314 A 
HETATM   13  H   UNL     1       8.046  21.947  56.802  1.00  0.00     0.169 HD
HETATM   14  O   UNL     1       8.927  19.964  55.647  1.00  0.00    -0.262 OA
HETATM   15  C   UNL     1       8.217  20.957  53.550  1.00  0.00     0.314 A 
HETATM   16  O   UNL     1       8.597  20.038  52.838  1.00  0.00    -0.262 OA
HETATM   17  C   UNL     1       6.274  25.270  55.387  1.00  0.00     0.019 A 
HETATM   18  H   UNL     1       7.501  22.092  52.021  1.00  0.00     0.169 HD
ENDBRANCH   2   5
BRANCH   1  19
HETATM   19  C   UNL     1       5.566  27.738  51.189  1.00  0.00     0.158 A 
HETATM   20  C   UNL     1       4.859  27.573  49.971  1.00  0.00     0.003 A 
HETATM   21  C   UNL     1       4.366  26.334  49.324  1.00  0.00     0.054 C 
HETATM   22  C   UNL     1       4.678  28.859  49.505  1.00  0.00     0.129 A 
HETATM   23  N   UNL     1       5.296  29.717  50.387  1.00  0.00    -0.241 N 
HETATM   24  N   UNL     1       5.798  29.023  51.437  1.00  0.00    -0.149 NA
BRANCH  23  25
HETATM   25  C   UNL     1       5.403  31.139  50.363  1.00  0.00     0.079 A 
HETATM   26  C   UNL     1       4.787  32.007  51.280  1.00  0.00     0.062 A 
HETATM   27 CL   UNL     1       3.632  31.545  52.482  1.00  0.00    -0.082 Cl
HETATM   28  C   UNL     1       5.011  33.392  51.188  1.00  0.00     0.026 A 
HETATM   29  C   UNL     1       5.825  33.926  50.190  1.00  0.00     0.002 A 
HETATM   30  C   UNL     1       6.410  33.081  49.258  1.00  0.00     0.002 A 
HETATM   31  C   UNL     1       6.196  31.703  49.338  1.00  0.00     0.033 A 
ENDBRANCH  23  25
ENDBRANCH   1  19
TORSDOF 3
ENDMDL
MODEL 8
REMARK VINA RESULT:      -9.2      4.343     10.545
REMARK  3 active torsions:
REMARK  status: ('A' for Active; 'I' for Inactive)
REMARK    1  A    between atoms: C_3  and  N_4 
REMARK       I    between atoms: N_4  and  C_5 
REMARK    2  A    between atoms: C_5  and  C_6 
REMARK    3  A    between atoms: N_20  and  C_21 
ROOT
HETATM    1  N   UNL     1       6.893  30.062  58.826  1.00  0.00    -0.305 N 
HETATM    2  C   UNL     1       8.017  30.570  59.445  1.00  0.00     0.257 C 
HETATM    3  O   UNL     1       9.190  30.421  59.127  1.00  0.00    -0.267 OA
HETATM    4  H   UNL     1       5.985  30.375  59.126  1.00  0.00     0.170 HD
ENDROOT
BRANCH   2   5
HETATM    5  C   UNL     1       7.731  31.445  60.619  1.00  0.00     0.034 A 
HETATM    6  C   UNL     1       6.635  32.315  60.546  1.00  0.00     0.049 A 
HETATM    7  C   UNL     1       6.335  33.139  61.630  1.00  0.00     0.063 A 
HETATM    8  C   UNL     1       7.128  33.107  62.781  1.00  0.00     0.062 A 
HETATM    9  N   UNL     1       5.236  33.998  61.564  1.00  0.00    -0.317 N 
HETATM   10  N   UNL     1       6.815  33.929  63.865  1.00  0.00    -0.317 N 
HETATM   11  C   UNL     1       8.235  32.262  62.850  1.00  0.00     0.033 A 
HETATM   12  C   UNL     1       5.743  34.794  63.873  1.00  0.00     0.314 A 
HETATM   13  H   UNL     1       7.376  33.921  64.706  1.00  0.00     0.169 HD
HETATM   14  O   UNL     1       5.493  35.494  64.845  1.00  0.00    -0.262 OA
HETATM   15  C   UNL     1       4.870  34.837  62.594  1.00  0.00     0.314 A 
HETATM   16  O   UNL     1       3.900  35.579  62.508  1.00  0.00    -0.262 OA
HETATM   17  C   UNL     1       8.541  31.434  61.766  1.00  0.00     0.019 A 
HETATM   18  H   UNL     1       4.659  34.041  60.735  1.00  0.00     0.169 HD
ENDBRANCH   2   5
BRANCH   1  19
HETATM   19  C   UNL     1       6.898  29.193  57.752  1.00  0.00     0.158 A 
HETATM   20  C   UNL     1       6.345  29.491  56.480  1.00  0.00     0.003 A 
HETATM   21  C   UNL     1       5.693  30.732  56.000  1.00  0.00     0.054 C 
HETATM   22  C   UNL     1       6.582  28.356  55.732  1.00  0.00     0.129 A 
HETATM   23  N   UNL     1       7.195  27.434  56.549  1.00  0.00    -0.241 N 
HETATM   24  N   UNL     1       7.424  27.973  57.771  1.00  0.00    -0.149 NA
BRANCH  23  25
HETATM   25  C   UNL     1       7.644  26.109  56.265  1.00  0.00     0.079 A 
HETATM   26  C   UNL     1       7.336  25.388  55.100  1.00  0.00     0.062 A 
HETATM   27 CL   UNL     1       6.205  25.877  53.885  1.00  0.00    -0.082 Cl
HETATM   28  C   UNL     1       7.883  24.109  54.906  1.00  0.00     0.026 A 
HETATM   29  C   UNL     1       8.718  23.530  55.861  1.00  0.00     0.002 A 
HETATM   30  C   UNL     1       9.001  24.219  57.031  1.00  0.00     0.002 A 
HETATM   31  C   UNL     1       8.465  25.492  57.236  1.00  0.00     0.033 A 
ENDBRANCH  23  25
ENDBRANCH   1  19
TORSDOF 3
ENDMDL
MODEL 9
REMARK VINA RESULT:      -9.1      6.249     10.363
REMARK  3 active torsions:
REMARK  status: ('A' for Active; 'I' for Inactive)
REMARK    1  A    between atoms: C_3  and  N_4 
REMARK       I    between atoms: N_4  and  C_5 
REMARK    2  A    between atoms: C_5  and  C_6 
REMARK    3  A    between atoms: N_20  and  C_21 
ROOT
HETATM    1  N   UNL     1       5.707  33.708  64.790  1.00  0.00    -0.305 N 
HETATM    2  C   UNL     1       6.860  33.421  64.087  1.00  0.00     0.257 C 
HETATM    3  O   UNL     1       8.014  33.417  64.495  1.00  0.00    -0.267 OA
HETATM    4  H   UNL     1       4.815  33.545  64.355  1.00  0.00     0.170 HD
ENDROOT
BRANCH   2   5
HETATM    5  C   UNL     1       6.633  33.023  62.668  1.00  0.00     0.034 A 
HETATM    6  C   UNL     1       7.427  32.002  62.131  1.00  0.00     0.049 A 
HETATM    7  C   UNL     1       7.233  31.599  60.810  1.00  0.00     0.063 A 
HETATM    8  C   UNL     1       6.258  32.217  60.020  1.00  0.00     0.062 A 
HETATM    9  N   UNL     1       8.016  30.573  60.276  1.00  0.00    -0.317 N 
HETATM   10  N   UNL     1       6.066  31.802  58.702  1.00  0.00    -0.317 N 
HETATM   11  C   UNL     1       5.482  33.250  60.541  1.00  0.00     0.033 A 
HETATM   12  C   UNL     1       6.795  30.792  58.112  1.00  0.00     0.314 A 
HETATM   13  H   UNL     1       5.366  32.235  58.114  1.00  0.00     0.169 HD
HETATM   14  O   UNL     1       6.592  30.447  56.956  1.00  0.00    -0.262 OA
HETATM   15  C   UNL     1       7.881  30.114  58.984  1.00  0.00     0.314 A 
HETATM   16  O   UNL     1       8.581  29.211  58.543  1.00  0.00    -0.262 OA
HETATM   17  C   UNL     1       5.672  33.659  61.865  1.00  0.00     0.019 A 
HETATM   18  H   UNL     1       8.732  30.124  60.831  1.00  0.00     0.169 HD
ENDBRANCH   2   5
BRANCH   1  19
HETATM   19  C   UNL     1       5.659  34.143  66.101  1.00  0.00     0.158 A 
HETATM   20  C   UNL     1       4.680  35.033  66.612  1.00  0.00     0.003 A 
HETATM   21  C   UNL     1       3.522  35.658  65.930  1.00  0.00     0.054 C 
HETATM   22  C   UNL     1       5.013  35.177  67.943  1.00  0.00     0.129 A 
HETATM   23  N   UNL     1       6.156  34.445  68.172  1.00  0.00    -0.241 N 
HETATM   24  N   UNL     1       6.518  33.782  67.048  1.00  0.00    -0.149 NA
BRANCH  23  25
HETATM   25  C   UNL     1       6.906  34.264  69.373  1.00  0.00     0.079 A 
HETATM   26  C   UNL     1       6.704  33.226  70.297  1.00  0.00     0.062 A 
HETATM   27 CL   UNL     1       5.397  32.094  70.268  1.00  0.00    -0.082 Cl
HETATM   28  C   UNL     1       7.545  33.119  71.419  1.00  0.00     0.026 A 
HETATM   29  C   UNL     1       8.571  34.036  71.642  1.00  0.00     0.002 A 
HETATM   30  C   UNL     1       8.756  35.085  70.753  1.00  0.00     0.002 A 
HETATM   31  C   UNL     1       7.929  35.204  69.634  1.00  0.00     0.033 A 
ENDBRANCH  23  25
ENDBRANCH   1  19
TORSDOF 3
ENDMDL
MODEL 10
REMARK VINA RESULT:      -9.0      5.721     11.317
REMARK  3 active torsions:
REMARK  status: ('A' for Active; 'I' for Inactive)
REMARK    1  A    between atoms: C_3  and  N_4 
REMARK       I    between atoms: N_4  and  C_5 
REMARK    2  A    between atoms: C_5  and  C_6 
REMARK    3  A    between atoms: N_20  and  C_21 
ROOT
HETATM    1  N   UNL     1       6.224  31.981  59.959  1.00  0.00    -0.305 N 
HETATM    2  C   UNL     1       5.247  32.175  60.915  1.00  0.00     0.257 C 
HETATM    3  O   UNL     1       4.041  31.993  60.812  1.00  0.00    -0.267 OA
HETATM    4  H   UNL     1       7.192  32.048  60.227  1.00  0.00     0.170 HD
ENDROOT
BRANCH   2   5
HETATM    5  C   UNL     1       5.764  32.616  62.243  1.00  0.00     0.034 A 
HETATM    6  C   UNL     1       4.835  32.931  63.244  1.00  0.00     0.049 A 
HETATM    7  C   UNL     1       5.285  33.336  64.499  1.00  0.00     0.063 A 
HETATM    8  C   UNL     1       6.656  33.439  64.758  1.00  0.00     0.062 A 
HETATM    9  N   UNL     1       4.361  33.639  65.502  1.00  0.00    -0.317 N 
HETATM   10  N   UNL     1       7.097  33.838  66.021  1.00  0.00    -0.317 N 
HETATM   11  C   UNL     1       7.584  33.151  63.759  1.00  0.00     0.033 A 
HETATM   12  C   UNL     1       6.244  34.144  67.058  1.00  0.00     0.314 A 
HETATM   13  H   UNL     1       8.084  33.918  66.228  1.00  0.00     0.169 HD
HETATM   14  O   UNL     1       6.668  34.481  68.156  1.00  0.00    -0.262 OA
HETATM   15  C   UNL     1       4.726  34.040  66.770  1.00  0.00     0.314 A 
HETATM   16  O   UNL     1       3.894  34.297  67.629  1.00  0.00    -0.262 OA
HETATM   17  C   UNL     1       7.139  32.744  62.498  1.00  0.00     0.019 A 
HETATM   18  H   UNL     1       3.367  33.580  65.328  1.00  0.00     0.169 HD
ENDBRANCH   2   5
BRANCH   1  19
HETATM   19  C   UNL     1       5.995  31.619  58.646  1.00  0.00     0.158 A 
HETATM   20  C   UNL     1       5.349  32.446  57.691  1.00  0.00     0.003 A 
HETATM   21  C   UNL     1       4.820  33.822  57.836  1.00  0.00     0.054 C 
HETATM   22  C   UNL     1       5.349  31.693  56.534  1.00  0.00     0.129 A 
HETATM   23  N   UNL     1       5.920  30.475  56.825  1.00  0.00    -0.241 N 
HETATM   24  N   UNL     1       6.352  30.457  58.109  1.00  0.00    -0.149 NA
BRANCH  23  25
HETATM   25  C   UNL     1       6.154  29.346  55.985  1.00  0.00     0.079 A 
HETATM   26  C   UNL     1       7.417  28.799  55.706  1.00  0.00     0.062 A 
HETATM   27 CL   UNL     1       8.936  29.494  56.158  1.00  0.00    -0.082 Cl
HETATM   28  C   UNL     1       7.517  27.648  54.906  1.00  0.00     0.026 A 
HETATM   29  C   UNL     1       6.383  27.044  54.366  1.00  0.00     0.002 A 
HETATM   30  C   UNL     1       5.133  27.596  54.606  1.00  0.00     0.002 A 
HETATM   31  C   UNL     1       5.019  28.739  55.401  1.00  0.00     0.033 A 
ENDBRANCH  23  25
ENDBRANCH   1  19
TORSDOF 3
ENDMDL
