MODEL 1
REMARK VINA RESULT:      -8.5      0.000      0.000
REMARK  4 active torsions:
REMARK  status: ('A' for Active; 'I' for Inactive)
REMARK    1  A    between atoms: C_2  and  C_3 
REMARK    2  A    between atoms: C_3  and  N_4 
REMARK    3  A    between atoms: C_3  and  C_17 
REMARK       I    between atoms: N_4  and  C_5 
REMARK    4  A    between atoms: C_5  and  C_6 
ROOT
HETATM    1  N   UNL     1       8.052  27.939  56.723  1.00  0.00    -0.345 N 
HETATM    2  C   UNL     1       7.908  26.601  57.037  1.00  0.00     0.252 C 
HETATM    3  O   UNL     1       7.869  26.211  58.200  1.00  0.00    -0.268 OA
HETATM    4  H   UNL     1       8.355  28.134  55.775  1.00  0.00     0.163 HD
ENDROOT
BRANCH   1   5
HETATM    5  C   UNL     1       8.419  28.938  57.736  1.00  0.00     0.152 C 
BRANCH   5   6
HETATM    6  C   UNL     1       9.827  29.490  57.468  1.00  0.00     0.028 C 
HETATM    7  C   UNL     1      10.152  29.665  55.989  1.00  0.00     0.007 C 
ENDBRANCH   5   6
BRANCH   5   8
HETATM    8  C   UNL     1       7.341  30.016  57.936  1.00  0.00     0.104 A 
HETATM    9  N   UNL     1       7.159  30.785  59.022  1.00  0.00    -0.347 N 
HETATM   10  H   UNL     1       7.761  30.670  59.850  1.00  0.00     0.167 HD
HETATM   11  C   UNL     1       6.120  31.679  58.877  1.00  0.00     0.022 A 
HETATM   12  C   UNL     1       5.711  32.623  59.928  1.00  0.00     0.069 C 
HETATM   13  C   UNL     1       5.647  31.453  57.610  1.00  0.00     0.114 A 
HETATM   14  N   UNL     1       6.413  30.445  57.062  1.00  0.00    -0.352 N 
HETATM   15  H   UNL     1       6.294  30.080  56.121  1.00  0.00     0.166 HD
ENDBRANCH   5   8
ENDBRANCH   1   5
BRANCH   2  16
HETATM   16  C   UNL     1       7.822  25.636  55.904  1.00  0.00     0.033 A 
HETATM   17  C   UNL     1       8.215  24.306  56.152  1.00  0.00     0.031 A 
HETATM   18  C   UNL     1       8.155  23.373  55.102  1.00  0.00     0.001 A 
HETATM   19  C   UNL     1       7.702  23.798  53.861  1.00  0.00     0.086 A 
HETATM   20  C   UNL     1       8.457  21.993  54.950  1.00  0.00     0.046 A 
HETATM   21  O   UNL     1       7.714  22.768  52.973  1.00  0.00    -0.315 OA
HETATM   22  C   UNL     1       7.289  25.098  53.582  1.00  0.00     0.039 A 
HETATM   23  C   UNL     1       8.175  21.671  53.638  1.00  0.00     0.050 A 
HETATM   24  C   UNL     1       8.276  20.419  52.860  1.00  0.00     0.077 C 
HETATM   25  C   UNL     1       7.351  26.018  54.637  1.00  0.00     0.020 A 
ENDBRANCH   2  16
TORSDOF 4
ENDMDL
MODEL 2
REMARK VINA RESULT:      -8.3      1.861      2.705
REMARK  4 active torsions:
REMARK  status: ('A' for Active; 'I' for Inactive)
REMARK    1  A    between atoms: C_2  and  C_3 
REMARK    2  A    between atoms: C_3  and  N_4 
REMARK    3  A    between atoms: C_3  and  C_17 
REMARK       I    between atoms: N_4  and  C_5 
REMARK    4  A    between atoms: C_5  and  C_6 
ROOT
HETATM    1  N   UNL     1       7.455  27.804  56.820  1.00  0.00    -0.345 N 
HETATM    2  C   UNL     1       7.263  27.251  55.568  1.00  0.00     0.252 C 
HETATM    3  O   UNL     1       6.932  27.934  54.604  1.00  0.00    -0.268 OA
HETATM    4  H   UNL     1       7.445  27.146  57.592  1.00  0.00     0.163 HD
ENDROOT
BRANCH   1   5
HETATM    5  C   UNL     1       7.033  29.175  57.134  1.00  0.00     0.152 C 
BRANCH   5   6
HETATM    6  C   UNL     1       5.550  29.209  57.531  1.00  0.00     0.028 C 
HETATM    7  C   UNL     1       4.795  30.424  57.006  1.00  0.00     0.007 C 
ENDBRANCH   5   6
BRANCH   5   8
HETATM    8  C   UNL     1       7.972  29.882  58.126  1.00  0.00     0.104 A 
HETATM    9  N   UNL     1       7.844  29.937  59.461  1.00  0.00    -0.347 N 
HETATM   10  H   UNL     1       7.038  29.496  59.927  1.00  0.00     0.167 HD
HETATM   11  C   UNL     1       8.871  30.626  60.070  1.00  0.00     0.022 A 
HETATM   12  C   UNL     1       8.956  30.837  61.523  1.00  0.00     0.069 C 
HETATM   13  C   UNL     1       9.691  31.002  59.037  1.00  0.00     0.114 A 
HETATM   14  N   UNL     1       9.124  30.530  57.872  1.00  0.00    -0.352 N 
HETATM   15  H   UNL     1       9.526  30.650  56.946  1.00  0.00     0.166 HD
ENDBRANCH   5   8
ENDBRANCH   1   5
BRANCH   2  16
HETATM   16  C   UNL     1       7.456  25.778  55.432  1.00  0.00     0.033 A 
HETATM   17  C   UNL     1       7.574  25.257  54.128  1.00  0.00     0.031 A 
HETATM   18  C   UNL     1       7.747  23.871  53.964  1.00  0.00     0.001 A 
HETATM   19  C   UNL     1       7.802  23.070  55.096  1.00  0.00     0.086 A 
HETATM   20  C   UNL     1       7.893  22.989  52.860  1.00  0.00     0.046 A 
HETATM   21  O   UNL     1       7.968  21.766  54.748  1.00  0.00    -0.315 OA
HETATM   22  C   UNL     1       7.706  23.550  56.400  1.00  0.00     0.039 A 
HETATM   23  C   UNL     1       8.023  21.720  53.386  1.00  0.00     0.050 A 
HETATM   24  C   UNL     1       8.200  20.386  52.776  1.00  0.00     0.077 C 
HETATM   25  C   UNL     1       7.538  24.933  56.550  1.00  0.00     0.020 A 
ENDBRANCH   2  16
TORSDOF 4
ENDMDL
MODEL 3
REMARK VINA RESULT:      -8.0      5.243      7.329
REMARK  4 active torsions:
REMARK  status: ('A' for Active; 'I' for Inactive)
REMARK    1  A    between atoms: C_2  and  C_3 
REMARK    2  A    between atoms: C_3  and  N_4 
REMARK    3  A    between atoms: C_3  and  C_17 
REMARK       I    between atoms: N_4  and  C_5 
REMARK    4  A    between atoms: C_5  and  C_6 
ROOT
HETATM    1  N   UNL     1       4.972  26.461  51.450  1.00  0.00    -0.345 N 
HETATM    2  C   UNL     1       4.951  26.510  52.831  1.00  0.00     0.252 C 
HETATM    3  O   UNL     1       4.358  27.399  53.436  1.00  0.00    -0.268 OA
HETATM    4  H   UNL     1       5.700  25.881  51.046  1.00  0.00     0.163 HD
ENDROOT
BRANCH   1   5
HETATM    5  C   UNL     1       4.515  27.589  50.627  1.00  0.00     0.152 C 
BRANCH   5   6
HETATM    6  C   UNL     1       5.670  28.565  50.355  1.00  0.00     0.028 C 
HETATM    7  C   UNL     1       5.315  30.027  50.600  1.00  0.00     0.007 C 
ENDBRANCH   5   6
BRANCH   5   8
HETATM    8  C   UNL     1       3.749  27.145  49.369  1.00  0.00     0.104 A 
HETATM    9  N   UNL     1       2.505  27.501  49.013  1.00  0.00    -0.347 N 
HETATM   10  H   UNL     1       1.945  28.119  49.618  1.00  0.00     0.167 HD
HETATM   11  C   UNL     1       2.114  26.953  47.810  1.00  0.00     0.022 A 
HETATM   12  C   UNL     1       0.793  27.181  47.207  1.00  0.00     0.069 C 
HETATM   13  C   UNL     1       3.201  26.227  47.395  1.00  0.00     0.114 A 
HETATM   14  N   UNL     1       4.179  26.369  48.357  1.00  0.00    -0.352 N 
HETATM   15  H   UNL     1       5.103  25.948  48.305  1.00  0.00     0.166 HD
ENDBRANCH   5   8
ENDBRANCH   1   5
BRANCH   2  16
HETATM   16  C   UNL     1       5.695  25.449  53.567  1.00  0.00     0.033 A 
HETATM   17  C   UNL     1       6.279  24.418  52.805  1.00  0.00     0.031 A 
HETATM   18  C   UNL     1       6.980  23.396  53.470  1.00  0.00     0.001 A 
HETATM   19  C   UNL     1       7.074  23.447  54.854  1.00  0.00     0.086 A 
HETATM   20  C   UNL     1       7.678  22.222  53.079  1.00  0.00     0.046 A 
HETATM   21  O   UNL     1       7.780  22.382  55.321  1.00  0.00    -0.315 OA
HETATM   22  C   UNL     1       6.525  24.457  55.639  1.00  0.00     0.039 A 
HETATM   23  C   UNL     1       8.146  21.638  54.239  1.00  0.00     0.050 A 
HETATM   24  C   UNL     1       8.929  20.415  54.511  1.00  0.00     0.077 C 
HETATM   25  C   UNL     1       5.832  25.472  54.965  1.00  0.00     0.020 A 
ENDBRANCH   2  16
TORSDOF 4
ENDMDL
MODEL 4
REMARK VINA RESULT:      -8.0      2.078      3.190
REMARK  4 active torsions:
REMARK  status: ('A' for Active; 'I' for Inactive)
REMARK    1  A    between atoms: C_2  and  C_3 
REMARK    2  A    between atoms: C_3  and  N_4 
REMARK    3  A    between atoms: C_3  and  C_17 
REMARK       I    between atoms: N_4  and  C_5 
REMARK    4  A    between atoms: C_5  and  C_6 
ROOT
HETATM    1  N   UNL     1       6.976  29.317  58.182  1.00  0.00    -0.345 N 
HETATM    2  C   UNL     1       7.961  28.543  57.599  1.00  0.00     0.252 C 
HETATM    3  O   UNL     1       9.129  28.917  57.545  1.00  0.00    -0.268 OA
HETATM    4  H   UNL     1       6.024  29.070  57.934  1.00  0.00     0.163 HD
ENDROOT
BRANCH   1   5
HETATM    5  C   UNL     1       7.205  30.724  58.539  1.00  0.00     0.152 C 
BRANCH   5   6
HETATM    6  C   UNL     1       5.955  31.568  58.249  1.00  0.00     0.028 C 
HETATM    7  C   UNL     1       4.723  30.746  57.888  1.00  0.00     0.007 C 
ENDBRANCH   5   6
BRANCH   5   8
HETATM    8  C   UNL     1       7.776  30.900  59.956  1.00  0.00     0.104 A 
HETATM    9  N   UNL     1       7.281  31.671  60.937  1.00  0.00    -0.347 N 
HETATM   10  H   UNL     1       6.442  32.247  60.775  1.00  0.00     0.167 HD
HETATM   11  C   UNL     1       8.010  31.590  62.103  1.00  0.00     0.022 A 
HETATM   12  C   UNL     1       7.680  32.346  63.320  1.00  0.00     0.069 C 
HETATM   13  C   UNL     1       9.009  30.694  61.821  1.00  0.00     0.114 A 
HETATM   14  N   UNL     1       8.836  30.287  60.514  1.00  0.00    -0.352 N 
HETATM   15  H   UNL     1       9.427  29.611  60.039  1.00  0.00     0.166 HD
ENDBRANCH   5   8
ENDBRANCH   1   5
BRANCH   2  16
HETATM   16  C   UNL     1       7.549  27.234  57.015  1.00  0.00     0.033 A 
HETATM   17  C   UNL     1       8.413  26.138  57.206  1.00  0.00     0.031 A 
HETATM   18  C   UNL     1       8.059  24.892  56.660  1.00  0.00     0.001 A 
HETATM   19  C   UNL     1       6.865  24.788  55.959  1.00  0.00     0.086 A 
HETATM   20  C   UNL     1       8.639  23.595  56.625  1.00  0.00     0.046 A 
HETATM   21  O   UNL     1       6.690  23.519  55.503  1.00  0.00    -0.315 OA
HETATM   22  C   UNL     1       5.978  25.844  55.765  1.00  0.00     0.039 A 
HETATM   23  C   UNL     1       7.772  22.795  55.910  1.00  0.00     0.050 A 
HETATM   24  C   UNL     1       7.798  21.370  55.521  1.00  0.00     0.077 C 
HETATM   25  C   UNL     1       6.341  27.080  56.316  1.00  0.00     0.020 A 
ENDBRANCH   2  16
TORSDOF 4
ENDMDL
MODEL 5
REMARK VINA RESULT:      -7.8      2.244      3.010
REMARK  4 active torsions:
REMARK  status: ('A' for Active; 'I' for Inactive)
REMARK    1  A    between atoms: C_2  and  C_3 
REMARK    2  A    between atoms: C_3  and  N_4 
REMARK    3  A    between atoms: C_3  and  C_17 
REMARK       I    between atoms: N_4  and  C_5 
REMARK    4  A    between atoms: C_5  and  C_6 
ROOT
HETATM    1  N   UNL     1       6.031  27.708  54.741  1.00  0.00    -0.345 N 
HETATM    2  C   UNL     1       7.257  27.396  54.185  1.00  0.00     0.252 C 
HETATM    3  O   UNL     1       8.107  28.257  53.970  1.00  0.00    -0.268 OA
HETATM    4  H   UNL     1       5.307  27.008  54.619  1.00  0.00     0.163 HD
ENDROOT
BRANCH   1   5
HETATM    5  C   UNL     1       5.570  29.097  54.872  1.00  0.00     0.152 C 
BRANCH   5   6
HETATM    6  C   UNL     1       4.062  29.196  54.599  1.00  0.00     0.028 C 
HETATM    7  C   UNL     1       3.707  29.314  53.122  1.00  0.00     0.007 C 
ENDBRANCH   5   6
BRANCH   5   8
HETATM    8  C   UNL     1       6.024  29.761  56.183  1.00  0.00     0.104 A 
HETATM    9  N   UNL     1       7.078  29.418  56.940  1.00  0.00    -0.347 N 
HETATM   10  H   UNL     1       7.671  28.618  56.677  1.00  0.00     0.167 HD
HETATM   11  C   UNL     1       7.233  30.230  58.043  1.00  0.00     0.022 A 
HETATM   12  C   UNL     1       8.304  30.055  59.034  1.00  0.00     0.069 C 
HETATM   13  C   UNL     1       6.214  31.143  57.942  1.00  0.00     0.114 A 
HETATM   14  N   UNL     1       5.503  30.837  56.800  1.00  0.00    -0.352 N 
HETATM   15  H   UNL     1       4.697  31.360  56.467  1.00  0.00     0.166 HD
ENDBRANCH   5   8
ENDBRANCH   1   5
BRANCH   2  16
HETATM   16  C   UNL     1       7.508  25.969  53.833  1.00  0.00     0.033 A 
HETATM   17  C   UNL     1       7.632  25.051  54.894  1.00  0.00     0.031 A 
HETATM   18  C   UNL     1       7.878  23.699  54.597  1.00  0.00     0.001 A 
HETATM   19  C   UNL     1       7.983  23.320  53.266  1.00  0.00     0.086 A 
HETATM   20  C   UNL     1       8.066  22.510  55.352  1.00  0.00     0.046 A 
HETATM   21  O   UNL     1       8.224  21.985  53.170  1.00  0.00    -0.315 OA
HETATM   22  C   UNL     1       7.850  24.195  52.191  1.00  0.00     0.039 A 
HETATM   23  C   UNL     1       8.275  21.495  54.441  1.00  0.00     0.050 A 
HETATM   24  C   UNL     1       8.532  20.047  54.582  1.00  0.00     0.077 C 
HETATM   25  C   UNL     1       7.601  25.538  52.500  1.00  0.00     0.020 A 
ENDBRANCH   2  16
TORSDOF 4
ENDMDL
MODEL 6
REMARK VINA RESULT:      -7.7      2.486      4.247
REMARK  4 active torsions:
REMARK  status: ('A' for Active; 'I' for Inactive)
REMARK    1  A    between atoms: C_2  and  C_3 
REMARK    2  A    between atoms: C_3  and  N_4 
REMARK    3  A    between atoms: C_3  and  C_17 
REMARK       I    between atoms: N_4  and  C_5 
REMARK    4  A    between atoms: C_5  and  C_6 
ROOT
HETATM    1  N   UNL     1       6.913  30.353  58.610  1.00  0.00    -0.345 N 
HETATM    2  C   UNL     1       8.018  29.740  58.052  1.00  0.00     0.252 C 
HETATM    3  O   UNL     1       9.155  30.165  58.238  1.00  0.00    -0.268 OA
HETATM    4  H   UNL     1       6.023  30.118  58.184  1.00  0.00     0.163 HD
ENDROOT
BRANCH   1   5
HETATM    5  C   UNL     1       6.997  31.677  59.240  1.00  0.00     0.152 C 
BRANCH   5   6
HETATM    6  C   UNL     1       5.696  32.465  59.022  1.00  0.00     0.028 C 
HETATM    7  C   UNL     1       5.189  32.437  57.585  1.00  0.00     0.007 C 
ENDBRANCH   5   6
BRANCH   5   8
HETATM    8  C   UNL     1       7.467  31.619  60.703  1.00  0.00     0.104 A 
HETATM    9  N   UNL     1       7.290  32.558  61.647  1.00  0.00    -0.347 N 
HETATM   10  H   UNL     1       6.816  33.444  61.420  1.00  0.00     0.167 HD
HETATM   11  C   UNL     1       7.807  32.191  62.871  1.00  0.00     0.022 A 
HETATM   12  C   UNL     1       7.752  33.050  64.064  1.00  0.00     0.069 C 
HETATM   13  C   UNL     1       8.317  30.935  62.665  1.00  0.00     0.114 A 
HETATM   14  N   UNL     1       8.089  30.612  61.344  1.00  0.00    -0.352 N 
HETATM   15  H   UNL     1       8.351  29.730  60.914  1.00  0.00     0.166 HD
ENDBRANCH   5   8
ENDBRANCH   1   5
BRANCH   2  16
HETATM   16  C   UNL     1       7.780  28.546  57.191  1.00  0.00     0.033 A 
HETATM   17  C   UNL     1       7.872  28.722  55.797  1.00  0.00     0.031 A 
HETATM   18  C   UNL     1       7.643  27.618  54.956  1.00  0.00     0.001 A 
HETATM   19  C   UNL     1       7.341  26.393  55.536  1.00  0.00     0.086 A 
HETATM   20  C   UNL     1       7.635  27.393  53.554  1.00  0.00     0.046 A 
HETATM   21  O   UNL     1       7.150  25.449  54.577  1.00  0.00    -0.315 OA
HETATM   22  C   UNL     1       7.257  26.177  56.908  1.00  0.00     0.039 A 
HETATM   23  C   UNL     1       7.329  26.060  53.371  1.00  0.00     0.050 A 
HETATM   24  C   UNL     1       7.165  25.215  52.170  1.00  0.00     0.077 C 
HETATM   25  C   UNL     1       7.491  27.284  57.735  1.00  0.00     0.020 A 
ENDBRANCH   2  16
TORSDOF 4
ENDMDL
MODEL 7
REMARK VINA RESULT:      -7.7      4.396      7.922
REMARK  4 active torsions:
REMARK  status: ('A' for Active; 'I' for Inactive)
REMARK    1  A    between atoms: C_2  and  C_3 
REMARK    2  A    between atoms: C_3  and  N_4 
REMARK    3  A    between atoms: C_3  and  C_17 
REMARK       I    between atoms: N_4  and  C_5 
REMARK    4  A    between atoms: C_5  and  C_6 
ROOT
HETATM    1  N   UNL     1       6.414  25.250  54.110  1.00  0.00    -0.345 N 
HETATM    2  C   UNL     1       6.936  25.722  52.920  1.00  0.00     0.252 C 
HETATM    3  O   UNL     1       8.096  25.494  52.588  1.00  0.00    -0.268 OA
HETATM    4  H   UNL     1       5.570  25.712  54.428  1.00  0.00     0.163 HD
ENDROOT
BRANCH   1   5
HETATM    5  C   UNL     1       7.269  24.673  55.156  1.00  0.00     0.152 C 
BRANCH   5   6
HETATM    6  C   UNL     1       6.738  25.037  56.551  1.00  0.00     0.028 C 
HETATM    7  C   UNL     1       5.257  25.397  56.575  1.00  0.00     0.007 C 
ENDBRANCH   5   6
BRANCH   5   8
HETATM    8  C   UNL     1       7.543  23.174  54.952  1.00  0.00     0.104 A 
HETATM    9  N   UNL     1       7.845  22.558  53.798  1.00  0.00    -0.347 N 
HETATM   10  H   UNL     1       7.890  23.091  52.917  1.00  0.00     0.167 HD
HETATM   11  C   UNL     1       8.062  21.205  53.953  1.00  0.00     0.022 A 
HETATM   12  C   UNL     1       8.396  20.305  52.840  1.00  0.00     0.069 C 
HETATM   13  C   UNL     1       7.899  20.984  55.297  1.00  0.00     0.114 A 
HETATM   14  N   UNL     1       7.593  22.198  55.877  1.00  0.00    -0.352 N 
HETATM   15  H   UNL     1       7.432  22.336  56.871  1.00  0.00     0.166 HD
ENDBRANCH   5   8
ENDBRANCH   1   5
BRANCH   2  16
HETATM   16  C   UNL     1       6.040  26.542  52.056  1.00  0.00     0.033 A 
HETATM   17  C   UNL     1       5.510  25.929  50.904  1.00  0.00     0.031 A 
HETATM   18  C   UNL     1       4.669  26.678  50.061  1.00  0.00     0.001 A 
HETATM   19  C   UNL     1       4.388  27.994  50.403  1.00  0.00     0.086 A 
HETATM   20  C   UNL     1       3.967  26.437  48.851  1.00  0.00     0.046 A 
HETATM   21  O   UNL     1       3.568  28.560  49.479  1.00  0.00    -0.315 OA
HETATM   22  C   UNL     1       4.879  28.629  51.541  1.00  0.00     0.039 A 
HETATM   23  C   UNL     1       3.313  27.610  48.534  1.00  0.00     0.050 A 
HETATM   24  C   UNL     1       2.433  28.007  47.416  1.00  0.00     0.077 C 
HETATM   25  C   UNL     1       5.713  27.871  52.374  1.00  0.00     0.020 A 
ENDBRANCH   2  16
TORSDOF 4
ENDMDL
MODEL 8
REMARK VINA RESULT:      -7.7      1.790      2.768
REMARK  4 active torsions:
REMARK  status: ('A' for Active; 'I' for Inactive)
REMARK    1  A    between atoms: C_2  and  C_3 
REMARK    2  A    between atoms: C_3  and  N_4 
REMARK    3  A    between atoms: C_3  and  C_17 
REMARK       I    between atoms: N_4  and  C_5 
REMARK    4  A    between atoms: C_5  and  C_6 
ROOT
HETATM    1  N   UNL     1       6.565  28.488  56.823  1.00  0.00    -0.345 N 
HETATM    2  C   UNL     1       7.723  28.060  56.202  1.00  0.00     0.252 C 
HETATM    3  O   UNL     1       8.578  28.851  55.814  1.00  0.00    -0.268 OA
HETATM    4  H   UNL     1       5.809  27.812  56.849  1.00  0.00     0.163 HD
ENDROOT
BRANCH   1   5
HETATM    5  C   UNL     1       6.166  29.902  56.829  1.00  0.00     0.152 C 
BRANCH   5   6
HETATM    6  C   UNL     1       4.655  30.040  56.589  1.00  0.00     0.028 C 
HETATM    7  C   UNL     1       3.996  28.776  56.050  1.00  0.00     0.007 C 
ENDBRANCH   5   6
BRANCH   5   8
HETATM    8  C   UNL     1       6.687  30.670  58.055  1.00  0.00     0.104 A 
HETATM    9  N   UNL     1       7.970  30.892  58.384  1.00  0.00    -0.347 N 
HETATM   10  H   UNL     1       8.731  30.514  57.802  1.00  0.00     0.167 HD
HETATM   11  C   UNL     1       8.106  31.641  59.533  1.00  0.00     0.022 A 
HETATM   12  C   UNL     1       9.408  32.011  60.109  1.00  0.00     0.069 C 
HETATM   13  C   UNL     1       6.819  31.909  59.923  1.00  0.00     0.114 A 
HETATM   14  N   UNL     1       5.981  31.314  59.003  1.00  0.00    -0.352 N 
HETATM   15  H   UNL     1       4.967  31.360  59.034  1.00  0.00     0.166 HD
ENDBRANCH   5   8
ENDBRANCH   1   5
BRANCH   2  16
HETATM   16  C   UNL     1       7.891  26.593  56.001  1.00  0.00     0.033 A 
HETATM   17  C   UNL     1       7.591  26.074  54.726  1.00  0.00     0.031 A 
HETATM   18  C   UNL     1       7.730  24.692  54.505  1.00  0.00     0.001 A 
HETATM   19  C   UNL     1       8.166  23.892  55.553  1.00  0.00     0.086 A 
HETATM   20  C   UNL     1       7.528  23.812  53.408  1.00  0.00     0.046 A 
HETATM   21  O   UNL     1       8.238  22.593  55.161  1.00  0.00    -0.315 OA
HETATM   22  C   UNL     1       8.489  24.371  56.820  1.00  0.00     0.039 A 
HETATM   23  C   UNL     1       7.848  22.546  53.855  1.00  0.00     0.050 A 
HETATM   24  C   UNL     1       7.846  21.216  53.212  1.00  0.00     0.077 C 
HETATM   25  C   UNL     1       8.349  25.750  57.027  1.00  0.00     0.020 A 
ENDBRANCH   2  16
TORSDOF 4
ENDMDL
MODEL 9
REMARK VINA RESULT:      -7.4      3.169      8.935
REMARK  4 active torsions:
REMARK  status: ('A' for Active; 'I' for Inactive)
REMARK    1  A    between atoms: C_2  and  C_3 
REMARK    2  A    between atoms: C_3  and  N_4 
REMARK    3  A    between atoms: C_3  and  C_17 
REMARK       I    between atoms: N_4  and  C_5 
REMARK    4  A    between atoms: C_5  and  C_6 
ROOT
HETATM    1  N   UNL     1       8.156  29.888  58.070  1.00  0.00    -0.345 N 
HETATM    2  C   UNL     1       7.070  30.742  58.032  1.00  0.00     0.252 C 
HETATM    3  O   UNL     1       6.371  30.853  57.029  1.00  0.00    -0.268 OA
HETATM    4  H   UNL     1       8.826  30.068  58.810  1.00  0.00     0.163 HD
ENDROOT
BRANCH   1   5
HETATM    5  C   UNL     1       8.691  29.260  56.854  1.00  0.00     0.152 C 
BRANCH   5   6
HETATM    6  C   UNL     1      10.225  29.333  56.836  1.00  0.00     0.028 C 
HETATM    7  C   UNL     1      10.794  30.563  57.534  1.00  0.00     0.007 C 
ENDBRANCH   5   6
BRANCH   5   8
HETATM    8  C   UNL     1       8.119  27.856  56.600  1.00  0.00     0.104 A 
HETATM    9  N   UNL     1       7.212  27.508  55.673  1.00  0.00    -0.347 N 
HETATM   10  H   UNL     1       6.803  28.219  55.050  1.00  0.00     0.167 HD
HETATM   11  C   UNL     1       6.926  26.160  55.682  1.00  0.00     0.022 A 
HETATM   12  C   UNL     1       5.957  25.530  54.772  1.00  0.00     0.069 C 
HETATM   13  C   UNL     1       7.726  25.646  56.670  1.00  0.00     0.114 A 
HETATM   14  N   UNL     1       8.443  26.697  57.203  1.00  0.00    -0.352 N 
HETATM   15  H   UNL     1       9.129  26.607  57.947  1.00  0.00     0.166 HD
ENDBRANCH   5   8
ENDBRANCH   1   5
BRANCH   2  16
HETATM   16  C   UNL     1       6.787  31.546  59.255  1.00  0.00     0.033 A 
HETATM   17  C   UNL     1       7.674  31.411  60.341  1.00  0.00     0.031 A 
HETATM   18  C   UNL     1       7.429  32.148  61.513  1.00  0.00     0.001 A 
HETATM   19  C   UNL     1       6.324  32.988  61.552  1.00  0.00     0.086 A 
HETATM   20  C   UNL     1       8.058  32.281  62.780  1.00  0.00     0.046 A 
HETATM   21  O   UNL     1       6.245  33.613  62.756  1.00  0.00    -0.315 OA
HETATM   22  C   UNL     1       5.435  33.160  60.494  1.00  0.00     0.039 A 
HETATM   23  C   UNL     1       7.301  33.180  63.503  1.00  0.00     0.050 A 
HETATM   24  C   UNL     1       7.417  33.733  64.868  1.00  0.00     0.077 C 
HETATM   25  C   UNL     1       5.692  32.423  59.330  1.00  0.00     0.020 A 
ENDBRANCH   2  16
TORSDOF 4
ENDMDL
MODEL 10
REMARK VINA RESULT:      -7.1      2.421      3.100
REMARK  4 active torsions:
REMARK  status: ('A' for Active; 'I' for Inactive)
REMARK    1  A    between atoms: C_2  and  C_3 
REMARK    2  A    between atoms: C_3  and  N_4 
REMARK    3  A    between atoms: C_3  and  C_17 
REMARK       I    between atoms: N_4  and  C_5 
REMARK    4  A    between atoms: C_5  and  C_6 
ROOT
HETATM    1  N   UNL     1       5.732  27.980  55.072  1.00  0.00    -0.345 N 
HETATM    2  C   UNL     1       5.644  26.718  55.627  1.00  0.00     0.252 C 
HETATM    3  O   UNL     1       5.187  26.538  56.753  1.00  0.00    -0.268 OA
HETATM    4  H   UNL     1       6.365  28.066  54.285  1.00  0.00     0.163 HD
ENDROOT
BRANCH   1   5
HETATM    5  C   UNL     1       5.529  29.195  55.873  1.00  0.00     0.152 C 
BRANCH   5   6
HETATM    6  C   UNL     1       6.860  29.680  56.468  1.00  0.00     0.028 C 
HETATM    7  C   UNL     1       6.828  29.870  57.980  1.00  0.00     0.007 C 
ENDBRANCH   5   6
BRANCH   5   8
HETATM    8  C   UNL     1       4.733  30.280  55.130  1.00  0.00     0.104 A 
HETATM    9  N   UNL     1       5.048  31.581  55.019  1.00  0.00    -0.347 N 
HETATM   10  H   UNL     1       5.890  31.955  55.479  1.00  0.00     0.167 HD
HETATM   11  C   UNL     1       4.140  32.289  54.262  1.00  0.00     0.022 A 
HETATM   12  C   UNL     1       4.254  33.732  54.001  1.00  0.00     0.069 C 
HETATM   13  C   UNL     1       3.218  31.354  53.868  1.00  0.00     0.114 A 
HETATM   14  N   UNL     1       3.608  30.144  54.403  1.00  0.00    -0.352 N 
HETATM   15  H   UNL     1       3.115  29.267  54.262  1.00  0.00     0.166 HD
ENDBRANCH   5   8
ENDBRANCH   1   5
BRANCH   2  16
HETATM   16  C   UNL     1       6.145  25.574  54.813  1.00  0.00     0.033 A 
HETATM   17  C   UNL     1       6.686  24.472  55.505  1.00  0.00     0.031 A 
HETATM   18  C   UNL     1       7.176  23.380  54.766  1.00  0.00     0.001 A 
HETATM   19  C   UNL     1       7.100  23.428  53.381  1.00  0.00     0.086 A 
HETATM   20  C   UNL     1       7.780  22.133  55.076  1.00  0.00     0.046 A 
HETATM   21  O   UNL     1       7.621  22.296  52.838  1.00  0.00    -0.315 OA
HETATM   22  C   UNL     1       6.558  24.491  52.663  1.00  0.00     0.039 A 
HETATM   23  C   UNL     1       8.035  21.509  53.872  1.00  0.00     0.050 A 
HETATM   24  C   UNL     1       8.644  20.211  53.514  1.00  0.00     0.077 C 
HETATM   25  C   UNL     1       6.069  25.571  53.411  1.00  0.00     0.020 A 
ENDBRANCH   2  16
TORSDOF 4
ENDMDL
