MODEL 1
REMARK VINA RESULT:      -9.3      0.000      0.000
REMARK  6 active torsions:
REMARK  status: ('A' for Active; 'I' for Inactive)
REMARK    1  A    between atoms: C_2  and  N_3 
REMARK    2  A    between atoms: N_3  and  C_5 
REMARK    3  A    between atoms: N_3  and  C_17 
REMARK    4  A    between atoms: C_5  and  C_6 
REMARK       I    between atoms: C_6  and  N_7 
REMARK    5  A    between atoms: N_7  and  C_8 
REMARK    6  A    between atoms: C_17  and  C_18 
ROOT
HETATM    1  N   UNL     1       6.541  27.976  56.587  1.00  0.00    -0.059 N 
HETATM    2  H   UNL     1       5.754  27.376  56.862  1.00  0.00     0.280 HD
ENDROOT
BRANCH   1   3
HETATM    3  C   UNL     1       5.994  29.386  56.400  1.00  0.00     0.231 C 
HETATM    4  C   UNL     1       4.875  29.675  57.381  1.00  0.00     0.034 C 
ENDBRANCH   1   3
BRANCH   1   5
HETATM    5  C   UNL     1       7.083  27.345  55.290  1.00  0.00     0.337 C 
BRANCH   5   6
HETATM    6  C   UNL     1       6.844  25.838  55.166  1.00  0.00     0.248 C 
HETATM    7  N   UNL     1       7.971  25.108  54.824  1.00  0.00    -0.325 N 
HETATM    8  H   UNL     1       8.758  25.596  54.423  1.00  0.00     0.169 HD
HETATM    9  O   UNL     1       5.703  25.396  55.262  1.00  0.00    -0.271 OA
BRANCH   7  10
HETATM   10  C   UNL     1       7.955  23.712  54.576  1.00  0.00     0.046 A 
HETATM   11  C   UNL     1       7.871  23.285  53.229  1.00  0.00    -0.035 A 
HETATM   12  C   UNL     1       7.726  24.246  52.078  1.00  0.00     0.050 C 
HETATM   13  C   UNL     1       7.859  21.911  52.942  1.00  0.00     0.009 A 
HETATM   14  C   UNL     1       7.936  20.971  53.964  1.00  0.00     0.001 A 
HETATM   15  C   UNL     1       8.046  21.394  55.285  1.00  0.00     0.009 A 
HETATM   16  C   UNL     1       8.084  22.761  55.609  1.00  0.00    -0.035 A 
HETATM   17  C   UNL     1       8.311  23.109  57.057  1.00  0.00     0.050 C 
ENDBRANCH   7  10
ENDBRANCH   5   6
ENDBRANCH   1   5
BRANCH   1  18
HETATM   18  C   UNL     1       7.539  27.922  57.727  1.00  0.00     0.276 C 
BRANCH  18  19
HETATM   19  C   UNL     1       8.580  29.014  57.742  1.00  0.00    -0.003 A 
HETATM   20  C   UNL     1       8.562  30.062  58.692  1.00  0.00     0.069 A 
HETATM   21  C   UNL     1       9.525  31.070  58.749  1.00  0.00     0.012 A 
HETATM   22  N   UNL     1       7.706  30.359  59.730  1.00  0.00    -0.277 N 
HETATM   23  C   UNL     1       9.131  31.897  59.823  1.00  0.00     0.152 A 
HETATM   24  C   UNL     1      10.586  31.067  57.834  1.00  0.00     0.015 A 
HETATM   25  N   UNL     1       8.015  31.466  60.411  1.00  0.00    -0.186 NA
HETATM   26  C   UNL     1      10.654  30.040  56.895  1.00  0.00     0.002 A 
HETATM   27  C   UNL     1       9.681  29.038  56.856  1.00  0.00     0.011 A 
HETATM   28  H   UNL     1       6.885  29.854  60.040  1.00  0.00     0.189 HD
ENDBRANCH  18  19
ENDBRANCH   1  18
TORSDOF 6
ENDMDL
MODEL 2
REMARK VINA RESULT:      -9.2      2.270      3.953
REMARK  6 active torsions:
REMARK  status: ('A' for Active; 'I' for Inactive)
REMARK    1  A    between atoms: C_2  and  N_3 
REMARK    2  A    between atoms: N_3  and  C_5 
REMARK    3  A    between atoms: N_3  and  C_17 
REMARK    4  A    between atoms: C_5  and  C_6 
REMARK       I    between atoms: C_6  and  N_7 
REMARK    5  A    between atoms: N_7  and  C_8 
REMARK    6  A    between atoms: C_17  and  C_18 
ROOT
HETATM    1  N   UNL     1       6.334  26.833  52.778  1.00  0.00    -0.059 N 
HETATM    2  H   UNL     1       5.592  26.431  53.364  1.00  0.00     0.280 HD
ENDROOT
BRANCH   1   3
HETATM    3  C   UNL     1       5.739  27.079  51.397  1.00  0.00     0.231 C 
HETATM    4  C   UNL     1       5.065  25.833  50.859  1.00  0.00     0.034 C 
ENDBRANCH   1   3
BRANCH   1   5
HETATM    5  C   UNL     1       7.457  25.777  52.789  1.00  0.00     0.337 C 
BRANCH   5   6
HETATM    6  C   UNL     1       7.205  24.587  53.719  1.00  0.00     0.248 C 
HETATM    7  N   UNL     1       8.348  23.891  54.076  1.00  0.00    -0.325 N 
HETATM    8  H   UNL     1       9.181  24.015  53.521  1.00  0.00     0.169 HD
HETATM    9  O   UNL     1       6.052  24.266  53.992  1.00  0.00    -0.271 OA
BRANCH   7  10
HETATM   10  C   UNL     1       8.332  22.709  54.860  1.00  0.00     0.046 A 
HETATM   11  C   UNL     1       8.420  22.851  56.266  1.00  0.00    -0.035 A 
HETATM   12  C   UNL     1       8.600  24.187  56.937  1.00  0.00     0.050 C 
HETATM   13  C   UNL     1       8.401  21.706  57.076  1.00  0.00     0.009 A 
HETATM   14  C   UNL     1       8.291  20.439  56.513  1.00  0.00     0.001 A 
HETATM   15  C   UNL     1       8.178  20.303  55.133  1.00  0.00     0.009 A 
HETATM   16  C   UNL     1       8.170  21.429  54.291  1.00  0.00    -0.035 A 
HETATM   17  C   UNL     1       7.937  21.177  52.824  1.00  0.00     0.050 C 
ENDBRANCH   7  10
ENDBRANCH   5   6
ENDBRANCH   1   5
BRANCH   1  18
HETATM   18  C   UNL     1       6.745  28.133  53.439  1.00  0.00     0.276 C 
BRANCH  18  19
HETATM   19  C   UNL     1       7.068  28.049  54.910  1.00  0.00    -0.003 A 
HETATM   20  C   UNL     1       8.227  28.644  55.465  1.00  0.00     0.069 A 
HETATM   21  C   UNL     1       8.539  28.607  56.823  1.00  0.00     0.012 A 
HETATM   22  N   UNL     1       9.259  29.364  54.904  1.00  0.00    -0.277 N 
HETATM   23  C   UNL     1       9.761  29.305  56.941  1.00  0.00     0.152 A 
HETATM   24  C   UNL     1       7.673  27.961  57.716  1.00  0.00     0.015 A 
HETATM   25  N   UNL     1      10.202  29.754  55.767  1.00  0.00    -0.186 NA
HETATM   26  C   UNL     1       6.510  27.381  57.216  1.00  0.00     0.002 A 
HETATM   27  C   UNL     1       6.213  27.431  55.851  1.00  0.00     0.011 A 
HETATM   28  H   UNL     1       9.393  29.632  53.937  1.00  0.00     0.189 HD
ENDBRANCH  18  19
ENDBRANCH   1  18
TORSDOF 6
ENDMDL
MODEL 3
REMARK VINA RESULT:      -9.0      1.925      2.556
REMARK  6 active torsions:
REMARK  status: ('A' for Active; 'I' for Inactive)
REMARK    1  A    between atoms: C_2  and  N_3 
REMARK    2  A    between atoms: N_3  and  C_5 
REMARK    3  A    between atoms: N_3  and  C_17 
REMARK    4  A    between atoms: C_5  and  C_6 
REMARK       I    between atoms: C_6  and  N_7 
REMARK    5  A    between atoms: N_7  and  C_8 
REMARK    6  A    between atoms: C_17  and  C_18 
ROOT
HETATM    1  N   UNL     1       6.620  26.637  56.680  1.00  0.00    -0.059 N 
HETATM    2  H   UNL     1       6.094  27.158  57.392  1.00  0.00     0.280 HD
ENDROOT
BRANCH   1   3
HETATM    3  C   UNL     1       5.664  26.350  55.528  1.00  0.00     0.231 C 
HETATM    4  C   UNL     1       5.922  27.277  54.357  1.00  0.00     0.034 C 
ENDBRANCH   1   3
BRANCH   1   5
HETATM    5  C   UNL     1       7.112  25.370  57.406  1.00  0.00     0.337 C 
BRANCH   5   6
HETATM    6  C   UNL     1       7.884  24.387  56.523  1.00  0.00     0.248 C 
HETATM    7  N   UNL     1       7.086  23.479  55.846  1.00  0.00    -0.325 N 
HETATM    8  H   UNL     1       6.140  23.337  56.167  1.00  0.00     0.169 HD
HETATM    9  O   UNL     1       9.112  24.385  56.549  1.00  0.00    -0.271 OA
BRANCH   7  10
HETATM   10  C   UNL     1       7.600  22.431  55.041  1.00  0.00     0.046 A 
HETATM   11  C   UNL     1       7.648  22.640  53.642  1.00  0.00    -0.035 A 
HETATM   12  C   UNL     1       7.112  23.886  52.987  1.00  0.00     0.050 C 
HETATM   13  C   UNL     1       8.156  21.628  52.813  1.00  0.00     0.009 A 
HETATM   14  C   UNL     1       8.616  20.432  53.351  1.00  0.00     0.001 A 
HETATM   15  C   UNL     1       8.593  20.240  54.729  1.00  0.00     0.009 A 
HETATM   16  C   UNL     1       8.113  21.239  55.593  1.00  0.00    -0.035 A 
HETATM   17  C   UNL     1       8.230  20.971  57.071  1.00  0.00     0.050 C 
ENDBRANCH   7  10
ENDBRANCH   5   6
ENDBRANCH   1   5
BRANCH   1  18
HETATM   18  C   UNL     1       7.755  27.539  56.239  1.00  0.00     0.276 C 
BRANCH  18  19
HETATM   19  C   UNL     1       7.990  28.763  57.089  1.00  0.00    -0.003 A 
HETATM   20  C   UNL     1       9.266  29.360  57.218  1.00  0.00     0.069 A 
HETATM   21  C   UNL     1       9.509  30.506  57.974  1.00  0.00     0.012 A 
HETATM   22  N   UNL     1      10.497  29.042  56.688  1.00  0.00    -0.277 N 
HETATM   23  C   UNL     1      10.893  30.754  57.835  1.00  0.00     0.152 A 
HETATM   24  C   UNL     1       8.451  31.130  58.648  1.00  0.00     0.015 A 
HETATM   25  N   UNL     1      11.493  29.851  57.060  1.00  0.00    -0.186 NA
HETATM   26  C   UNL     1       7.173  30.588  58.531  1.00  0.00     0.002 A 
HETATM   27  C   UNL     1       6.949  29.439  57.766  1.00  0.00     0.011 A 
HETATM   28  H   UNL     1      10.742  28.284  56.062  1.00  0.00     0.189 HD
ENDBRANCH  18  19
ENDBRANCH   1  18
TORSDOF 6
ENDMDL
MODEL 4
REMARK VINA RESULT:      -8.9      0.813      1.937
REMARK  6 active torsions:
REMARK  status: ('A' for Active; 'I' for Inactive)
REMARK    1  A    between atoms: C_2  and  N_3 
REMARK    2  A    between atoms: N_3  and  C_5 
REMARK    3  A    between atoms: N_3  and  C_17 
REMARK    4  A    between atoms: C_5  and  C_6 
REMARK       I    between atoms: C_6  and  N_7 
REMARK    5  A    between atoms: N_7  and  C_8 
REMARK    6  A    between atoms: C_17  and  C_18 
ROOT
HETATM    1  N   UNL     1       5.960  28.669  56.460  1.00  0.00    -0.059 N 
HETATM    2  H   UNL     1       5.095  28.209  56.768  1.00  0.00     0.280 HD
ENDROOT
BRANCH   1   3
HETATM    3  C   UNL     1       5.722  30.173  56.516  1.00  0.00     0.231 C 
HETATM    4  C   UNL     1       4.466  30.500  57.300  1.00  0.00     0.034 C 
ENDBRANCH   1   3
BRANCH   1   5
HETATM    5  C   UNL     1       6.202  28.133  55.035  1.00  0.00     0.337 C 
BRANCH   5   6
HETATM    6  C   UNL     1       6.299  26.609  54.934  1.00  0.00     0.248 C 
HETATM    7  N   UNL     1       7.567  26.136  54.640  1.00  0.00    -0.325 N 
HETATM    8  H   UNL     1       8.243  26.778  54.253  1.00  0.00     0.169 HD
HETATM    9  O   UNL     1       5.278  25.931  55.005  1.00  0.00    -0.271 OA
BRANCH   7  10
HETATM   10  C   UNL     1       7.862  24.767  54.419  1.00  0.00     0.046 A 
HETATM   11  C   UNL     1       8.195  23.976  55.546  1.00  0.00    -0.035 A 
HETATM   12  C   UNL     1       8.318  24.549  56.933  1.00  0.00     0.050 C 
HETATM   13  C   UNL     1       8.486  22.615  55.369  1.00  0.00     0.009 A 
HETATM   14  C   UNL     1       8.444  22.037  54.105  1.00  0.00     0.001 A 
HETATM   15  C   UNL     1       8.089  22.809  53.004  1.00  0.00     0.009 A 
HETATM   16  C   UNL     1       7.768  24.171  53.144  1.00  0.00    -0.035 A 
HETATM   17  C   UNL     1       7.296  24.888  51.907  1.00  0.00     0.050 C 
ENDBRANCH   7  10
ENDBRANCH   5   6
ENDBRANCH   1   5
BRANCH   1  18
HETATM   18  C   UNL     1       7.040  28.247  57.436  1.00  0.00     0.276 C 
BRANCH  18  19
HETATM   19  C   UNL     1       8.267  29.124  57.479  1.00  0.00    -0.003 A 
HETATM   20  C   UNL     1       8.516  30.023  58.543  1.00  0.00     0.069 A 
HETATM   21  C   UNL     1       9.653  30.826  58.625  1.00  0.00     0.012 A 
HETATM   22  N   UNL     1       7.810  30.326  59.687  1.00  0.00    -0.277 N 
HETATM   23  C   UNL     1       9.503  31.559  59.822  1.00  0.00     0.152 A 
HETATM   24  C   UNL     1      10.626  30.756  57.617  1.00  0.00     0.015 A 
HETATM   25  N   UNL     1       8.372  31.260  60.460  1.00  0.00    -0.186 NA
HETATM   26  C   UNL     1      10.430  29.868  56.562  1.00  0.00     0.002 A 
HETATM   27  C   UNL     1       9.284  29.070  56.500  1.00  0.00     0.011 A 
HETATM   28  H   UNL     1       6.933  29.938  60.012  1.00  0.00     0.189 HD
ENDBRANCH  18  19
ENDBRANCH   1  18
TORSDOF 6
ENDMDL
MODEL 5
REMARK VINA RESULT:      -8.8      1.006      2.145
REMARK  6 active torsions:
REMARK  status: ('A' for Active; 'I' for Inactive)
REMARK    1  A    between atoms: C_2  and  N_3 
REMARK    2  A    between atoms: N_3  and  C_5 
REMARK    3  A    between atoms: N_3  and  C_17 
REMARK    4  A    between atoms: C_5  and  C_6 
REMARK       I    between atoms: C_6  and  N_7 
REMARK    5  A    between atoms: N_7  and  C_8 
REMARK    6  A    between atoms: C_17  and  C_18 
ROOT
HETATM    1  N   UNL     1       7.042  27.273  56.562  1.00  0.00    -0.059 N 
HETATM    2  H   UNL     1       6.067  26.959  56.476  1.00  0.00     0.280 HD
ENDROOT
BRANCH   1   3
HETATM    3  C   UNL     1       7.457  27.841  55.210  1.00  0.00     0.231 C 
HETATM    4  C   UNL     1       6.300  27.829  54.231  1.00  0.00     0.034 C 
ENDBRANCH   1   3
BRANCH   1   5
HETATM    5  C   UNL     1       7.826  26.012  56.971  1.00  0.00     0.337 C 
BRANCH   5   6
HETATM    6  C   UNL     1       7.401  24.732  56.246  1.00  0.00     0.248 C 
HETATM    7  N   UNL     1       8.449  24.017  55.690  1.00  0.00    -0.325 N 
HETATM    8  H   UNL     1       9.332  24.485  55.552  1.00  0.00     0.169 HD
HETATM    9  O   UNL     1       6.207  24.483  56.108  1.00  0.00    -0.271 OA
BRANCH   7  10
HETATM   10  C   UNL     1       8.272  22.850  54.905  1.00  0.00     0.046 A 
HETATM   11  C   UNL     1       8.237  21.604  55.577  1.00  0.00    -0.035 A 
HETATM   12  C   UNL     1       8.453  21.476  57.062  1.00  0.00     0.050 C 
HETATM   13  C   UNL     1       8.057  20.427  54.835  1.00  0.00     0.009 A 
HETATM   14  C   UNL     1       7.905  20.473  53.454  1.00  0.00     0.001 A 
HETATM   15  C   UNL     1       7.912  21.700  52.799  1.00  0.00     0.009 A 
HETATM   16  C   UNL     1       8.067  22.903  53.510  1.00  0.00    -0.035 A 
HETATM   17  C   UNL     1       7.955  24.179  52.719  1.00  0.00     0.050 C 
ENDBRANCH   7  10
ENDBRANCH   5   6
ENDBRANCH   1   5
BRANCH   1  18
HETATM   18  C   UNL     1       7.053  28.344  57.634  1.00  0.00     0.276 C 
BRANCH  18  19
HETATM   19  C   UNL     1       8.296  29.198  57.698  1.00  0.00    -0.003 A 
HETATM   20  C   UNL     1       8.413  30.297  58.581  1.00  0.00     0.069 A 
HETATM   21  C   UNL     1       9.557  31.088  58.682  1.00  0.00     0.012 A 
HETATM   22  N   UNL     1       7.548  30.840  59.506  1.00  0.00    -0.277 N 
HETATM   23  C   UNL     1       9.251  32.057  59.662  1.00  0.00     0.152 A 
HETATM   24  C   UNL     1      10.673  30.798  57.886  1.00  0.00     0.015 A 
HETATM   25  N   UNL     1       8.021  31.910  60.153  1.00  0.00    -0.186 NA
HETATM   26  C   UNL     1      10.608  29.711  57.017  1.00  0.00     0.002 A 
HETATM   27  C   UNL     1       9.453  28.929  56.932  1.00  0.00     0.011 A 
HETATM   28  H   UNL     1       6.614  30.539  59.755  1.00  0.00     0.189 HD
ENDBRANCH  18  19
ENDBRANCH   1  18
TORSDOF 6
ENDMDL
MODEL 6
REMARK VINA RESULT:      -8.8      1.916      8.223
REMARK  6 active torsions:
REMARK  status: ('A' for Active; 'I' for Inactive)
REMARK    1  A    between atoms: C_2  and  N_3 
REMARK    2  A    between atoms: N_3  and  C_5 
REMARK    3  A    between atoms: N_3  and  C_17 
REMARK    4  A    between atoms: C_5  and  C_6 
REMARK       I    between atoms: C_6  and  N_7 
REMARK    5  A    between atoms: N_7  and  C_8 
REMARK    6  A    between atoms: C_17  and  C_18 
ROOT
HETATM    1  N   UNL     1       6.871  26.233  55.574  1.00  0.00    -0.059 N 
HETATM    2  H   UNL     1       6.661  26.063  54.583  1.00  0.00     0.280 HD
ENDROOT
BRANCH   1   3
HETATM    3  C   UNL     1       5.552  26.544  56.272  1.00  0.00     0.231 C 
HETATM    4  C   UNL     1       5.120  25.398  57.165  1.00  0.00     0.034 C 
ENDBRANCH   1   3
BRANCH   1   5
HETATM    5  C   UNL     1       7.861  27.414  55.568  1.00  0.00     0.337 C 
BRANCH   5   6
HETATM    6  C   UNL     1       7.956  28.174  56.894  1.00  0.00     0.248 C 
HETATM    7  N   UNL     1       8.025  29.551  56.757  1.00  0.00    -0.325 N 
HETATM    8  H   UNL     1       8.280  29.934  55.860  1.00  0.00     0.169 HD
HETATM    9  O   UNL     1       8.073  27.548  57.943  1.00  0.00    -0.271 OA
BRANCH   7  10
HETATM   10  C   UNL     1       8.201  30.438  57.849  1.00  0.00     0.046 A 
HETATM   11  C   UNL     1       9.527  30.782  58.209  1.00  0.00    -0.035 A 
HETATM   12  C   UNL     1      10.733  30.189  57.531  1.00  0.00     0.050 C 
HETATM   13  C   UNL     1       9.742  31.663  59.281  1.00  0.00     0.009 A 
HETATM   14  C   UNL     1       8.671  32.203  59.983  1.00  0.00     0.001 A 
HETATM   15  C   UNL     1       7.368  31.885  59.609  1.00  0.00     0.009 A 
HETATM   16  C   UNL     1       7.113  31.025  58.527  1.00  0.00    -0.035 A 
HETATM   17  C   UNL     1       5.670  30.831  58.141  1.00  0.00     0.050 C 
ENDBRANCH   7  10
ENDBRANCH   5   6
ENDBRANCH   1   5
BRANCH   1  18
HETATM   18  C   UNL     1       7.485  24.955  56.107  1.00  0.00     0.276 C 
BRANCH  18  19
HETATM   19  C   UNL     1       7.709  23.860  55.093  1.00  0.00    -0.003 A 
HETATM   20  C   UNL     1       8.042  22.537  55.469  1.00  0.00     0.069 A 
HETATM   21  C   UNL     1       8.229  21.499  54.557  1.00  0.00     0.012 A 
HETATM   22  N   UNL     1       8.239  21.944  56.697  1.00  0.00    -0.277 N 
HETATM   23  C   UNL     1       8.545  20.369  55.343  1.00  0.00     0.152 A 
HETATM   24  C   UNL     1       8.077  21.745  53.186  1.00  0.00     0.015 A 
HETATM   25  N   UNL     1       8.562  20.648  56.646  1.00  0.00    -0.186 NA
HETATM   26  C   UNL     1       7.728  23.029  52.773  1.00  0.00     0.002 A 
HETATM   27  C   UNL     1       7.543  24.056  53.703  1.00  0.00     0.011 A 
HETATM   28  H   UNL     1       8.173  22.357  57.619  1.00  0.00     0.189 HD
ENDBRANCH  18  19
ENDBRANCH   1  18
TORSDOF 6
ENDMDL
MODEL 7
REMARK VINA RESULT:      -8.8      4.343      7.688
REMARK  6 active torsions:
REMARK  status: ('A' for Active; 'I' for Inactive)
REMARK    1  A    between atoms: C_2  and  N_3 
REMARK    2  A    between atoms: N_3  and  C_5 
REMARK    3  A    between atoms: N_3  and  C_17 
REMARK    4  A    between atoms: C_5  and  C_6 
REMARK       I    between atoms: C_6  and  N_7 
REMARK    5  A    between atoms: N_7  and  C_8 
REMARK    6  A    between atoms: C_17  and  C_18 
ROOT
HETATM    1  N   UNL     1       6.480  26.537  52.136  1.00  0.00    -0.059 N 
HETATM    2  H   UNL     1       6.995  27.206  51.551  1.00  0.00     0.280 HD
ENDROOT
BRANCH   1   3
HETATM    3  C   UNL     1       6.420  27.117  53.544  1.00  0.00     0.231 C 
HETATM    4  C   UNL     1       7.686  27.882  53.877  1.00  0.00     0.034 C 
ENDBRANCH   1   3
BRANCH   1   5
HETATM    5  C   UNL     1       7.286  25.227  52.039  1.00  0.00     0.337 C 
BRANCH   5   6
HETATM    6  C   UNL     1       7.083  24.265  53.212  1.00  0.00     0.248 C 
HETATM    7  N   UNL     1       8.233  23.604  53.612  1.00  0.00    -0.325 N 
HETATM    8  H   UNL     1       9.018  23.575  52.979  1.00  0.00     0.169 HD
HETATM    9  O   UNL     1       5.950  24.059  53.638  1.00  0.00    -0.271 OA
BRANCH   7  10
HETATM   10  C   UNL     1       8.253  22.609  54.622  1.00  0.00     0.046 A 
HETATM   11  C   UNL     1       8.218  21.254  54.211  1.00  0.00    -0.035 A 
HETATM   12  C   UNL     1       8.086  20.846  52.768  1.00  0.00     0.050 C 
HETATM   13  C   UNL     1       8.243  20.240  55.181  1.00  0.00     0.009 A 
HETATM   14  C   UNL     1       8.309  20.552  56.534  1.00  0.00     0.001 A 
HETATM   15  C   UNL     1       8.371  21.884  56.934  1.00  0.00     0.009 A 
HETATM   16  C   UNL     1       8.372  22.926  55.991  1.00  0.00    -0.035 A 
HETATM   17  C   UNL     1       8.549  24.323  56.525  1.00  0.00     0.050 C 
ENDBRANCH   7  10
ENDBRANCH   5   6
ENDBRANCH   1   5
BRANCH   1  18
HETATM   18  C   UNL     1       5.095  26.420  51.532  1.00  0.00     0.276 C 
BRANCH  18  19
HETATM   19  C   UNL     1       4.937  26.969  50.136  1.00  0.00    -0.003 A 
HETATM   20  C   UNL     1       4.178  26.305  49.144  1.00  0.00     0.069 A 
HETATM   21  C   UNL     1       3.992  26.800  47.854  1.00  0.00     0.012 A 
HETATM   22  N   UNL     1       3.466  25.125  49.155  1.00  0.00    -0.277 N 
HETATM   23  C   UNL     1       3.188  25.840  47.201  1.00  0.00     0.152 A 
HETATM   24  C   UNL     1       4.568  28.025  47.491  1.00  0.00     0.015 A 
HETATM   25  N   UNL     1       2.880  24.815  47.995  1.00  0.00    -0.186 NA
HETATM   26  C   UNL     1       5.306  28.723  48.445  1.00  0.00     0.002 A 
HETATM   27  C   UNL     1       5.479  28.211  49.734  1.00  0.00     0.011 A 
HETATM   28  H   UNL     1       3.331  24.472  49.917  1.00  0.00     0.189 HD
ENDBRANCH  18  19
ENDBRANCH   1  18
TORSDOF 6
ENDMDL
MODEL 8
REMARK VINA RESULT:      -8.8      2.244      4.871
REMARK  6 active torsions:
REMARK  status: ('A' for Active; 'I' for Inactive)
REMARK    1  A    between atoms: C_2  and  N_3 
REMARK    2  A    between atoms: N_3  and  C_5 
REMARK    3  A    between atoms: N_3  and  C_17 
REMARK    4  A    between atoms: C_5  and  C_6 
REMARK       I    between atoms: C_6  and  N_7 
REMARK    5  A    between atoms: N_7  and  C_8 
REMARK    6  A    between atoms: C_17  and  C_18 
ROOT
HETATM    1  N   UNL     1       7.331  27.178  56.919  1.00  0.00    -0.059 N 
HETATM    2  H   UNL     1       7.426  27.118  55.898  1.00  0.00     0.280 HD
ENDROOT
BRANCH   1   3
HETATM    3  C   UNL     1       8.270  28.276  57.400  1.00  0.00     0.231 C 
HETATM    4  C   UNL     1       8.867  29.038  56.233  1.00  0.00     0.034 C 
ENDBRANCH   1   3
BRANCH   1   5
HETATM    5  C   UNL     1       7.706  25.773  57.430  1.00  0.00     0.337 C 
BRANCH   5   6
HETATM    6  C   UNL     1       7.300  24.626  56.501  1.00  0.00     0.248 C 
HETATM    7  N   UNL     1       8.366  23.920  55.969  1.00  0.00    -0.325 N 
HETATM    8  H   UNL     1       9.282  24.342  55.988  1.00  0.00     0.169 HD
HETATM    9  O   UNL     1       6.118  24.475  56.207  1.00  0.00    -0.271 OA
BRANCH   7  10
HETATM   10  C   UNL     1       8.218  22.875  55.022  1.00  0.00     0.046 A 
HETATM   11  C   UNL     1       8.209  21.544  55.507  1.00  0.00    -0.035 A 
HETATM   12  C   UNL     1       8.423  21.207  56.959  1.00  0.00     0.050 C 
HETATM   13  C   UNL     1       8.059  20.483  54.601  1.00  0.00     0.009 A 
HETATM   14  C   UNL     1       7.912  20.725  53.240  1.00  0.00     0.001 A 
HETATM   15  C   UNL     1       7.894  22.034  52.769  1.00  0.00     0.009 A 
HETATM   16  C   UNL     1       8.019  23.125  53.648  1.00  0.00    -0.035 A 
HETATM   17  C   UNL     1       7.880  24.499  53.049  1.00  0.00     0.050 C 
ENDBRANCH   7  10
ENDBRANCH   5   6
ENDBRANCH   1   5
BRANCH   1  18
HETATM   18  C   UNL     1       5.883  27.534  57.193  1.00  0.00     0.276 C 
BRANCH  18  19
HETATM   19  C   UNL     1       5.199  28.366  56.137  1.00  0.00    -0.003 A 
HETATM   20  C   UNL     1       4.853  27.841  54.869  1.00  0.00     0.069 A 
HETATM   21  C   UNL     1       4.196  28.577  53.882  1.00  0.00     0.012 A 
HETATM   22  N   UNL     1       5.022  26.597  54.302  1.00  0.00    -0.277 N 
HETATM   23  C   UNL     1       4.052  27.688  52.794  1.00  0.00     0.152 A 
HETATM   24  C   UNL     1       3.838  29.908  54.133  1.00  0.00     0.015 A 
HETATM   25  N   UNL     1       4.568  26.486  53.050  1.00  0.00    -0.186 NA
HETATM   26  C   UNL     1       4.141  30.458  55.376  1.00  0.00     0.002 A 
HETATM   27  C   UNL     1       4.797  29.703  56.353  1.00  0.00     0.011 A 
HETATM   28  H   UNL     1       5.439  25.767  54.705  1.00  0.00     0.189 HD
ENDBRANCH  18  19
ENDBRANCH   1  18
TORSDOF 6
ENDMDL
MODEL 9
REMARK VINA RESULT:      -8.7      2.019      4.087
REMARK  6 active torsions:
REMARK  status: ('A' for Active; 'I' for Inactive)
REMARK    1  A    between atoms: C_2  and  N_3 
REMARK    2  A    between atoms: N_3  and  C_5 
REMARK    3  A    between atoms: N_3  and  C_17 
REMARK    4  A    between atoms: C_5  and  C_6 
REMARK       I    between atoms: C_6  and  N_7 
REMARK    5  A    between atoms: N_7  and  C_8 
REMARK    6  A    between atoms: C_17  and  C_18 
ROOT
HETATM    1  N   UNL     1       7.592  27.133  56.855  1.00  0.00    -0.059 N 
HETATM    2  H   UNL     1       7.541  27.033  55.834  1.00  0.00     0.280 HD
ENDROOT
BRANCH   1   3
HETATM    3  C   UNL     1       8.624  28.213  57.155  1.00  0.00     0.231 C 
HETATM    4  C   UNL     1       8.118  29.178  58.208  1.00  0.00     0.034 C 
ENDBRANCH   1   3
BRANCH   1   5
HETATM    5  C   UNL     1       7.992  25.735  57.366  1.00  0.00     0.337 C 
BRANCH   5   6
HETATM    6  C   UNL     1       7.519  24.574  56.487  1.00  0.00     0.248 C 
HETATM    7  N   UNL     1       8.542  23.856  55.892  1.00  0.00    -0.325 N 
HETATM    8  H   UNL     1       9.458  24.275  55.839  1.00  0.00     0.169 HD
HETATM    9  O   UNL     1       6.318  24.423  56.280  1.00  0.00    -0.271 OA
BRANCH   7  10
HETATM   10  C   UNL     1       8.325  22.796  54.976  1.00  0.00     0.046 A 
HETATM   11  C   UNL     1       8.259  21.480  55.495  1.00  0.00    -0.035 A 
HETATM   12  C   UNL     1       8.483  21.170  56.951  1.00  0.00     0.050 C 
HETATM   13  C   UNL     1       8.039  20.405  54.620  1.00  0.00     0.009 A 
HETATM   14  C   UNL     1       7.879  20.620  53.256  1.00  0.00     0.001 A 
HETATM   15  C   UNL     1       7.916  21.916  52.752  1.00  0.00     0.009 A 
HETATM   16  C   UNL     1       8.112  23.021  53.600  1.00  0.00    -0.035 A 
HETATM   17  C   UNL     1       8.030  24.385  52.967  1.00  0.00     0.050 C 
ENDBRANCH   7  10
ENDBRANCH   5   6
ENDBRANCH   1   5
BRANCH   1  18
HETATM   18  C   UNL     1       6.210  27.552  57.314  1.00  0.00     0.276 C 
BRANCH  18  19
HETATM   19  C   UNL     1       5.381  28.305  56.303  1.00  0.00    -0.003 A 
HETATM   20  C   UNL     1       4.507  29.354  56.672  1.00  0.00     0.069 A 
HETATM   21  C   UNL     1       3.749  30.086  55.759  1.00  0.00     0.012 A 
HETATM   22  N   UNL     1       4.193  29.914  57.892  1.00  0.00    -0.277 N 
HETATM   23  C   UNL     1       3.027  31.016  56.539  1.00  0.00     0.152 A 
HETATM   24  C   UNL     1       3.843  29.796  54.391  1.00  0.00     0.015 A 
HETATM   25  N   UNL     1       3.292  30.899  57.839  1.00  0.00    -0.186 NA
HETATM   26  C   UNL     1       4.708  28.785  53.981  1.00  0.00     0.002 A 
HETATM   27  C   UNL     1       5.461  28.064  54.912  1.00  0.00     0.011 A 
HETATM   28  H   UNL     1       4.551  29.678  58.809  1.00  0.00     0.189 HD
ENDBRANCH  18  19
ENDBRANCH   1  18
TORSDOF 6
ENDMDL
MODEL 10
REMARK VINA RESULT:      -8.4      2.620      4.646
REMARK  6 active torsions:
REMARK  status: ('A' for Active; 'I' for Inactive)
REMARK    1  A    between atoms: C_2  and  N_3 
REMARK    2  A    between atoms: N_3  and  C_5 
REMARK    3  A    between atoms: N_3  and  C_17 
REMARK    4  A    between atoms: C_5  and  C_6 
REMARK       I    between atoms: C_6  and  N_7 
REMARK    5  A    between atoms: N_7  and  C_8 
REMARK    6  A    between atoms: C_17  and  C_18 
ROOT
HETATM    1  N   UNL     1       6.614  26.623  56.380  1.00  0.00    -0.059 N 
HETATM    2  H   UNL     1       6.510  26.241  55.432  1.00  0.00     0.280 HD
ENDROOT
BRANCH   1   3
HETATM    3  C   UNL     1       7.553  27.820  56.288  1.00  0.00     0.231 C 
HETATM    4  C   UNL     1       8.056  28.229  57.657  1.00  0.00     0.034 C 
ENDBRANCH   1   3
BRANCH   1   5
HETATM    5  C   UNL     1       7.178  25.456  57.214  1.00  0.00     0.337 C 
BRANCH   5   6
HETATM    6  C   UNL     1       7.940  24.403  56.405  1.00  0.00     0.248 C 
HETATM    7  N   UNL     1       7.129  23.497  55.742  1.00  0.00    -0.325 N 
HETATM    8  H   UNL     1       6.168  23.406  56.035  1.00  0.00     0.169 HD
HETATM    9  O   UNL     1       9.164  24.356  56.475  1.00  0.00    -0.271 OA
BRANCH   7  10
HETATM   10  C   UNL     1       7.627  22.392  55.006  1.00  0.00     0.046 A 
HETATM   11  C   UNL     1       7.704  22.521  53.598  1.00  0.00    -0.035 A 
HETATM   12  C   UNL     1       7.212  23.742  52.866  1.00  0.00     0.050 C 
HETATM   13  C   UNL     1       8.198  21.453  52.835  1.00  0.00     0.009 A 
HETATM   14  C   UNL     1       8.618  20.277  53.446  1.00  0.00     0.001 A 
HETATM   15  C   UNL     1       8.567  20.162  54.832  1.00  0.00     0.009 A 
HETATM   16  C   UNL     1       8.100  21.220  55.632  1.00  0.00    -0.035 A 
HETATM   17  C   UNL     1       8.186  21.032  57.123  1.00  0.00     0.050 C 
ENDBRANCH   7  10
ENDBRANCH   5   6
ENDBRANCH   1   5
BRANCH   1  18
HETATM   18  C   UNL     1       5.228  27.046  56.825  1.00  0.00     0.276 C 
BRANCH  18  19
HETATM   19  C   UNL     1       4.700  28.319  56.211  1.00  0.00    -0.003 A 
HETATM   20  C   UNL     1       4.289  28.393  54.859  1.00  0.00     0.069 A 
HETATM   21  C   UNL     1       3.772  29.546  54.270  1.00  0.00     0.012 A 
HETATM   22  N   UNL     1       4.261  27.459  53.846  1.00  0.00    -0.277 N 
HETATM   23  C   UNL     1       3.499  29.188  52.932  1.00  0.00     0.152 A 
HETATM   24  C   UNL     1       3.631  30.712  55.036  1.00  0.00     0.015 A 
HETATM   25  N   UNL     1       3.810  27.918  52.674  1.00  0.00    -0.186 NA
HETATM   26  C   UNL     1       4.003  30.678  56.378  1.00  0.00     0.002 A 
HETATM   27  C   UNL     1       4.518  29.510  56.950  1.00  0.00     0.011 A 
HETATM   28  H   UNL     1       4.534  26.485  53.873  1.00  0.00     0.189 HD
ENDBRANCH  18  19
ENDBRANCH   1  18
TORSDOF 6
ENDMDL
