MODEL 1
REMARK VINA RESULT:     -10.9      0.000      0.000
REMARK  7 active torsions:
REMARK  status: ('A' for Active; 'I' for Inactive)
REMARK    1  A    between atoms: C_3  and  O_4 
REMARK    2  A    between atoms: C_9  and  N_10 
REMARK    3  A    between atoms: C_13  and  C_14 
REMARK       I    between atoms: C_14  and  N_15 
REMARK    4  A    between atoms: N_15  and  C_16 
REMARK    5  A    between atoms: C_16  and  C_17 
REMARK    6  A    between atoms: C_17  and  N_18 
REMARK       I    between atoms: N_18  and  C_19 
REMARK    7  A    between atoms: C_19  and  C_20 
ROOT
HETATM    1  N   UNL     1       6.574  25.990  55.120  1.00  0.00    -0.268 NA
HETATM    2  C   UNL     1       7.498  27.059  54.714  1.00  0.00     0.098 C 
HETATM    3  C   UNL     1       6.885  28.418  55.043  1.00  0.00     0.029 C 
HETATM    4  C   UNL     1       6.509  28.533  56.525  1.00  0.00     0.080 C 
HETATM    5  C   UNL     1       5.636  27.341  56.939  1.00  0.00     0.029 C 
HETATM    6  C   UNL     1       6.260  25.996  56.559  1.00  0.00     0.098 C 
ENDROOT
BRANCH   4   7
HETATM    7  C   UNL     1       7.732  28.668  57.432  1.00  0.00     0.221 C 
HETATM    8  N   UNL     1       8.697  29.525  56.958  1.00  0.00    -0.359 N 
HETATM    9  H   UNL     1       8.609  29.946  56.044  1.00  0.00     0.162 HD
HETATM   10  O   UNL     1       7.836  28.096  58.512  1.00  0.00    -0.273 OA
BRANCH   8  11
HETATM   11  C   UNL     1       9.927  29.769  57.693  1.00  0.00     0.142 C 
BRANCH  11  12
HETATM   12  C   UNL     1      10.158  31.257  57.990  1.00  0.00     0.142 C 
BRANCH  12  13
HETATM   13  N   UNL     1       9.634  31.689  59.279  1.00  0.00    -0.355 N 
HETATM   14  C   UNL     1       8.293  31.970  59.442  1.00  0.00     0.251 C 
HETATM   15  O   UNL     1       7.497  31.983  58.509  1.00  0.00    -0.268 OA
HETATM   16  H   UNL     1      10.211  31.499  60.087  1.00  0.00     0.162 HD
BRANCH  14  17
HETATM   17  C   UNL     1       7.814  32.235  60.830  1.00  0.00     0.033 A 
HETATM   18  C   UNL     1       6.500  32.623  61.115  1.00  0.00     0.036 A 
HETATM   19  C   UNL     1       6.125  32.858  62.440  1.00  0.00     0.012 A 
HETATM   20 BR   UNL     1       4.352  33.395  62.826  1.00  0.00    -0.051 Br
HETATM   21  C   UNL     1       7.038  32.702  63.481  1.00  0.00     0.019 A 
HETATM   22  C   UNL     1       8.342  32.301  63.202  1.00  0.00     0.002 A 
HETATM   23  C   UNL     1       8.728  32.066  61.882  1.00  0.00     0.017 A 
ENDBRANCH  14  17
ENDBRANCH  12  13
ENDBRANCH  11  12
ENDBRANCH   8  11
ENDBRANCH   4   7
BRANCH   1  24
HETATM   24  C   UNL     1       6.994  24.722  54.654  1.00  0.00     0.106 A 
HETATM   25  N   UNL     1       7.390  23.780  55.538  1.00  0.00    -0.233 NA
HETATM   26  C   UNL     1       7.824  22.571  55.113  1.00  0.00     0.102 A 
HETATM   27  C   UNL     1       8.248  21.582  56.013  1.00  0.00     0.095 A 
HETATM   28  C   UNL     1       7.878  22.253  53.741  1.00  0.00    -0.004 A 
HETATM   29  C   UNL     1       8.700  20.327  55.589  1.00  0.00     0.039 A 
HETATM   30  C   UNL     1       8.736  20.033  54.231  1.00  0.00     0.004 A 
HETATM   31  C   UNL     1       8.327  20.993  53.308  1.00  0.00     0.014 A 
HETATM   32  C   UNL     1       7.482  23.229  52.827  1.00  0.00     0.017 A 
HETATM   33  C   UNL     1       7.051  24.470  53.286  1.00  0.00     0.045 A 
BRANCH  27  34
HETATM   34  O   UNL     1       8.223  21.852  57.363  1.00  0.00    -0.358 OA
HETATM   35  H   UNL     1       9.132  21.929  57.688  1.00  0.00     0.218 HD
ENDBRANCH  27  34
ENDBRANCH   1  24
TORSDOF 7
ENDMDL
MODEL 2
REMARK VINA RESULT:     -10.8      1.369      1.506
REMARK  7 active torsions:
REMARK  status: ('A' for Active; 'I' for Inactive)
REMARK    1  A    between atoms: C_3  and  O_4 
REMARK    2  A    between atoms: C_9  and  N_10 
REMARK    3  A    between atoms: C_13  and  C_14 
REMARK       I    between atoms: C_14  and  N_15 
REMARK    4  A    between atoms: N_15  and  C_16 
REMARK    5  A    between atoms: C_16  and  C_17 
REMARK    6  A    between atoms: C_17  and  N_18 
REMARK       I    between atoms: N_18  and  C_19 
REMARK    7  A    between atoms: C_19  and  C_20 
ROOT
HETATM    1  N   UNL     1       6.383  25.754  54.342  1.00  0.00    -0.268 NA
HETATM    2  C   UNL     1       7.306  26.745  53.770  1.00  0.00     0.098 C 
HETATM    3  C   UNL     1       6.605  28.099  53.672  1.00  0.00     0.029 C 
HETATM    4  C   UNL     1       6.055  28.558  55.027  1.00  0.00     0.080 C 
HETATM    5  C   UNL     1       5.187  27.453  55.644  1.00  0.00     0.029 C 
HETATM    6  C   UNL     1       5.904  26.101  55.690  1.00  0.00     0.098 C 
ENDROOT
BRANCH   4   7
HETATM    7  C   UNL     1       7.158  29.000  55.989  1.00  0.00     0.221 C 
HETATM    8  N   UNL     1       6.730  29.222  57.277  1.00  0.00    -0.359 N 
HETATM    9  H   UNL     1       5.749  29.169  57.512  1.00  0.00     0.162 HD
HETATM   10  O   UNL     1       8.334  29.114  55.660  1.00  0.00    -0.273 OA
BRANCH   8  11
HETATM   11  C   UNL     1       7.646  29.651  58.321  1.00  0.00     0.142 C 
BRANCH  11  12
HETATM   12  C   UNL     1       7.574  31.160  58.594  1.00  0.00     0.142 C 
BRANCH  12  13
HETATM   13  N   UNL     1       7.151  31.494  59.948  1.00  0.00    -0.355 N 
HETATM   14  C   UNL     1       7.901  32.340  60.737  1.00  0.00     0.251 C 
HETATM   15  O   UNL     1       9.002  32.765  60.400  1.00  0.00    -0.268 OA
HETATM   16  H   UNL     1       6.180  31.325  60.171  1.00  0.00     0.162 HD
BRANCH  14  17
HETATM   17  C   UNL     1       7.310  32.765  62.039  1.00  0.00     0.033 A 
HETATM   18  C   UNL     1       5.991  33.221  62.158  1.00  0.00     0.036 A 
HETATM   19  C   UNL     1       5.507  33.605  63.411  1.00  0.00     0.012 A 
HETATM   20 BR   UNL     1       3.730  34.233  63.571  1.00  0.00    -0.051 Br
HETATM   21  C   UNL     1       6.315  33.531  64.545  1.00  0.00     0.019 A 
HETATM   22  C   UNL     1       7.622  33.063  64.432  1.00  0.00     0.002 A 
HETATM   23  C   UNL     1       8.116  32.679  63.185  1.00  0.00     0.017 A 
ENDBRANCH  14  17
ENDBRANCH  12  13
ENDBRANCH  11  12
ENDBRANCH   8  11
ENDBRANCH   4   7
BRANCH   1  24
HETATM   24  C   UNL     1       6.904  24.440  54.264  1.00  0.00     0.106 A 
HETATM   25  N   UNL     1       7.311  23.813  55.390  1.00  0.00    -0.233 NA
HETATM   26  C   UNL     1       7.841  22.569  55.335  1.00  0.00     0.102 A 
HETATM   27  C   UNL     1       8.278  21.903  56.490  1.00  0.00     0.095 A 
HETATM   28  C   UNL     1       7.985  21.887  54.110  1.00  0.00    -0.004 A 
HETATM   29  C   UNL     1       8.828  20.617  56.450  1.00  0.00     0.039 A 
HETATM   30  C   UNL     1       8.953  19.960  55.231  1.00  0.00     0.004 A 
HETATM   31  C   UNL     1       8.534  20.593  54.064  1.00  0.00     0.014 A 
HETATM   32  C   UNL     1       7.578  22.539  52.946  1.00  0.00     0.017 A 
HETATM   33  C   UNL     1       7.047  23.824  53.025  1.00  0.00     0.045 A 
BRANCH  27  34
HETATM   34  O   UNL     1       8.166  22.536  57.708  1.00  0.00    -0.358 OA
HETATM   35  H   UNL     1       8.975  23.042  57.878  1.00  0.00     0.218 HD
ENDBRANCH  27  34
ENDBRANCH   1  24
TORSDOF 7
ENDMDL
MODEL 3
REMARK VINA RESULT:      -9.9      5.479      8.663
REMARK  7 active torsions:
REMARK  status: ('A' for Active; 'I' for Inactive)
REMARK    1  A    between atoms: C_3  and  O_4 
REMARK    2  A    between atoms: C_9  and  N_10 
REMARK    3  A    between atoms: C_13  and  C_14 
REMARK       I    between atoms: C_14  and  N_15 
REMARK    4  A    between atoms: N_15  and  C_16 
REMARK    5  A    between atoms: C_16  and  C_17 
REMARK    6  A    between atoms: C_17  and  N_18 
REMARK       I    between atoms: N_18  and  C_19 
REMARK    7  A    between atoms: C_19  and  C_20 
ROOT
HETATM    1  N   UNL     1       6.849  26.011  55.134  1.00  0.00    -0.268 NA
HETATM    2  C   UNL     1       5.422  26.069  55.481  1.00  0.00     0.098 C 
HETATM    3  C   UNL     1       5.126  27.375  56.216  1.00  0.00     0.029 C 
HETATM    4  C   UNL     1       5.557  28.600  55.401  1.00  0.00     0.080 C 
HETATM    5  C   UNL     1       7.020  28.452  54.963  1.00  0.00     0.029 C 
HETATM    6  C   UNL     1       7.291  27.115  54.266  1.00  0.00     0.098 C 
ENDROOT
BRANCH   4   7
HETATM    7  C   UNL     1       4.642  28.862  54.205  1.00  0.00     0.221 C 
HETATM    8  N   UNL     1       4.855  30.069  53.584  1.00  0.00    -0.359 N 
HETATM    9  H   UNL     1       5.510  30.738  53.964  1.00  0.00     0.162 HD
HETATM   10  O   UNL     1       3.812  28.053  53.802  1.00  0.00    -0.273 OA
BRANCH   8  11
HETATM   11  C   UNL     1       4.071  30.481  52.431  1.00  0.00     0.142 C 
BRANCH  11  12
HETATM   12  C   UNL     1       4.881  30.477  51.127  1.00  0.00     0.142 C 
BRANCH  12  13
HETATM   13  N   UNL     1       4.292  29.666  50.070  1.00  0.00    -0.355 N 
HETATM   14  C   UNL     1       4.522  28.307  50.007  1.00  0.00     0.251 C 
HETATM   15  O   UNL     1       5.308  27.729  50.751  1.00  0.00    -0.268 OA
HETATM   16  H   UNL     1       3.505  30.067  49.579  1.00  0.00     0.162 HD
BRANCH  14  17
HETATM   17  C   UNL     1       3.744  27.528  49.000  1.00  0.00     0.033 A 
HETATM   18  C   UNL     1       2.583  28.022  48.393  1.00  0.00     0.036 A 
HETATM   19  C   UNL     1       1.905  27.233  47.461  1.00  0.00     0.012 A 
HETATM   20 BR   UNL     1       0.330  27.895  46.649  1.00  0.00    -0.051 Br
HETATM   21  C   UNL     1       2.374  25.966  47.120  1.00  0.00     0.019 A 
HETATM   22  C   UNL     1       3.537  25.477  47.711  1.00  0.00     0.002 A 
HETATM   23  C   UNL     1       4.221  26.256  48.645  1.00  0.00     0.017 A 
ENDBRANCH  14  17
ENDBRANCH  12  13
ENDBRANCH  11  12
ENDBRANCH   8  11
ENDBRANCH   4   7
BRANCH   1  24
HETATM   24  C   UNL     1       7.222  24.739  54.639  1.00  0.00     0.106 A 
HETATM   25  N   UNL     1       7.563  23.758  55.503  1.00  0.00    -0.233 NA
HETATM   26  C   UNL     1       7.952  22.543  55.051  1.00  0.00     0.102 A 
HETATM   27  C   UNL     1       8.318  21.512  55.930  1.00  0.00     0.095 A 
HETATM   28  C   UNL     1       8.013  22.259  53.672  1.00  0.00    -0.004 A 
HETATM   29  C   UNL     1       8.722  20.251  55.479  1.00  0.00     0.039 A 
HETATM   30  C   UNL     1       8.768  19.992  54.114  1.00  0.00     0.004 A 
HETATM   31  C   UNL     1       8.415  20.993  53.212  1.00  0.00     0.014 A 
HETATM   32  C   UNL     1       7.675  23.276  52.779  1.00  0.00     0.017 A 
HETATM   33  C   UNL     1       7.290  24.522  53.266  1.00  0.00     0.045 A 
BRANCH  27  34
HETATM   34  O   UNL     1       8.282  21.747  57.287  1.00  0.00    -0.358 OA
HETATM   35  H   UNL     1       8.229  20.900  57.753  1.00  0.00     0.218 HD
ENDBRANCH  27  34
ENDBRANCH   1  24
TORSDOF 7
ENDMDL
MODEL 4
REMARK VINA RESULT:      -9.7      3.363     11.020
REMARK  7 active torsions:
REMARK  status: ('A' for Active; 'I' for Inactive)
REMARK    1  A    between atoms: C_3  and  O_4 
REMARK    2  A    between atoms: C_9  and  N_10 
REMARK    3  A    between atoms: C_13  and  C_14 
REMARK       I    between atoms: C_14  and  N_15 
REMARK    4  A    between atoms: N_15  and  C_16 
REMARK    5  A    between atoms: C_16  and  C_17 
REMARK    6  A    between atoms: C_17  and  N_18 
REMARK       I    between atoms: N_18  and  C_19 
REMARK    7  A    between atoms: C_19  and  C_20 
ROOT
HETATM    1  N   UNL     1       7.929  31.762  60.224  1.00  0.00    -0.268 NA
HETATM    2  C   UNL     1       6.827  31.709  59.252  1.00  0.00     0.098 C 
HETATM    3  C   UNL     1       7.390  31.473  57.852  1.00  0.00     0.029 C 
HETATM    4  C   UNL     1       8.257  30.211  57.789  1.00  0.00     0.080 C 
HETATM    5  C   UNL     1       9.326  30.252  58.889  1.00  0.00     0.029 C 
HETATM    6  C   UNL     1       8.733  30.530  60.273  1.00  0.00     0.098 C 
ENDROOT
BRANCH   4   7
HETATM    7  C   UNL     1       7.432  28.927  57.864  1.00  0.00     0.221 C 
HETATM    8  N   UNL     1       6.217  28.997  57.225  1.00  0.00    -0.359 N 
HETATM    9  H   UNL     1       5.893  29.866  56.824  1.00  0.00     0.162 HD
HETATM   10  O   UNL     1       7.827  27.902  58.411  1.00  0.00    -0.273 OA
BRANCH   8  11
HETATM   11  C   UNL     1       5.302  27.867  57.200  1.00  0.00     0.142 C 
BRANCH  11  12
HETATM   12  C   UNL     1       4.960  27.409  55.776  1.00  0.00     0.142 C 
BRANCH  12  13
HETATM   13  N   UNL     1       5.899  26.441  55.226  1.00  0.00    -0.355 N 
HETATM   14  C   UNL     1       5.978  25.160  55.733  1.00  0.00     0.251 C 
HETATM   15  O   UNL     1       5.358  24.799  56.728  1.00  0.00    -0.268 OA
HETATM   16  H   UNL     1       6.267  26.642  54.306  1.00  0.00     0.162 HD
BRANCH  14  17
HETATM   17  C   UNL     1       6.839  24.187  55.001  1.00  0.00     0.033 A 
HETATM   18  C   UNL     1       7.320  23.011  55.589  1.00  0.00     0.036 A 
HETATM   19  C   UNL     1       8.125  22.148  54.842  1.00  0.00     0.012 A 
HETATM   20 BR   UNL     1       8.787  20.565  55.639  1.00  0.00    -0.051 Br
HETATM   21  C   UNL     1       8.446  22.436  53.517  1.00  0.00     0.019 A 
HETATM   22  C   UNL     1       7.956  23.598  52.923  1.00  0.00     0.002 A 
HETATM   23  C   UNL     1       7.153  24.468  53.662  1.00  0.00     0.017 A 
ENDBRANCH  14  17
ENDBRANCH  12  13
ENDBRANCH  11  12
ENDBRANCH   8  11
ENDBRANCH   4   7
BRANCH   1  24
HETATM   24  C   UNL     1       7.489  32.184  61.500  1.00  0.00     0.106 A 
HETATM   25  N   UNL     1       6.212  32.594  61.666  1.00  0.00    -0.233 NA
HETATM   26  C   UNL     1       5.777  33.030  62.871  1.00  0.00     0.102 A 
HETATM   27  C   UNL     1       4.458  33.468  63.064  1.00  0.00     0.095 A 
HETATM   28  C   UNL     1       6.634  33.071  63.989  1.00  0.00    -0.004 A 
HETATM   29  C   UNL     1       3.993  33.923  64.303  1.00  0.00     0.039 A 
HETATM   30  C   UNL     1       4.855  33.946  65.394  1.00  0.00     0.004 A 
HETATM   31  C   UNL     1       6.172  33.523  65.238  1.00  0.00     0.014 A 
HETATM   32  C   UNL     1       7.956  32.661  63.815  1.00  0.00     0.017 A 
HETATM   33  C   UNL     1       8.385  32.228  62.564  1.00  0.00     0.045 A 
BRANCH  27  34
HETATM   34  O   UNL     1       3.587  33.456  61.997  1.00  0.00    -0.358 OA
HETATM   35  H   UNL     1       3.939  32.874  61.308  1.00  0.00     0.218 HD
ENDBRANCH  27  34
ENDBRANCH   1  24
TORSDOF 7
ENDMDL
MODEL 5
REMARK VINA RESULT:      -9.6      3.156     10.237
REMARK  7 active torsions:
REMARK  status: ('A' for Active; 'I' for Inactive)
REMARK    1  A    between atoms: C_3  and  O_4 
REMARK    2  A    between atoms: C_9  and  N_10 
REMARK    3  A    between atoms: C_13  and  C_14 
REMARK       I    between atoms: C_14  and  N_15 
REMARK    4  A    between atoms: N_15  and  C_16 
REMARK    5  A    between atoms: C_16  and  C_17 
REMARK    6  A    between atoms: C_17  and  N_18 
REMARK       I    between atoms: N_18  and  C_19 
REMARK    7  A    between atoms: C_19  and  C_20 
ROOT
HETATM    1  N   UNL     1       8.805  29.774  58.610  1.00  0.00    -0.268 NA
HETATM    2  C   UNL     1       9.017  30.568  57.390  1.00  0.00     0.098 C 
HETATM    3  C   UNL     1       9.634  29.686  56.306  1.00  0.00     0.029 C 
HETATM    4  C   UNL     1       8.783  28.443  56.028  1.00  0.00     0.080 C 
HETATM    5  C   UNL     1       8.490  27.701  57.339  1.00  0.00     0.029 C 
HETATM    6  C   UNL     1       7.911  28.622  58.416  1.00  0.00     0.098 C 
ENDROOT
BRANCH   4   7
HETATM    7  C   UNL     1       7.495  28.769  55.274  1.00  0.00     0.221 C 
HETATM    8  N   UNL     1       7.414  28.210  54.020  1.00  0.00    -0.359 N 
HETATM    9  H   UNL     1       8.196  27.702  53.630  1.00  0.00     0.162 HD
HETATM   10  O   UNL     1       6.586  29.441  55.752  1.00  0.00    -0.273 OA
BRANCH   8  11
HETATM   11  C   UNL     1       6.258  28.421  53.164  1.00  0.00     0.142 C 
BRANCH  11  12
HETATM   12  C   UNL     1       5.434  27.144  52.951  1.00  0.00     0.142 C 
BRANCH  12  13
HETATM   13  N   UNL     1       6.216  25.918  53.032  1.00  0.00    -0.355 N 
HETATM   14  C   UNL     1       6.329  25.225  54.219  1.00  0.00     0.251 C 
HETATM   15  O   UNL     1       5.885  25.647  55.282  1.00  0.00    -0.268 OA
HETATM   16  H   UNL     1       6.419  25.454  52.157  1.00  0.00     0.162 HD
BRANCH  14  17
HETATM   17  C   UNL     1       7.001  23.894  54.173  1.00  0.00     0.033 A 
HETATM   18  C   UNL     1       7.282  23.148  55.323  1.00  0.00     0.036 A 
HETATM   19  C   UNL     1       7.917  21.910  55.202  1.00  0.00     0.012 A 
HETATM   20 BR   UNL     1       8.310  20.906  56.757  1.00  0.00    -0.051 Br
HETATM   21  C   UNL     1       8.264  21.402  53.951  1.00  0.00     0.019 A 
HETATM   22  C   UNL     1       7.972  22.135  52.803  1.00  0.00     0.002 A 
HETATM   23  C   UNL     1       7.340  23.375  52.914  1.00  0.00     0.017 A 
ENDBRANCH  14  17
ENDBRANCH  12  13
ENDBRANCH  11  12
ENDBRANCH   8  11
ENDBRANCH   4   7
BRANCH   1  24
HETATM   24  C   UNL     1       8.431  30.584  59.709  1.00  0.00     0.106 A 
HETATM   25  N   UNL     1       7.323  31.353  59.628  1.00  0.00    -0.233 NA
HETATM   26  C   UNL     1       6.964  32.157  60.655  1.00  0.00     0.102 A 
HETATM   27  C   UNL     1       5.822  32.970  60.589  1.00  0.00     0.095 A 
HETATM   28  C   UNL     1       7.726  32.221  61.838  1.00  0.00    -0.004 A 
HETATM   29  C   UNL     1       5.437  33.808  61.641  1.00  0.00     0.039 A 
HETATM   30  C   UNL     1       6.200  33.847  62.802  1.00  0.00     0.004 A 
HETATM   31  C   UNL     1       7.343  33.057  62.901  1.00  0.00     0.014 A 
HETATM   32  C   UNL     1       8.878  31.437  61.917  1.00  0.00     0.017 A 
HETATM   33  C   UNL     1       9.236  30.627  60.843  1.00  0.00     0.045 A 
BRANCH  27  34
HETATM   34  O   UNL     1       5.052  32.949  59.447  1.00  0.00    -0.358 OA
HETATM   35  H   UNL     1       5.556  33.340  58.718  1.00  0.00     0.218 HD
ENDBRANCH  27  34
ENDBRANCH   1  24
TORSDOF 7
ENDMDL
MODEL 6
REMARK VINA RESULT:      -9.5      4.782      7.551
REMARK  7 active torsions:
REMARK  status: ('A' for Active; 'I' for Inactive)
REMARK    1  A    between atoms: C_3  and  O_4 
REMARK    2  A    between atoms: C_9  and  N_10 
REMARK    3  A    between atoms: C_13  and  C_14 
REMARK       I    between atoms: C_14  and  N_15 
REMARK    4  A    between atoms: N_15  and  C_16 
REMARK    5  A    between atoms: C_16  and  C_17 
REMARK    6  A    between atoms: C_17  and  N_18 
REMARK       I    between atoms: N_18  and  C_19 
REMARK    7  A    between atoms: C_19  and  C_20 
ROOT
HETATM    1  N   UNL     1       7.594  26.427  55.479  1.00  0.00    -0.268 NA
HETATM    2  C   UNL     1       6.629  26.406  56.588  1.00  0.00     0.098 C 
HETATM    3  C   UNL     1       6.754  27.694  57.399  1.00  0.00     0.029 C 
HETATM    4  C   UNL     1       6.579  28.941  56.524  1.00  0.00     0.080 C 
HETATM    5  C   UNL     1       7.524  28.873  55.317  1.00  0.00     0.029 C 
HETATM    6  C   UNL     1       7.402  27.553  54.550  1.00  0.00     0.098 C 
ENDROOT
BRANCH   4   7
HETATM    7  C   UNL     1       5.131  29.151  56.084  1.00  0.00     0.221 C 
HETATM    8  N   UNL     1       4.892  30.364  55.484  1.00  0.00    -0.359 N 
HETATM    9  H   UNL     1       5.617  31.066  55.431  1.00  0.00     0.162 HD
HETATM   10  O   UNL     1       4.256  28.301  56.216  1.00  0.00    -0.273 OA
BRANCH   8  11
HETATM   11  C   UNL     1       3.568  30.732  55.008  1.00  0.00     0.142 C 
BRANCH  11  12
HETATM   12  C   UNL     1       3.530  30.994  53.496  1.00  0.00     0.142 C 
BRANCH  12  13
HETATM   13  N   UNL     1       3.558  29.782  52.687  1.00  0.00    -0.355 N 
HETATM   14  C   UNL     1       4.122  29.782  51.428  1.00  0.00     0.251 C 
HETATM   15  O   UNL     1       4.524  30.802  50.878  1.00  0.00    -0.268 OA
HETATM   16  H   UNL     1       3.421  28.909  53.178  1.00  0.00     0.162 HD
BRANCH  14  17
HETATM   17  C   UNL     1       4.263  28.464  50.743  1.00  0.00     0.033 A 
HETATM   18  C   UNL     1       3.642  28.176  49.522  1.00  0.00     0.036 A 
HETATM   19  C   UNL     1       3.818  26.918  48.941  1.00  0.00     0.012 A 
HETATM   20 BR   UNL     1       2.969  26.522  47.297  1.00  0.00    -0.051 Br
HETATM   21  C   UNL     1       4.611  25.950  49.555  1.00  0.00     0.019 A 
HETATM   22  C   UNL     1       5.243  26.239  50.763  1.00  0.00     0.002 A 
HETATM   23  C   UNL     1       5.072  27.492  51.353  1.00  0.00     0.017 A 
ENDBRANCH  14  17
ENDBRANCH  12  13
ENDBRANCH  11  12
ENDBRANCH   8  11
ENDBRANCH   4   7
BRANCH   1  24
HETATM   24  C   UNL     1       7.668  25.176  54.820  1.00  0.00     0.106 A 
HETATM   25  N   UNL     1       7.888  24.053  55.538  1.00  0.00    -0.233 NA
HETATM   26  C   UNL     1       7.994  22.851  54.926  1.00  0.00     0.102 A 
HETATM   27  C   UNL     1       8.230  21.673  55.650  1.00  0.00     0.095 A 
HETATM   28  C   UNL     1       7.878  22.728  53.527  1.00  0.00    -0.004 A 
HETATM   29  C   UNL     1       8.342  20.423  55.032  1.00  0.00     0.039 A 
HETATM   30  C   UNL     1       8.216  20.325  53.651  1.00  0.00     0.004 A 
HETATM   31  C   UNL     1       7.985  21.474  52.899  1.00  0.00     0.014 A 
HETATM   32  C   UNL     1       7.664  23.889  52.783  1.00  0.00     0.017 A 
HETATM   33  C   UNL     1       7.572  25.117  53.433  1.00  0.00     0.045 A 
BRANCH  27  34
HETATM   34  O   UNL     1       8.361  21.746  57.020  1.00  0.00    -0.358 OA
HETATM   35  H   UNL     1       7.482  21.837  57.417  1.00  0.00     0.218 HD
ENDBRANCH  27  34
ENDBRANCH   1  24
TORSDOF 7
ENDMDL
MODEL 7
REMARK VINA RESULT:      -9.4      3.545     10.507
REMARK  7 active torsions:
REMARK  status: ('A' for Active; 'I' for Inactive)
REMARK    1  A    between atoms: C_3  and  O_4 
REMARK    2  A    between atoms: C_9  and  N_10 
REMARK    3  A    between atoms: C_13  and  C_14 
REMARK       I    between atoms: C_14  and  N_15 
REMARK    4  A    between atoms: N_15  and  C_16 
REMARK    5  A    between atoms: C_16  and  C_17 
REMARK    6  A    between atoms: C_17  and  N_18 
REMARK       I    between atoms: N_18  and  C_19 
REMARK    7  A    between atoms: C_19  and  C_20 
ROOT
HETATM    1  N   UNL     1       4.551  32.113  58.095  1.00  0.00    -0.268 NA
HETATM    2  C   UNL     1       3.831  30.841  58.257  1.00  0.00     0.098 C 
HETATM    3  C   UNL     1       3.147  30.468  56.943  1.00  0.00     0.029 C 
HETATM    4  C   UNL     1       4.142  30.407  55.778  1.00  0.00     0.080 C 
HETATM    5  C   UNL     1       4.952  31.709  55.709  1.00  0.00     0.029 C 
HETATM    6  C   UNL     1       5.590  32.074  57.052  1.00  0.00     0.098 C 
ENDROOT
BRANCH   4   7
HETATM    7  C   UNL     1       5.057  29.186  55.851  1.00  0.00     0.221 C 
HETATM    8  N   UNL     1       6.305  29.380  55.308  1.00  0.00    -0.359 N 
HETATM    9  H   UNL     1       6.533  30.243  54.834  1.00  0.00     0.162 HD
HETATM   10  O   UNL     1       4.730  28.129  56.382  1.00  0.00    -0.273 OA
BRANCH   8  11
HETATM   11  C   UNL     1       7.302  28.322  55.290  1.00  0.00     0.142 C 
BRANCH  11  12
HETATM   12  C   UNL     1       7.189  27.417  54.055  1.00  0.00     0.142 C 
BRANCH  12  13
HETATM   13  N   UNL     1       7.302  25.996  54.354  1.00  0.00    -0.355 N 
HETATM   14  C   UNL     1       7.435  25.066  53.344  1.00  0.00     0.251 C 
HETATM   15  O   UNL     1       7.353  25.358  52.155  1.00  0.00    -0.268 OA
HETATM   16  H   UNL     1       7.566  25.754  55.300  1.00  0.00     0.162 HD
BRANCH  14  17
HETATM   17  C   UNL     1       7.719  23.658  53.744  1.00  0.00     0.033 A 
HETATM   18  C   UNL     1       7.825  23.257  55.081  1.00  0.00     0.036 A 
HETATM   19  C   UNL     1       8.097  21.920  55.379  1.00  0.00     0.012 A 
HETATM   20 BR   UNL     1       8.254  21.380  57.185  1.00  0.00    -0.051 Br
HETATM   21  C   UNL     1       8.252  20.977  54.364  1.00  0.00     0.019 A 
HETATM   22  C   UNL     1       8.132  21.369  53.032  1.00  0.00     0.002 A 
HETATM   23  C   UNL     1       7.863  22.703  52.724  1.00  0.00     0.017 A 
ENDBRANCH  14  17
ENDBRANCH  12  13
ENDBRANCH  11  12
ENDBRANCH   8  11
ENDBRANCH   4   7
BRANCH   1  24
HETATM   24  C   UNL     1       5.028  32.612  59.330  1.00  0.00     0.106 A 
HETATM   25  N   UNL     1       5.995  31.941  59.994  1.00  0.00    -0.233 NA
HETATM   26  C   UNL     1       6.445  32.383  61.192  1.00  0.00     0.102 A 
HETATM   27  C   UNL     1       7.442  31.698  61.902  1.00  0.00     0.095 A 
HETATM   28  C   UNL     1       5.926  33.551  61.784  1.00  0.00    -0.004 A 
HETATM   29  C   UNL     1       7.918  32.141  63.141  1.00  0.00     0.039 A 
HETATM   30  C   UNL     1       7.396  33.301  63.702  1.00  0.00     0.004 A 
HETATM   31  C   UNL     1       6.402  34.005  63.027  1.00  0.00     0.014 A 
HETATM   32  C   UNL     1       4.918  34.237  61.105  1.00  0.00     0.017 A 
HETATM   33  C   UNL     1       4.462  33.757  59.881  1.00  0.00     0.045 A 
BRANCH  27  34
HETATM   34  O   UNL     1       7.972  30.544  61.367  1.00  0.00    -0.358 OA
HETATM   35  H   UNL     1       7.942  29.842  62.034  1.00  0.00     0.218 HD
ENDBRANCH  27  34
ENDBRANCH   1  24
TORSDOF 7
ENDMDL
MODEL 8
REMARK VINA RESULT:      -9.4      2.186      2.941
REMARK  7 active torsions:
REMARK  status: ('A' for Active; 'I' for Inactive)
REMARK    1  A    between atoms: C_3  and  O_4 
REMARK    2  A    between atoms: C_9  and  N_10 
REMARK    3  A    between atoms: C_13  and  C_14 
REMARK       I    between atoms: C_14  and  N_15 
REMARK    4  A    between atoms: N_15  and  C_16 
REMARK    5  A    between atoms: C_16  and  C_17 
REMARK    6  A    between atoms: C_17  and  N_18 
REMARK       I    between atoms: N_18  and  C_19 
REMARK    7  A    between atoms: C_19  and  C_20 
ROOT
HETATM    1  N   UNL     1       8.148  26.903  56.106  1.00  0.00    -0.268 NA
HETATM    2  C   UNL     1       7.386  27.035  57.357  1.00  0.00     0.098 C 
HETATM    3  C   UNL     1       7.796  28.320  58.073  1.00  0.00     0.029 C 
HETATM    4  C   UNL     1       7.627  29.553  57.179  1.00  0.00     0.080 C 
HETATM    5  C   UNL     1       8.343  29.333  55.840  1.00  0.00     0.029 C 
HETATM    6  C   UNL     1       7.940  28.018  55.167  1.00  0.00     0.098 C 
ENDROOT
BRANCH   4   7
HETATM    7  C   UNL     1       6.160  29.930  56.969  1.00  0.00     0.221 C 
HETATM    8  N   UNL     1       5.442  30.077  58.132  1.00  0.00    -0.359 N 
HETATM    9  H   UNL     1       5.859  29.863  59.027  1.00  0.00     0.162 HD
HETATM   10  O   UNL     1       5.666  30.126  55.863  1.00  0.00    -0.273 OA
BRANCH   8  11
HETATM   11  C   UNL     1       4.032  30.431  58.117  1.00  0.00     0.142 C 
BRANCH  11  12
HETATM   12  C   UNL     1       3.719  31.669  58.969  1.00  0.00     0.142 C 
BRANCH  12  13
HETATM   13  N   UNL     1       4.766  32.006  59.924  1.00  0.00    -0.355 N 
HETATM   14  C   UNL     1       4.456  32.535  61.160  1.00  0.00     0.251 C 
HETATM   15  O   UNL     1       3.315  32.852  61.481  1.00  0.00    -0.268 OA
HETATM   16  H   UNL     1       5.670  31.582  59.770  1.00  0.00     0.162 HD
BRANCH  14  17
HETATM   17  C   UNL     1       5.571  32.687  62.138  1.00  0.00     0.033 A 
HETATM   18  C   UNL     1       5.380  33.184  63.433  1.00  0.00     0.036 A 
HETATM   19  C   UNL     1       6.474  33.302  64.293  1.00  0.00     0.012 A 
HETATM   20 BR   UNL     1       6.219  33.984  66.039  1.00  0.00    -0.051 Br
HETATM   21  C   UNL     1       7.751  32.922  63.884  1.00  0.00     0.019 A 
HETATM   22  C   UNL     1       7.943  32.414  62.601  1.00  0.00     0.002 A 
HETATM   23  C   UNL     1       6.856  32.294  61.733  1.00  0.00     0.017 A 
ENDBRANCH  14  17
ENDBRANCH  12  13
ENDBRANCH  11  12
ENDBRANCH   8  11
ENDBRANCH   4   7
BRANCH   1  24
HETATM   24  C   UNL     1       7.964  25.635  55.505  1.00  0.00     0.106 A 
HETATM   25  N   UNL     1       8.116  24.515  56.245  1.00  0.00    -0.233 NA
HETATM   26  C   UNL     1       7.974  23.292  55.684  1.00  0.00     0.102 A 
HETATM   27  C   UNL     1       8.136  22.115  56.431  1.00  0.00     0.095 A 
HETATM   28  C   UNL     1       7.664  23.144  54.318  1.00  0.00    -0.004 A 
HETATM   29  C   UNL     1       7.993  20.843  55.867  1.00  0.00     0.039 A 
HETATM   30  C   UNL     1       7.679  20.722  54.518  1.00  0.00     0.004 A 
HETATM   31  C   UNL     1       7.515  21.868  53.744  1.00  0.00     0.014 A 
HETATM   32  C   UNL     1       7.521  24.299  53.550  1.00  0.00     0.017 A 
HETATM   33  C   UNL     1       7.683  25.547  54.145  1.00  0.00     0.045 A 
BRANCH  27  34
HETATM   34  O   UNL     1       8.450  22.211  57.769  1.00  0.00    -0.358 OA
HETATM   35  H   UNL     1       7.803  22.787  58.206  1.00  0.00     0.218 HD
ENDBRANCH  27  34
ENDBRANCH   1  24
TORSDOF 7
ENDMDL
MODEL 9
REMARK VINA RESULT:      -9.1      4.160     11.784
REMARK  7 active torsions:
REMARK  status: ('A' for Active; 'I' for Inactive)
REMARK    1  A    between atoms: C_3  and  O_4 
REMARK    2  A    between atoms: C_9  and  N_10 
REMARK    3  A    between atoms: C_13  and  C_14 
REMARK       I    between atoms: C_14  and  N_15 
REMARK    4  A    between atoms: N_15  and  C_16 
REMARK    5  A    between atoms: C_16  and  C_17 
REMARK    6  A    between atoms: C_17  and  N_18 
REMARK       I    between atoms: N_18  and  C_19 
REMARK    7  A    between atoms: C_19  and  C_20 
ROOT
HETATM    1  N   UNL     1       4.669  33.044  61.077  1.00  0.00    -0.268 NA
HETATM    2  C   UNL     1       4.067  31.712  60.925  1.00  0.00     0.098 C 
HETATM    3  C   UNL     1       3.273  31.655  59.621  1.00  0.00     0.029 C 
HETATM    4  C   UNL     1       4.136  32.025  58.409  1.00  0.00     0.080 C 
HETATM    5  C   UNL     1       4.836  33.369  58.652  1.00  0.00     0.029 C 
HETATM    6  C   UNL     1       5.588  33.406  59.986  1.00  0.00     0.098 C 
ENDROOT
BRANCH   4   7
HETATM    7  C   UNL     1       5.142  30.932  58.049  1.00  0.00     0.221 C 
HETATM    8  N   UNL     1       4.573  29.720  57.737  1.00  0.00    -0.359 N 
HETATM    9  H   UNL     1       3.578  29.577  57.831  1.00  0.00     0.162 HD
HETATM   10  O   UNL     1       6.354  31.120  58.002  1.00  0.00    -0.273 OA
BRANCH   8  11
HETATM   11  C   UNL     1       5.384  28.568  57.374  1.00  0.00     0.142 C 
BRANCH  11  12
HETATM   12  C   UNL     1       4.801  27.778  56.195  1.00  0.00     0.142 C 
BRANCH  12  13
HETATM   13  N   UNL     1       5.736  26.832  55.600  1.00  0.00    -0.355 N 
HETATM   14  C   UNL     1       5.745  25.506  55.982  1.00  0.00     0.251 C 
HETATM   15  O   UNL     1       5.061  25.075  56.904  1.00  0.00    -0.268 OA
HETATM   16  H   UNL     1       6.159  27.107  54.724  1.00  0.00     0.162 HD
BRANCH  14  17
HETATM   17  C   UNL     1       6.611  24.576  55.202  1.00  0.00     0.033 A 
HETATM   18  C   UNL     1       7.169  23.418  55.756  1.00  0.00     0.036 A 
HETATM   19  C   UNL     1       7.974  22.595  54.965  1.00  0.00     0.012 A 
HETATM   20 BR   UNL     1       8.740  21.037  55.716  1.00  0.00    -0.051 Br
HETATM   21  C   UNL     1       8.220  22.906  53.628  1.00  0.00     0.019 A 
HETATM   22  C   UNL     1       7.653  24.049  53.069  1.00  0.00     0.002 A 
HETATM   23  C   UNL     1       6.850  24.879  53.852  1.00  0.00     0.017 A 
ENDBRANCH  14  17
ENDBRANCH  12  13
ENDBRANCH  11  12
ENDBRANCH   8  11
ENDBRANCH   4   7
BRANCH   1  24
HETATM   24  C   UNL     1       5.240  33.222  62.360  1.00  0.00     0.106 A 
HETATM   25  N   UNL     1       4.483  33.707  63.369  1.00  0.00    -0.233 NA
HETATM   26  C   UNL     1       5.017  33.914  64.595  1.00  0.00     0.102 A 
HETATM   27  C   UNL     1       4.252  34.424  65.655  1.00  0.00     0.095 A 
HETATM   28  C   UNL     1       6.371  33.633  64.862  1.00  0.00    -0.004 A 
HETATM   29  C   UNL     1       4.788  34.645  66.928  1.00  0.00     0.039 A 
HETATM   30  C   UNL     1       6.125  34.352  67.171  1.00  0.00     0.004 A 
HETATM   31  C   UNL     1       6.916  33.848  66.141  1.00  0.00     0.014 A 
HETATM   32  C   UNL     1       7.157  33.145  63.818  1.00  0.00     0.017 A 
HETATM   33  C   UNL     1       6.590  32.952  62.561  1.00  0.00     0.045 A 
BRANCH  27  34
HETATM   34  O   UNL     1       2.925  34.724  65.437  1.00  0.00    -0.358 OA
HETATM   35  H   UNL     1       2.385  34.268  66.100  1.00  0.00     0.218 HD
ENDBRANCH  27  34
ENDBRANCH   1  24
TORSDOF 7
ENDMDL
MODEL 10
REMARK VINA RESULT:      -9.0      5.280      8.101
REMARK  7 active torsions:
REMARK  status: ('A' for Active; 'I' for Inactive)
REMARK    1  A    between atoms: C_3  and  O_4 
REMARK    2  A    between atoms: C_9  and  N_10 
REMARK    3  A    between atoms: C_13  and  C_14 
REMARK       I    between atoms: C_14  and  N_15 
REMARK    4  A    between atoms: N_15  and  C_16 
REMARK    5  A    between atoms: C_16  and  C_17 
REMARK    6  A    between atoms: C_17  and  N_18 
REMARK       I    between atoms: N_18  and  C_19 
REMARK    7  A    between atoms: C_19  and  C_20 
ROOT
HETATM    1  N   UNL     1       7.398  26.259  55.437  1.00  0.00    -0.268 NA
HETATM    2  C   UNL     1       6.212  26.284  56.306  1.00  0.00     0.098 C 
HETATM    3  C   UNL     1       6.202  27.576  57.121  1.00  0.00     0.029 C 
HETATM    4  C   UNL     1       6.270  28.818  56.225  1.00  0.00     0.080 C 
HETATM    5  C   UNL     1       7.455  28.704  55.257  1.00  0.00     0.029 C 
HETATM    6  C   UNL     1       7.458  27.381  54.486  1.00  0.00     0.098 C 
ENDROOT
BRANCH   4   7
HETATM    7  C   UNL     1       4.963  29.074  55.475  1.00  0.00     0.221 C 
HETATM    8  N   UNL     1       5.097  29.859  54.355  1.00  0.00    -0.359 N 
HETATM    9  H   UNL     1       5.985  30.282  54.124  1.00  0.00     0.162 HD
HETATM   10  O   UNL     1       3.886  28.593  55.814  1.00  0.00    -0.273 OA
BRANCH   8  11
HETATM   11  C   UNL     1       3.954  30.205  53.525  1.00  0.00     0.142 C 
BRANCH  11  12
HETATM   12  C   UNL     1       3.791  29.272  52.317  1.00  0.00     0.142 C 
BRANCH  12  13
HETATM   13  N   UNL     1       3.791  29.963  51.035  1.00  0.00    -0.355 N 
HETATM   14  C   UNL     1       4.962  30.153  50.331  1.00  0.00     0.251 C 
HETATM   15  O   UNL     1       6.065  29.860  50.782  1.00  0.00    -0.268 OA
HETATM   16  H   UNL     1       2.901  30.033  50.561  1.00  0.00     0.162 HD
BRANCH  14  17
HETATM   17  C   UNL     1       4.849  30.712  48.953  1.00  0.00     0.033 A 
HETATM   18  C   UNL     1       5.426  31.932  48.581  1.00  0.00     0.036 A 
HETATM   19  C   UNL     1       5.275  32.394  47.272  1.00  0.00     0.012 A 
HETATM   20 BR   UNL     1       6.045  34.049  46.772  1.00  0.00    -0.051 Br
HETATM   21  C   UNL     1       4.566  31.653  46.328  1.00  0.00     0.019 A 
HETATM   22  C   UNL     1       4.002  30.432  46.691  1.00  0.00     0.002 A 
HETATM   23  C   UNL     1       4.146  29.962  47.997  1.00  0.00     0.017 A 
ENDBRANCH  14  17
ENDBRANCH  12  13
ENDBRANCH  11  12
ENDBRANCH   8  11
ENDBRANCH   4   7
BRANCH   1  24
HETATM   24  C   UNL     1       7.571  25.000  54.815  1.00  0.00     0.106 A 
HETATM   25  N   UNL     1       7.826  23.909  55.570  1.00  0.00    -0.233 NA
HETATM   26  C   UNL     1       8.026  22.700  54.994  1.00  0.00     0.102 A 
HETATM   27  C   UNL     1       8.301  21.557  55.758  1.00  0.00     0.095 A 
HETATM   28  C   UNL     1       7.972  22.538  53.596  1.00  0.00    -0.004 A 
HETATM   29  C   UNL     1       8.509  20.300  55.178  1.00  0.00     0.039 A 
HETATM   30  C   UNL     1       8.444  20.162  53.797  1.00  0.00     0.004 A 
HETATM   31  C   UNL     1       8.177  21.277  53.006  1.00  0.00     0.014 A 
HETATM   32  C   UNL     1       7.722  23.666  52.814  1.00  0.00     0.017 A 
HETATM   33  C   UNL     1       7.533  24.901  53.427  1.00  0.00     0.045 A 
BRANCH  27  34
HETATM   34  O   UNL     1       8.372  21.670  57.129  1.00  0.00    -0.358 OA
HETATM   35  H   UNL     1       9.119  21.143  57.452  1.00  0.00     0.218 HD
ENDBRANCH  27  34
ENDBRANCH   1  24
TORSDOF 7
ENDMDL
