MODEL 1
REMARK VINA RESULT:      -8.9      0.000      0.000
REMARK  4 active torsions:
REMARK  status: ('A' for Active; 'I' for Inactive)
REMARK    1  A    between atoms: C_5  and  N_6 
REMARK       I    between atoms: N_6  and  C_7 
REMARK    2  A    between atoms: C_7  and  C_8 
REMARK    3  A    between atoms: C_12  and  C_13 
REMARK    4  A    between atoms: C_15  and  O_16 
ROOT
HETATM    1  C   UNL     1       8.218  28.647  57.674  1.00  0.00     0.120 A 
HETATM    2  N   UNL     1       6.872  28.423  57.744  1.00  0.00    -0.272 N 
HETATM    3  H   UNL     1       6.174  29.041  58.146  1.00  0.00     0.189 HD
HETATM    4  N   UNL     1       6.477  27.262  57.200  1.00  0.00    -0.174 NA
HETATM    5  C   UNL     1       7.614  26.672  56.797  1.00  0.00     0.089 A 
HETATM    6  C   UNL     1       8.728  27.516  57.070  1.00  0.00     0.071 A 
ENDROOT
BRANCH   1   7
HETATM    7  C   UNL     1       8.810  29.855  58.183  1.00  0.00     0.270 C 
HETATM    8  N   UNL     1       8.409  30.205  59.453  1.00  0.00    -0.351 N 
HETATM    9  H   UNL     1       7.877  29.532  59.983  1.00  0.00     0.163 HD
HETATM   10  O   UNL     1       9.619  30.508  57.534  1.00  0.00    -0.266 OA
BRANCH   8  11
HETATM   11  C   UNL     1       8.980  31.344  60.165  1.00  0.00     0.084 C 
HETATM   12  C   UNL     1       7.922  32.436  60.363  1.00  0.00     0.025 C 
HETATM   13  C   UNL     1       6.868  32.063  61.410  1.00  0.00     0.006 C 
HETATM   14  C   UNL     1       7.476  31.622  62.749  1.00  0.00    -0.019 C 
HETATM   15  C   UNL     1       8.034  32.813  63.533  1.00  0.00     0.010 C 
HETATM   16  C   UNL     1       8.535  30.532  62.539  1.00  0.00     0.006 C 
HETATM   17  C   UNL     1       9.594  30.915  61.504  1.00  0.00     0.025 C 
ENDBRANCH   8  11
ENDBRANCH   1   7
BRANCH   5  18
HETATM   18  C   UNL     1       7.619  25.351  56.162  1.00  0.00    -0.003 A 
HETATM   19  C   UNL     1       8.068  24.224  56.873  1.00  0.00     0.050 A 
HETATM   20  C   UNL     1       8.063  22.958  56.284  1.00  0.00     0.069 A 
HETATM   21  C   UNL     1       7.615  22.816  54.969  1.00  0.00     0.037 A 
HETATM   22  C   UNL     1       7.175  23.924  54.246  1.00  0.00     0.004 A 
HETATM   23  C   UNL     1       7.176  25.187  54.841  1.00  0.00     0.014 A 
BRANCH  20  24
HETATM   24  O   UNL     1       8.465  21.792  56.877  1.00  0.00    -0.356 OA
HETATM   25  C   UNL     1       8.007  20.582  56.285  1.00  0.00     0.210 C 
ENDBRANCH  20  24
ENDBRANCH   5  18
TORSDOF 4
ENDMDL
MODEL 2
REMARK VINA RESULT:      -8.8      5.933      9.871
REMARK  4 active torsions:
REMARK  status: ('A' for Active; 'I' for Inactive)
REMARK    1  A    between atoms: C_5  and  N_6 
REMARK       I    between atoms: N_6  and  C_7 
REMARK    2  A    between atoms: C_7  and  C_8 
REMARK    3  A    between atoms: C_12  and  C_13 
REMARK    4  A    between atoms: C_15  and  O_16 
ROOT
HETATM    1  C   UNL     1       5.497  26.339  51.502  1.00  0.00     0.120 A 
HETATM    2  N   UNL     1       4.534  25.830  52.327  1.00  0.00    -0.272 N 
HETATM    3  H   UNL     1       3.560  26.113  52.369  1.00  0.00     0.189 HD
HETATM    4  N   UNL     1       4.962  24.847  53.133  1.00  0.00    -0.174 NA
HETATM    5  C   UNL     1       6.273  24.734  52.865  1.00  0.00     0.089 A 
HETATM    6  C   UNL     1       6.644  25.650  51.839  1.00  0.00     0.071 A 
ENDROOT
BRANCH   1   7
HETATM    7  C   UNL     1       5.205  27.379  50.553  1.00  0.00     0.270 C 
HETATM    8  N   UNL     1       4.404  26.996  49.501  1.00  0.00    -0.351 N 
HETATM    9  H   UNL     1       3.958  26.092  49.552  1.00  0.00     0.163 HD
HETATM   10  O   UNL     1       5.632  28.521  50.686  1.00  0.00    -0.266 OA
BRANCH   8  11
HETATM   11  C   UNL     1       3.928  27.941  48.498  1.00  0.00     0.084 C 
HETATM   12  C   UNL     1       3.661  27.223  47.169  1.00  0.00     0.025 C 
HETATM   13  C   UNL     1       2.411  26.338  47.210  1.00  0.00     0.006 C 
HETATM   14  C   UNL     1       1.162  27.079  47.707  1.00  0.00    -0.019 C 
HETATM   15  C   UNL     1       0.618  28.040  46.645  1.00  0.00     0.010 C 
HETATM   16  C   UNL     1       1.440  27.797  49.034  1.00  0.00     0.006 C 
HETATM   17  C   UNL     1       2.680  28.691  48.985  1.00  0.00     0.025 C 
ENDBRANCH   8  11
ENDBRANCH   1   7
BRANCH   5  18
HETATM   18  C   UNL     1       7.127  23.771  53.565  1.00  0.00    -0.003 A 
HETATM   19  C   UNL     1       7.436  23.955  54.926  1.00  0.00     0.050 A 
HETATM   20  C   UNL     1       8.237  23.037  55.607  1.00  0.00     0.069 A 
HETATM   21  C   UNL     1       8.742  21.929  54.924  1.00  0.00     0.037 A 
HETATM   22  C   UNL     1       8.453  21.736  53.574  1.00  0.00     0.004 A 
HETATM   23  C   UNL     1       7.648  22.653  52.897  1.00  0.00     0.014 A 
BRANCH  20  24
HETATM   24  O   UNL     1       8.595  23.104  56.927  1.00  0.00    -0.356 OA
HETATM   25  C   UNL     1       8.821  24.402  57.464  1.00  0.00     0.210 C 
ENDBRANCH  20  24
ENDBRANCH   5  18
TORSDOF 4
ENDMDL
MODEL 3
REMARK VINA RESULT:      -8.7      2.849      9.388
REMARK  4 active torsions:
REMARK  status: ('A' for Active; 'I' for Inactive)
REMARK    1  A    between atoms: C_5  and  N_6 
REMARK       I    between atoms: N_6  and  C_7 
REMARK    2  A    between atoms: C_7  and  C_8 
REMARK    3  A    between atoms: C_12  and  C_13 
REMARK    4  A    between atoms: C_15  and  O_16 
ROOT
HETATM    1  C   UNL     1       8.255  30.740  60.315  1.00  0.00     0.120 A 
HETATM    2  N   UNL     1       8.896  30.184  61.386  1.00  0.00    -0.272 N 
HETATM    3  H   UNL     1       9.584  29.437  61.362  1.00  0.00     0.189 HD
HETATM    4  N   UNL     1       8.561  30.721  62.569  1.00  0.00    -0.174 NA
HETATM    5  C   UNL     1       7.625  31.638  62.273  1.00  0.00     0.089 A 
HETATM    6  C   UNL     1       7.413  31.684  60.865  1.00  0.00     0.071 A 
ENDROOT
BRANCH   1   7
HETATM    7  C   UNL     1       8.515  30.303  58.970  1.00  0.00     0.270 C 
HETATM    8  N   UNL     1       7.620  29.382  58.476  1.00  0.00    -0.351 N 
HETATM    9  H   UNL     1       6.781  29.207  59.009  1.00  0.00     0.163 HD
HETATM   10  O   UNL     1       9.458  30.735  58.315  1.00  0.00    -0.266 OA
BRANCH   8  11
HETATM   11  C   UNL     1       7.671  28.903  57.100  1.00  0.00     0.084 C 
HETATM   12  C   UNL     1       8.336  27.522  57.038  1.00  0.00     0.025 C 
HETATM   13  C   UNL     1       7.447  26.407  57.596  1.00  0.00     0.006 C 
HETATM   14  C   UNL     1       6.045  26.382  56.973  1.00  0.00    -0.019 C 
HETATM   15  C   UNL     1       6.074  25.833  55.544  1.00  0.00     0.010 C 
HETATM   16  C   UNL     1       5.390  27.768  57.037  1.00  0.00     0.006 C 
HETATM   17  C   UNL     1       6.274  28.877  56.464  1.00  0.00     0.025 C 
ENDBRANCH   8  11
ENDBRANCH   1   7
BRANCH   5  18
HETATM   18  C   UNL     1       6.974  32.443  63.309  1.00  0.00    -0.003 A 
HETATM   19  C   UNL     1       5.575  32.589  63.320  1.00  0.00     0.050 A 
HETATM   20  C   UNL     1       4.942  33.341  64.310  1.00  0.00     0.069 A 
HETATM   21  C   UNL     1       5.712  33.963  65.296  1.00  0.00     0.037 A 
HETATM   22  C   UNL     1       7.100  33.837  65.295  1.00  0.00     0.004 A 
HETATM   23  C   UNL     1       7.729  33.079  64.306  1.00  0.00     0.014 A 
BRANCH  20  24
HETATM   24  O   UNL     1       3.593  33.545  64.429  1.00  0.00    -0.356 OA
HETATM   25  C   UNL     1       2.964  34.287  63.392  1.00  0.00     0.210 C 
ENDBRANCH  20  24
ENDBRANCH   5  18
TORSDOF 4
ENDMDL
MODEL 4
REMARK VINA RESULT:      -8.7      1.342      2.086
REMARK  4 active torsions:
REMARK  status: ('A' for Active; 'I' for Inactive)
REMARK    1  A    between atoms: C_5  and  N_6 
REMARK       I    between atoms: N_6  and  C_7 
REMARK    2  A    between atoms: C_7  and  C_8 
REMARK    3  A    between atoms: C_12  and  C_13 
REMARK    4  A    between atoms: C_15  and  O_16 
ROOT
HETATM    1  C   UNL     1       8.187  28.887  57.787  1.00  0.00     0.120 A 
HETATM    2  N   UNL     1       6.836  28.720  57.894  1.00  0.00    -0.272 N 
HETATM    3  H   UNL     1       6.184  29.338  58.369  1.00  0.00     0.189 HD
HETATM    4  N   UNL     1       6.364  27.624  57.280  1.00  0.00    -0.174 NA
HETATM    5  C   UNL     1       7.455  27.015  56.788  1.00  0.00     0.089 A 
HETATM    6  C   UNL     1       8.619  27.783  57.079  1.00  0.00     0.071 A 
ENDROOT
BRANCH   1   7
HETATM    7  C   UNL     1       8.857  30.023  58.361  1.00  0.00     0.270 C 
HETATM    8  N   UNL     1       8.386  30.410  59.595  1.00  0.00    -0.351 N 
HETATM    9  H   UNL     1       7.740  29.795  60.068  1.00  0.00     0.163 HD
HETATM   10  O   UNL     1       9.785  30.589  57.793  1.00  0.00    -0.266 OA
BRANCH   8  11
HETATM   11  C   UNL     1       9.008  31.478  60.368  1.00  0.00     0.084 C 
HETATM   12  C   UNL     1       8.032  32.647  60.549  1.00  0.00     0.025 C 
HETATM   13  C   UNL     1       6.900  32.332  61.532  1.00  0.00     0.006 C 
HETATM   14  C   UNL     1       7.402  31.807  62.885  1.00  0.00    -0.019 C 
HETATM   15  C   UNL     1       8.014  32.928  63.731  1.00  0.00     0.010 C 
HETATM   16  C   UNL     1       8.381  30.641  62.693  1.00  0.00     0.006 C 
HETATM   17  C   UNL     1       9.518  30.965  61.722  1.00  0.00     0.025 C 
ENDBRANCH   8  11
ENDBRANCH   1   7
BRANCH   5  18
HETATM   18  C   UNL     1       7.371  25.749  56.056  1.00  0.00    -0.003 A 
HETATM   19  C   UNL     1       6.587  25.653  54.892  1.00  0.00     0.050 A 
HETATM   20  C   UNL     1       6.510  24.456  54.178  1.00  0.00     0.069 A 
HETATM   21  C   UNL     1       7.216  23.340  54.633  1.00  0.00     0.037 A 
HETATM   22  C   UNL     1       7.991  23.415  55.790  1.00  0.00     0.004 A 
HETATM   23  C   UNL     1       8.069  24.615  56.498  1.00  0.00     0.014 A 
BRANCH  20  24
HETATM   24  O   UNL     1       5.792  24.246  53.032  1.00  0.00    -0.356 OA
HETATM   25  C   UNL     1       5.095  25.365  52.499  1.00  0.00     0.210 C 
ENDBRANCH  20  24
ENDBRANCH   5  18
TORSDOF 4
ENDMDL
MODEL 5
REMARK VINA RESULT:      -8.6      2.171      9.001
REMARK  4 active torsions:
REMARK  status: ('A' for Active; 'I' for Inactive)
REMARK    1  A    between atoms: C_5  and  N_6 
REMARK       I    between atoms: N_6  and  C_7 
REMARK    2  A    between atoms: C_7  and  C_8 
REMARK    3  A    between atoms: C_12  and  C_13 
REMARK    4  A    between atoms: C_15  and  O_16 
ROOT
HETATM    1  C   UNL     1       7.251  27.114  56.208  1.00  0.00     0.120 A 
HETATM    2  N   UNL     1       7.859  27.911  55.281  1.00  0.00    -0.272 N 
HETATM    3  H   UNL     1       7.901  27.753  54.278  1.00  0.00     0.189 HD
HETATM    4  N   UNL     1       8.433  29.011  55.791  1.00  0.00    -0.174 NA
HETATM    5  C   UNL     1       8.237  28.913  57.116  1.00  0.00     0.089 A 
HETATM    6  C   UNL     1       7.491  27.738  57.415  1.00  0.00     0.071 A 
ENDROOT
BRANCH   1   7
HETATM    7  C   UNL     1       6.563  25.908  55.833  1.00  0.00     0.270 C 
HETATM    8  N   UNL     1       7.372  24.907  55.344  1.00  0.00    -0.351 N 
HETATM    9  H   UNL     1       8.370  25.021  55.433  1.00  0.00     0.163 HD
HETATM   10  O   UNL     1       5.349  25.785  55.955  1.00  0.00    -0.266 OA
BRANCH   8  11
HETATM   11  C   UNL     1       6.859  23.584  55.007  1.00  0.00     0.084 C 
HETATM   12  C   UNL     1       6.838  23.389  53.486  1.00  0.00     0.025 C 
HETATM   13  C   UNL     1       8.237  23.213  52.887  1.00  0.00     0.006 C 
HETATM   14  C   UNL     1       9.057  22.116  53.581  1.00  0.00    -0.019 C 
HETATM   15  C   UNL     1       8.564  20.717  53.197  1.00  0.00     0.010 C 
HETATM   16  C   UNL     1       9.069  22.317  55.102  1.00  0.00     0.006 C 
HETATM   17  C   UNL     1       7.669  22.478  55.698  1.00  0.00     0.025 C 
ENDBRANCH   8  11
ENDBRANCH   1   7
BRANCH   5  18
HETATM   18  C   UNL     1       8.743  29.922  58.050  1.00  0.00    -0.003 A 
HETATM   19  C   UNL     1       8.059  30.181  59.252  1.00  0.00     0.050 A 
HETATM   20  C   UNL     1       8.538  31.130  60.157  1.00  0.00     0.069 A 
HETATM   21  C   UNL     1       9.706  31.835  59.857  1.00  0.00     0.037 A 
HETATM   22  C   UNL     1      10.391  31.597  58.666  1.00  0.00     0.004 A 
HETATM   23  C   UNL     1       9.912  30.644  57.766  1.00  0.00     0.014 A 
BRANCH  20  24
HETATM   24  O   UNL     1       7.968  31.460  61.357  1.00  0.00    -0.356 OA
HETATM   25  C   UNL     1       7.440  32.776  61.475  1.00  0.00     0.210 C 
ENDBRANCH  20  24
ENDBRANCH   5  18
TORSDOF 4
ENDMDL
MODEL 6
REMARK VINA RESULT:      -8.6      6.528      9.853
REMARK  4 active torsions:
REMARK  status: ('A' for Active; 'I' for Inactive)
REMARK    1  A    between atoms: C_5  and  N_6 
REMARK       I    between atoms: N_6  and  C_7 
REMARK    2  A    between atoms: C_7  and  C_8 
REMARK    3  A    between atoms: C_12  and  C_13 
REMARK    4  A    between atoms: C_15  and  O_16 
ROOT
HETATM    1  C   UNL     1       5.385  26.489  51.648  1.00  0.00     0.120 A 
HETATM    2  N   UNL     1       4.358  25.884  52.314  1.00  0.00    -0.272 N 
HETATM    3  H   UNL     1       3.365  26.053  52.181  1.00  0.00     0.189 HD
HETATM    4  N   UNL     1       4.747  24.969  53.215  1.00  0.00    -0.174 NA
HETATM    5  C   UNL     1       6.089  25.005  53.177  1.00  0.00     0.089 A 
HETATM    6  C   UNL     1       6.526  25.943  52.199  1.00  0.00     0.071 A 
ENDROOT
BRANCH   1   7
HETATM    7  C   UNL     1       5.148  27.475  50.629  1.00  0.00     0.270 C 
HETATM    8  N   UNL     1       4.286  27.080  49.630  1.00  0.00    -0.351 N 
HETATM    9  H   UNL     1       3.771  26.223  49.763  1.00  0.00     0.163 HD
HETATM   10  O   UNL     1       5.668  28.586  50.661  1.00  0.00    -0.266 OA
BRANCH   8  11
HETATM   11  C   UNL     1       3.855  27.983  48.569  1.00  0.00     0.084 C 
HETATM   12  C   UNL     1       3.661  27.213  47.257  1.00  0.00     0.025 C 
HETATM   13  C   UNL     1       2.417  26.320  47.267  1.00  0.00     0.006 C 
HETATM   14  C   UNL     1       1.139  27.068  47.672  1.00  0.00    -0.019 C 
HETATM   15  C   UNL     1       0.643  27.983  46.548  1.00  0.00     0.010 C 
HETATM   16  C   UNL     1       1.344  27.838  48.983  1.00  0.00     0.006 C 
HETATM   17  C   UNL     1       2.579  28.740  48.963  1.00  0.00     0.025 C 
ENDBRANCH   8  11
ENDBRANCH   1   7
BRANCH   5  18
HETATM   18  C   UNL     1       6.911  24.157  54.044  1.00  0.00    -0.003 A 
HETATM   19  C   UNL     1       7.534  23.007  53.527  1.00  0.00     0.050 A 
HETATM   20  C   UNL     1       8.332  22.199  54.340  1.00  0.00     0.069 A 
HETATM   21  C   UNL     1       8.503  22.537  55.685  1.00  0.00     0.037 A 
HETATM   22  C   UNL     1       7.885  23.668  56.216  1.00  0.00     0.004 A 
HETATM   23  C   UNL     1       7.093  24.476  55.398  1.00  0.00     0.014 A 
BRANCH  20  24
HETATM   24  O   UNL     1       8.994  21.067  53.950  1.00  0.00    -0.356 OA
HETATM   25  C   UNL     1       8.454  20.360  52.840  1.00  0.00     0.210 C 
ENDBRANCH  20  24
ENDBRANCH   5  18
TORSDOF 4
ENDMDL
MODEL 7
REMARK VINA RESULT:      -8.2      6.727      8.587
REMARK  4 active torsions:
REMARK  status: ('A' for Active; 'I' for Inactive)
REMARK    1  A    between atoms: C_5  and  N_6 
REMARK       I    between atoms: N_6  and  C_7 
REMARK    2  A    between atoms: C_7  and  C_8 
REMARK    3  A    between atoms: C_12  and  C_13 
REMARK    4  A    between atoms: C_15  and  O_16 
ROOT
HETATM    1  C   UNL     1       5.114  26.254  53.417  1.00  0.00     0.120 A 
HETATM    2  N   UNL     1       5.229  26.165  54.776  1.00  0.00    -0.272 N 
HETATM    3  H   UNL     1       4.846  26.810  55.460  1.00  0.00     0.189 HD
HETATM    4  N   UNL     1       5.912  25.093  55.203  1.00  0.00    -0.174 NA
HETATM    5  C   UNL     1       6.306  24.472  54.080  1.00  0.00     0.089 A 
HETATM    6  C   UNL     1       5.817  25.167  52.938  1.00  0.00     0.071 A 
ENDROOT
BRANCH   1   7
HETATM    7  C   UNL     1       4.390  27.325  52.788  1.00  0.00     0.270 C 
HETATM    8  N   UNL     1       4.501  27.373  51.417  1.00  0.00    -0.351 N 
HETATM    9  H   UNL     1       4.930  26.587  50.950  1.00  0.00     0.163 HD
HETATM   10  O   UNL     1       3.717  28.123  53.432  1.00  0.00    -0.266 OA
BRANCH   8  11
HETATM   11  C   UNL     1       3.758  28.331  50.606  1.00  0.00     0.084 C 
HETATM   12  C   UNL     1       4.596  29.591  50.364  1.00  0.00     0.025 C 
HETATM   13  C   UNL     1       5.749  29.362  49.382  1.00  0.00     0.006 C 
HETATM   14  C   UNL     1       5.299  28.726  48.060  1.00  0.00    -0.019 C 
HETATM   15  C   UNL     1       4.560  29.734  47.174  1.00  0.00     0.010 C 
HETATM   16  C   UNL     1       4.458  27.468  48.313  1.00  0.00     0.006 C 
HETATM   17  C   UNL     1       3.299  27.705  49.282  1.00  0.00     0.025 C 
ENDBRANCH   8  11
ENDBRANCH   1   7
BRANCH   5  18
HETATM   18  C   UNL     1       7.114  23.249  54.113  1.00  0.00    -0.003 A 
HETATM   19  C   UNL     1       7.364  22.598  55.334  1.00  0.00     0.050 A 
HETATM   20  C   UNL     1       8.120  21.425  55.377  1.00  0.00     0.069 A 
HETATM   21  C   UNL     1       8.638  20.900  54.191  1.00  0.00     0.037 A 
HETATM   22  C   UNL     1       8.407  21.537  52.973  1.00  0.00     0.004 A 
HETATM   23  C   UNL     1       7.647  22.707  52.934  1.00  0.00     0.014 A 
BRANCH  20  24
HETATM   24  O   UNL     1       8.420  20.700  56.499  1.00  0.00    -0.356 OA
HETATM   25  C   UNL     1       8.369  21.392  57.741  1.00  0.00     0.210 C 
ENDBRANCH  20  24
ENDBRANCH   5  18
TORSDOF 4
ENDMDL
MODEL 8
REMARK VINA RESULT:      -7.9      5.767      8.637
REMARK  4 active torsions:
REMARK  status: ('A' for Active; 'I' for Inactive)
REMARK    1  A    between atoms: C_5  and  N_6 
REMARK       I    between atoms: N_6  and  C_7 
REMARK    2  A    between atoms: C_7  and  C_8 
REMARK    3  A    between atoms: C_12  and  C_13 
REMARK    4  A    between atoms: C_15  and  O_16 
ROOT
HETATM    1  C   UNL     1       5.283  25.916  51.319  1.00  0.00     0.120 A 
HETATM    2  N   UNL     1       4.450  25.626  52.362  1.00  0.00    -0.272 N 
HETATM    3  H   UNL     1       3.491  25.941  52.479  1.00  0.00     0.189 HD
HETATM    4  N   UNL     1       4.991  24.829  53.295  1.00  0.00    -0.174 NA
HETATM    5  C   UNL     1       6.250  24.622  52.875  1.00  0.00     0.089 A 
HETATM    6  C   UNL     1       6.467  25.283  51.633  1.00  0.00     0.071 A 
ENDROOT
BRANCH   1   7
HETATM    7  C   UNL     1       4.855  26.735  50.216  1.00  0.00     0.270 C 
HETATM    8  N   UNL     1       4.433  27.999  50.563  1.00  0.00    -0.351 N 
HETATM    9  H   UNL     1       4.601  28.310  51.508  1.00  0.00     0.163 HD
HETATM   10  O   UNL     1       4.882  26.334  49.058  1.00  0.00    -0.266 OA
BRANCH   8  11
HETATM   11  C   UNL     1       4.058  28.996  49.567  1.00  0.00     0.084 C 
HETATM   12  C   UNL     1       2.566  28.883  49.231  1.00  0.00     0.025 C 
HETATM   13  C   UNL     1       1.661  29.387  50.359  1.00  0.00     0.006 C 
HETATM   14  C   UNL     1       2.021  30.800  50.838  1.00  0.00    -0.019 C 
HETATM   15  C   UNL     1       1.588  31.865  49.827  1.00  0.00     0.010 C 
HETATM   16  C   UNL     1       3.516  30.904  51.168  1.00  0.00     0.006 C 
HETATM   17  C   UNL     1       4.417  30.414  50.033  1.00  0.00     0.025 C 
ENDBRANCH   8  11
ENDBRANCH   1   7
BRANCH   5  18
HETATM   18  C   UNL     1       7.198  23.808  53.641  1.00  0.00    -0.003 A 
HETATM   19  C   UNL     1       7.327  23.989  55.031  1.00  0.00     0.050 A 
HETATM   20  C   UNL     1       8.216  23.210  55.773  1.00  0.00     0.069 A 
HETATM   21  C   UNL     1       8.992  22.247  55.123  1.00  0.00     0.037 A 
HETATM   22  C   UNL     1       8.883  22.061  53.746  1.00  0.00     0.004 A 
HETATM   23  C   UNL     1       7.989  22.838  53.008  1.00  0.00     0.014 A 
BRANCH  20  24
HETATM   24  O   UNL     1       8.420  23.287  57.125  1.00  0.00    -0.356 OA
HETATM   25  C   UNL     1       8.849  24.542  57.637  1.00  0.00     0.210 C 
ENDBRANCH  20  24
ENDBRANCH   5  18
TORSDOF 4
ENDMDL
MODEL 9
REMARK VINA RESULT:      -7.6      1.794      2.190
REMARK  4 active torsions:
REMARK  status: ('A' for Active; 'I' for Inactive)
REMARK    1  A    between atoms: C_5  and  N_6 
REMARK       I    between atoms: N_6  and  C_7 
REMARK    2  A    between atoms: C_7  and  C_8 
REMARK    3  A    between atoms: C_12  and  C_13 
REMARK    4  A    between atoms: C_15  and  O_16 
ROOT
HETATM    1  C   UNL     1       6.183  29.678  57.047  1.00  0.00     0.120 A 
HETATM    2  N   UNL     1       5.187  28.776  57.295  1.00  0.00    -0.272 N 
HETATM    3  H   UNL     1       4.408  28.893  57.937  1.00  0.00     0.189 HD
HETATM    4  N   UNL     1       5.280  27.642  56.586  1.00  0.00    -0.174 NA
HETATM    5  C   UNL     1       6.411  27.779  55.874  1.00  0.00     0.089 A 
HETATM    6  C   UNL     1       7.001  29.049  56.131  1.00  0.00     0.071 A 
ENDROOT
BRANCH   1   7
HETATM    7  C   UNL     1       6.222  30.959  57.700  1.00  0.00     0.270 C 
HETATM    8  N   UNL     1       6.895  30.976  58.901  1.00  0.00    -0.351 N 
HETATM    9  H   UNL     1       7.435  30.161  59.151  1.00  0.00     0.163 HD
HETATM   10  O   UNL     1       5.705  31.957  57.210  1.00  0.00    -0.266 OA
BRANCH   8  11
HETATM   11  C   UNL     1       7.119  32.206  59.652  1.00  0.00     0.084 C 
HETATM   12  C   UNL     1       6.200  32.259  60.878  1.00  0.00     0.025 C 
HETATM   13  C   UNL     1       6.617  31.281  61.980  1.00  0.00     0.006 C 
HETATM   14  C   UNL     1       8.093  31.417  62.381  1.00  0.00    -0.019 C 
HETATM   15  C   UNL     1       8.337  32.678  63.214  1.00  0.00     0.010 C 
HETATM   16  C   UNL     1       9.004  31.366  61.147  1.00  0.00     0.006 C 
HETATM   17  C   UNL     1       8.592  32.355  60.055  1.00  0.00     0.025 C 
ENDBRANCH   8  11
ENDBRANCH   1   7
BRANCH   5  18
HETATM   18  C   UNL     1       6.891  26.727  54.974  1.00  0.00    -0.003 A 
HETATM   19  C   UNL     1       6.931  25.388  55.404  1.00  0.00     0.050 A 
HETATM   20  C   UNL     1       7.374  24.376  54.551  1.00  0.00     0.069 A 
HETATM   21  C   UNL     1       7.789  24.702  53.258  1.00  0.00     0.037 A 
HETATM   22  C   UNL     1       7.764  26.025  52.818  1.00  0.00     0.004 A 
HETATM   23  C   UNL     1       7.317  27.034  53.672  1.00  0.00     0.014 A 
BRANCH  20  24
HETATM   24  O   UNL     1       7.447  23.043  54.852  1.00  0.00    -0.356 OA
HETATM   25  C   UNL     1       8.155  22.692  56.035  1.00  0.00     0.210 C 
ENDBRANCH  20  24
ENDBRANCH   5  18
TORSDOF 4
ENDMDL
MODEL 10
REMARK VINA RESULT:      -7.6      2.714      9.030
REMARK  4 active torsions:
REMARK  status: ('A' for Active; 'I' for Inactive)
REMARK    1  A    between atoms: C_5  and  N_6 
REMARK       I    between atoms: N_6  and  C_7 
REMARK    2  A    between atoms: C_7  and  C_8 
REMARK    3  A    between atoms: C_12  and  C_13 
REMARK    4  A    between atoms: C_15  and  O_16 
ROOT
HETATM    1  C   UNL     1       7.768  29.694  56.813  1.00  0.00     0.120 A 
HETATM    2  N   UNL     1       6.543  30.286  56.925  1.00  0.00    -0.272 N 
HETATM    3  H   UNL     1       5.800  30.280  56.232  1.00  0.00     0.189 HD
HETATM    4  N   UNL     1       6.338  30.914  58.092  1.00  0.00    -0.174 NA
HETATM    5  C   UNL     1       7.494  30.773  58.761  1.00  0.00     0.089 A 
HETATM    6  C   UNL     1       8.414  30.005  57.992  1.00  0.00     0.071 A 
ENDROOT
BRANCH   1   7
HETATM    7  C   UNL     1       8.146  28.954  55.639  1.00  0.00     0.270 C 
HETATM    8  N   UNL     1       7.234  28.005  55.234  1.00  0.00    -0.351 N 
HETATM    9  H   UNL     1       6.325  28.007  55.673  1.00  0.00     0.163 HD
HETATM   10  O   UNL     1       9.196  29.167  55.043  1.00  0.00    -0.266 OA
BRANCH   8  11
HETATM   11  C   UNL     1       7.405  27.230  54.011  1.00  0.00     0.084 C 
HETATM   12  C   UNL     1       7.350  25.728  54.316  1.00  0.00     0.025 C 
HETATM   13  C   UNL     1       5.939  25.240  54.659  1.00  0.00     0.006 C 
HETATM   14  C   UNL     1       4.891  25.636  53.609  1.00  0.00    -0.019 C 
HETATM   15  C   UNL     1       5.024  24.796  52.336  1.00  0.00     0.010 C 
HETATM   16  C   UNL     1       4.956  27.139  53.308  1.00  0.00     0.006 C 
HETATM   17  C   UNL     1       6.364  27.620  52.952  1.00  0.00     0.025 C 
ENDBRANCH   8  11
ENDBRANCH   1   7
BRANCH   5  18
HETATM   18  C   UNL     1       7.693  31.349  60.094  1.00  0.00    -0.003 A 
HETATM   19  C   UNL     1       6.661  32.076  60.714  1.00  0.00     0.050 A 
HETATM   20  C   UNL     1       6.833  32.617  61.989  1.00  0.00     0.069 A 
HETATM   21  C   UNL     1       8.051  32.439  62.650  1.00  0.00     0.037 A 
HETATM   22  C   UNL     1       9.088  31.729  62.047  1.00  0.00     0.004 A 
HETATM   23  C   UNL     1       8.909  31.185  60.773  1.00  0.00     0.014 A 
BRANCH  20  24
HETATM   24  O   UNL     1       5.903  33.331  62.694  1.00  0.00    -0.356 OA
HETATM   25  C   UNL     1       5.963  34.748  62.581  1.00  0.00     0.210 C 
ENDBRANCH  20  24
ENDBRANCH   5  18
TORSDOF 4
ENDMDL
