MODEL 1
REMARK VINA RESULT:      -8.2      0.000      0.000
REMARK  11 active torsions:
REMARK  status: ('A' for Active; 'I' for Inactive)
REMARK    1  A    between atoms: C_2  and  N_3 
REMARK    2  A    between atoms: N_3  and  C_5 
REMARK    3  A    between atoms: N_3  and  C_34 
REMARK    4  A    between atoms: C_5  and  C_6 
REMARK    5  A    between atoms: C_6  and  C_7 
REMARK    6  A    between atoms: C_7  and  N_8 
REMARK       I    between atoms: N_8  and  C_9 
REMARK    7  A    between atoms: C_9  and  C_10 
REMARK    8  A    between atoms: C_10  and  O_11 
REMARK    9  A    between atoms: N_12  and  C_13 
REMARK   10  A    between atoms: C_14  and  O_15 
REMARK   11  A    between atoms: C_18  and  O_19 
ROOT
HETATM    1  C   UNL     1       7.207  25.619  54.895  1.00  0.00     0.256 C 
HETATM    2  N   UNL     1       6.948  26.370  56.143  1.00  0.00    -0.251 N 
HETATM    3  C   UNL     1       7.546  25.981  57.334  1.00  0.00     0.330 C 
HETATM    4  O   UNL     1       7.587  26.662  58.359  1.00  0.00    -0.246 OA
HETATM    5  N   UNL     1       8.056  24.723  57.408  1.00  0.00    -0.308 N 
HETATM    6  C   UNL     1       8.022  23.778  56.400  1.00  0.00     0.048 A 
HETATM    7  C   UNL     1       7.569  24.156  55.143  1.00  0.00     0.035 A 
HETATM    8  C   UNL     1       8.450  22.474  56.664  1.00  0.00     0.031 A 
HETATM    9  C   UNL     1       8.415  21.515  55.654  1.00  0.00     0.021 A 
HETATM   10  C   UNL     1       7.977  21.876  54.384  1.00  0.00     0.011 A 
HETATM   11 BR   UNL     1       7.923  20.584  53.006  1.00  0.00    -0.051 Br
HETATM   12  C   UNL     1       7.578  23.187  54.118  1.00  0.00     0.034 A 
HETATM   13  H   UNL     1       8.457  24.492  58.310  1.00  0.00     0.170 HD
ENDROOT
BRANCH   1  14
HETATM   14  C   UNL     1       5.905  25.605  53.950  1.00  0.00     0.279 C 
HETATM   15  N   UNL     1       5.886  26.562  52.933  1.00  0.00    -0.356 N 
HETATM   16  H   UNL     1       6.799  26.898  52.645  1.00  0.00     0.162 HD
HETATM   17  O   UNL     1       4.910  24.914  54.182  1.00  0.00    -0.268 OA
BRANCH  15  18
HETATM   18  C   UNL     1       4.790  26.594  51.989  1.00  0.00     0.124 C 
BRANCH  18  19
HETATM   19  C   UNL     1       5.226  26.176  50.585  1.00  0.00     0.047 C 
BRANCH  19  20
HETATM   20  C   UNL     1       4.708  27.076  49.462  1.00  0.00     0.236 C 
BRANCH  20  21
HETATM   21  N   UNL     1       3.320  26.684  48.970  1.00  0.00    -0.072 N 
HETATM   22  H   UNL     1       2.906  26.086  49.694  1.00  0.00     0.279 HD
BRANCH  21  23
HETATM   23  C   UNL     1       3.371  25.808  47.725  1.00  0.00     0.230 C 
HETATM   24  C   UNL     1       2.988  24.377  48.067  1.00  0.00     0.034 C 
ENDBRANCH  21  23
BRANCH  21  25
HETATM   25  C   UNL     1       2.343  27.838  48.816  1.00  0.00     0.230 C 
HETATM   26  C   UNL     1       1.129  27.475  47.983  1.00  0.00     0.034 C 
ENDBRANCH  21  25
ENDBRANCH  20  21
ENDBRANCH  19  20
ENDBRANCH  18  19
ENDBRANCH  15  18
ENDBRANCH   1  14
BRANCH   1  27
HETATM   27  O   UNL     1       8.367  26.143  54.280  1.00  0.00    -0.359 OA
HETATM   28  H   UNL     1       8.306  27.105  54.423  1.00  0.00     0.213 HD
ENDBRANCH   1  27
BRANCH   2  29
HETATM   29  C   UNL     1       6.188  27.604  56.133  1.00  0.00     0.076 A 
HETATM   30  C   UNL     1       6.681  28.844  55.687  1.00  0.00     0.098 A 
HETATM   31  C   UNL     1       5.827  29.952  55.539  1.00  0.00     0.075 A 
HETATM   32  C   UNL     1       4.484  29.857  55.893  1.00  0.00     0.070 A 
HETATM   33  C   UNL     1       3.989  28.651  56.371  1.00  0.00     0.039 A 
HETATM   34  C   UNL     1       4.830  27.544  56.499  1.00  0.00     0.035 A 
BRANCH  30  35
HETATM   35  O   UNL     1       8.011  28.980  55.379  1.00  0.00    -0.354 OA
HETATM   36  C   UNL     1       8.768  29.457  56.503  1.00  0.00     0.210 C 
ENDBRANCH  30  35
BRANCH  32  37
HETATM   37  O   UNL     1       3.562  30.859  55.773  1.00  0.00    -0.356 OA
HETATM   38  C   UNL     1       3.125  31.135  54.446  1.00  0.00     0.210 C 
ENDBRANCH  32  37
ENDBRANCH   2  29
TORSDOF 11
ENDMDL
MODEL 2
REMARK VINA RESULT:      -8.1      2.582      6.714
REMARK  11 active torsions:
REMARK  status: ('A' for Active; 'I' for Inactive)
REMARK    1  A    between atoms: C_2  and  N_3 
REMARK    2  A    between atoms: N_3  and  C_5 
REMARK    3  A    between atoms: N_3  and  C_34 
REMARK    4  A    between atoms: C_5  and  C_6 
REMARK    5  A    between atoms: C_6  and  C_7 
REMARK    6  A    between atoms: C_7  and  N_8 
REMARK       I    between atoms: N_8  and  C_9 
REMARK    7  A    between atoms: C_9  and  C_10 
REMARK    8  A    between atoms: C_10  and  O_11 
REMARK    9  A    between atoms: N_12  and  C_13 
REMARK   10  A    between atoms: C_14  and  O_15 
REMARK   11  A    between atoms: C_18  and  O_19 
ROOT
HETATM    1  C   UNL     1       4.766  27.761  53.251  1.00  0.00     0.256 C 
HETATM    2  N   UNL     1       4.621  28.822  54.272  1.00  0.00    -0.251 N 
HETATM    3  C   UNL     1       3.622  29.779  54.155  1.00  0.00     0.330 C 
HETATM    4  O   UNL     1       3.270  30.546  55.051  1.00  0.00    -0.246 OA
HETATM    5  N   UNL     1       3.039  29.943  52.937  1.00  0.00    -0.308 N 
HETATM    6  C   UNL     1       3.363  29.247  51.788  1.00  0.00     0.048 A 
HETATM    7  C   UNL     1       4.248  28.180  51.877  1.00  0.00     0.035 A 
HETATM    8  C   UNL     1       2.788  29.622  50.571  1.00  0.00     0.031 A 
HETATM    9  C   UNL     1       3.112  28.927  49.407  1.00  0.00     0.021 A 
HETATM   10  C   UNL     1       3.986  27.848  49.477  1.00  0.00     0.011 A 
HETATM   11 BR   UNL     1       4.435  26.900  47.905  1.00  0.00    -0.051 Br
HETATM   12  C   UNL     1       4.536  27.459  50.700  1.00  0.00     0.034 A 
HETATM   13  H   UNL     1       2.336  30.672  52.911  1.00  0.00     0.170 HD
ENDROOT
BRANCH   1  14
HETATM   14  C   UNL     1       6.312  27.365  53.046  1.00  0.00     0.279 C 
HETATM   15  N   UNL     1       6.613  26.009  53.193  1.00  0.00    -0.356 N 
HETATM   16  H   UNL     1       5.835  25.379  53.033  1.00  0.00     0.162 HD
HETATM   17  O   UNL     1       7.211  28.200  52.925  1.00  0.00    -0.268 OA
BRANCH  15  18
HETATM   18  C   UNL     1       7.962  25.539  52.968  1.00  0.00     0.124 C 
BRANCH  18  19
HETATM   19  C   UNL     1       8.009  24.040  52.673  1.00  0.00     0.047 C 
BRANCH  19  20
HETATM   20  C   UNL     1       7.270  23.166  53.687  1.00  0.00     0.236 C 
BRANCH  20  21
HETATM   21  N   UNL     1       8.192  22.230  54.459  1.00  0.00    -0.072 N 
HETATM   22  H   UNL     1       9.139  22.378  54.092  1.00  0.00     0.279 HD
BRANCH  21  23
HETATM   23  C   UNL     1       7.893  20.762  54.184  1.00  0.00     0.230 C 
HETATM   24  C   UNL     1       8.357  20.379  52.788  1.00  0.00     0.034 C 
ENDBRANCH  21  23
BRANCH  21  25
HETATM   25  C   UNL     1       8.304  22.521  55.947  1.00  0.00     0.230 C 
HETATM   26  C   UNL     1       8.443  21.264  56.784  1.00  0.00     0.034 C 
ENDBRANCH  21  25
ENDBRANCH  20  21
ENDBRANCH  19  20
ENDBRANCH  18  19
ENDBRANCH  15  18
ENDBRANCH   1  14
BRANCH   1  27
HETATM   27  O   UNL     1       3.928  26.676  53.599  1.00  0.00    -0.359 OA
HETATM   28  H   UNL     1       4.543  25.963  53.850  1.00  0.00     0.213 HD
ENDBRANCH   1  27
BRANCH   2  29
HETATM   29  C   UNL     1       5.413  28.809  55.486  1.00  0.00     0.076 A 
HETATM   30  C   UNL     1       5.472  27.736  56.394  1.00  0.00     0.098 A 
HETATM   31  C   UNL     1       6.401  27.730  57.449  1.00  0.00     0.075 A 
HETATM   32  C   UNL     1       7.243  28.820  57.653  1.00  0.00     0.070 A 
HETATM   33  C   UNL     1       7.173  29.905  56.788  1.00  0.00     0.039 A 
HETATM   34  C   UNL     1       6.265  29.905  55.727  1.00  0.00     0.035 A 
BRANCH  30  35
HETATM   35  O   UNL     1       4.618  26.671  56.247  1.00  0.00    -0.354 OA
HETATM   36  C   UNL     1       5.244  25.436  56.632  1.00  0.00     0.210 C 
ENDBRANCH  30  35
BRANCH  32  37
HETATM   37  O   UNL     1       8.193  28.913  58.629  1.00  0.00    -0.356 OA
HETATM   38  C   UNL     1       8.249  30.161  59.314  1.00  0.00     0.210 C 
ENDBRANCH  32  37
ENDBRANCH   2  29
TORSDOF 11
ENDMDL
MODEL 3
REMARK VINA RESULT:      -7.9      3.458      7.261
REMARK  11 active torsions:
REMARK  status: ('A' for Active; 'I' for Inactive)
REMARK    1  A    between atoms: C_2  and  N_3 
REMARK    2  A    between atoms: N_3  and  C_5 
REMARK    3  A    between atoms: N_3  and  C_34 
REMARK    4  A    between atoms: C_5  and  C_6 
REMARK    5  A    between atoms: C_6  and  C_7 
REMARK    6  A    between atoms: C_7  and  N_8 
REMARK       I    between atoms: N_8  and  C_9 
REMARK    7  A    between atoms: C_9  and  C_10 
REMARK    8  A    between atoms: C_10  and  O_11 
REMARK    9  A    between atoms: N_12  and  C_13 
REMARK   10  A    between atoms: C_14  and  O_15 
REMARK   11  A    between atoms: C_18  and  O_19 
ROOT
HETATM    1  C   UNL     1       7.703  29.031  56.896  1.00  0.00     0.256 C 
HETATM    2  N   UNL     1       6.525  29.024  56.001  1.00  0.00    -0.251 N 
HETATM    3  C   UNL     1       5.702  30.139  55.913  1.00  0.00     0.330 C 
HETATM    4  O   UNL     1       4.852  30.323  55.042  1.00  0.00    -0.246 OA
HETATM    5  N   UNL     1       5.778  31.065  56.906  1.00  0.00    -0.308 N 
HETATM    6  C   UNL     1       6.598  30.991  58.017  1.00  0.00     0.048 A 
HETATM    7  C   UNL     1       7.544  29.977  58.085  1.00  0.00     0.035 A 
HETATM    8  C   UNL     1       6.465  31.939  59.034  1.00  0.00     0.031 A 
HETATM    9  C   UNL     1       7.285  31.869  60.159  1.00  0.00     0.021 A 
HETATM   10  C   UNL     1       8.248  30.869  60.241  1.00  0.00     0.011 A 
HETATM   11 BR   UNL     1       9.365  30.763  61.761  1.00  0.00    -0.051 Br
HETATM   12  C   UNL     1       8.396  29.942  59.208  1.00  0.00     0.034 A 
HETATM   13  H   UNL     1       5.136  31.841  56.797  1.00  0.00     0.170 HD
ENDROOT
BRANCH   1  14
HETATM   14  C   UNL     1       7.965  27.570  57.516  1.00  0.00     0.279 C 
HETATM   15  N   UNL     1       8.697  26.694  56.711  1.00  0.00    -0.356 N 
HETATM   16  H   UNL     1       9.298  27.143  56.028  1.00  0.00     0.162 HD
HETATM   17  O   UNL     1       7.434  27.174  58.556  1.00  0.00    -0.268 OA
BRANCH  15  18
HETATM   18  C   UNL     1       9.041  25.377  57.201  1.00  0.00     0.124 C 
BRANCH  18  19
HETATM   19  C   UNL     1       8.043  24.313  56.743  1.00  0.00     0.047 C 
BRANCH  19  20
HETATM   20  C   UNL     1       8.188  23.889  55.281  1.00  0.00     0.236 C 
BRANCH  20  21
HETATM   21  N   UNL     1       8.994  22.609  55.103  1.00  0.00    -0.072 N 
HETATM   22  H   UNL     1       9.984  22.869  55.175  1.00  0.00     0.279 HD
BRANCH  21  23
HETATM   23  C   UNL     1       8.847  22.019  53.706  1.00  0.00     0.230 C 
HETATM   24  C   UNL     1       7.829  22.810  52.900  1.00  0.00     0.034 C 
ENDBRANCH  21  23
BRANCH  21  25
HETATM   25  C   UNL     1       8.789  21.564  56.188  1.00  0.00     0.230 C 
HETATM   26  C   UNL     1       7.680  20.582  55.859  1.00  0.00     0.034 C 
ENDBRANCH  21  25
ENDBRANCH  20  21
ENDBRANCH  19  20
ENDBRANCH  18  19
ENDBRANCH  15  18
ENDBRANCH   1  14
BRANCH   1  27
HETATM   27  O   UNL     1       8.805  29.572  56.194  1.00  0.00    -0.359 OA
HETATM   28  H   UNL     1       8.621  29.371  55.258  1.00  0.00     0.213 HD
ENDBRANCH   1  27
BRANCH   2  29
HETATM   29  C   UNL     1       6.279  27.923  55.092  1.00  0.00     0.076 A 
HETATM   30  C   UNL     1       5.375  26.872  55.332  1.00  0.00     0.098 A 
HETATM   31  C   UNL     1       5.061  25.942  54.325  1.00  0.00     0.075 A 
HETATM   32  C   UNL     1       5.690  26.008  53.085  1.00  0.00     0.070 A 
HETATM   33  C   UNL     1       6.614  27.017  52.842  1.00  0.00     0.039 A 
HETATM   34  C   UNL     1       6.912  27.954  53.834  1.00  0.00     0.035 A 
BRANCH  30  35
HETATM   35  O   UNL     1       4.778  26.752  56.562  1.00  0.00    -0.354 OA
HETATM   36  C   UNL     1       4.823  25.399  57.041  1.00  0.00     0.210 C 
ENDBRANCH  30  35
BRANCH  32  37
HETATM   37  O   UNL     1       5.449  25.174  52.030  1.00  0.00    -0.356 OA
HETATM   38  C   UNL     1       5.117  25.816  50.803  1.00  0.00     0.210 C 
ENDBRANCH  32  37
ENDBRANCH   2  29
TORSDOF 11
ENDMDL
MODEL 4
REMARK VINA RESULT:      -7.9      2.579      6.403
REMARK  11 active torsions:
REMARK  status: ('A' for Active; 'I' for Inactive)
REMARK    1  A    between atoms: C_2  and  N_3 
REMARK    2  A    between atoms: N_3  and  C_5 
REMARK    3  A    between atoms: N_3  and  C_34 
REMARK    4  A    between atoms: C_5  and  C_6 
REMARK    5  A    between atoms: C_6  and  C_7 
REMARK    6  A    between atoms: C_7  and  N_8 
REMARK       I    between atoms: N_8  and  C_9 
REMARK    7  A    between atoms: C_9  and  C_10 
REMARK    8  A    between atoms: C_10  and  O_11 
REMARK    9  A    between atoms: N_12  and  C_13 
REMARK   10  A    between atoms: C_14  and  O_15 
REMARK   11  A    between atoms: C_18  and  O_19 
ROOT
HETATM    1  C   UNL     1       5.648  25.775  54.553  1.00  0.00     0.256 C 
HETATM    2  N   UNL     1       5.825  26.997  53.738  1.00  0.00    -0.251 N 
HETATM    3  C   UNL     1       6.327  26.912  52.446  1.00  0.00     0.330 C 
HETATM    4  O   UNL     1       6.291  27.819  51.614  1.00  0.00    -0.246 OA
HETATM    5  N   UNL     1       6.981  25.775  52.090  1.00  0.00    -0.308 N 
HETATM    6  C   UNL     1       7.208  24.685  52.910  1.00  0.00     0.048 A 
HETATM    7  C   UNL     1       6.606  24.651  54.162  1.00  0.00     0.035 A 
HETATM    8  C   UNL     1       8.024  23.644  52.461  1.00  0.00     0.031 A 
HETATM    9  C   UNL     1       8.261  22.545  53.284  1.00  0.00     0.021 A 
HETATM   10  C   UNL     1       7.657  22.485  54.536  1.00  0.00     0.011 A 
HETATM   11 BR   UNL     1       7.973  21.000  55.660  1.00  0.00    -0.051 Br
HETATM   12  C   UNL     1       6.819  23.514  54.967  1.00  0.00     0.034 A 
HETATM   13  H   UNL     1       7.343  25.785  51.144  1.00  0.00     0.170 HD
ENDROOT
BRANCH   1  14
HETATM   14  C   UNL     1       5.922  26.075  56.110  1.00  0.00     0.279 C 
HETATM   15  N   UNL     1       7.260  26.266  56.462  1.00  0.00    -0.356 N 
HETATM   16  H   UNL     1       7.862  26.573  55.705  1.00  0.00     0.162 HD
HETATM   17  O   UNL     1       5.049  25.992  56.976  1.00  0.00    -0.268 OA
BRANCH  15  18
HETATM   18  C   UNL     1       7.608  26.604  57.825  1.00  0.00     0.124 C 
BRANCH  18  19
HETATM   19  C   UNL     1       7.652  28.115  58.052  1.00  0.00     0.047 C 
BRANCH  19  20
HETATM   20  C   UNL     1       8.872  28.815  57.453  1.00  0.00     0.236 C 
BRANCH  20  21
HETATM   21  N   UNL     1       9.039  30.251  57.936  1.00  0.00    -0.072 N 
HETATM   22  H   UNL     1       8.414  30.830  57.364  1.00  0.00     0.279 HD
BRANCH  21  23
HETATM   23  C   UNL     1      10.434  30.797  57.664  1.00  0.00     0.230 C 
HETATM   24  C   UNL     1      11.326  29.711  57.085  1.00  0.00     0.034 C 
ENDBRANCH  21  23
BRANCH  21  25
HETATM   25  C   UNL     1       8.597  30.503  59.369  1.00  0.00     0.230 C 
HETATM   26  C   UNL     1       9.247  31.729  59.979  1.00  0.00     0.034 C 
ENDBRANCH  21  25
ENDBRANCH  20  21
ENDBRANCH  19  20
ENDBRANCH  18  19
ENDBRANCH  15  18
ENDBRANCH   1  14
BRANCH   1  27
HETATM   27  O   UNL     1       4.373  25.227  54.281  1.00  0.00    -0.359 OA
HETATM   28  H   UNL     1       4.291  24.480  54.901  1.00  0.00     0.213 HD
ENDBRANCH   1  27
BRANCH   2  29
HETATM   29  C   UNL     1       5.351  28.284  54.202  1.00  0.00     0.076 A 
HETATM   30  C   UNL     1       4.047  28.776  54.009  1.00  0.00     0.098 A 
HETATM   31  C   UNL     1       3.615  29.953  54.645  1.00  0.00     0.075 A 
HETATM   32  C   UNL     1       4.493  30.690  55.434  1.00  0.00     0.070 A 
HETATM   33  C   UNL     1       5.796  30.240  55.606  1.00  0.00     0.039 A 
HETATM   34  C   UNL     1       6.222  29.061  54.991  1.00  0.00     0.035 A 
BRANCH  30  35
HETATM   35  O   UNL     1       3.175  28.097  53.196  1.00  0.00    -0.354 OA
HETATM   36  C   UNL     1       2.897  28.828  51.991  1.00  0.00     0.210 C 
ENDBRANCH  30  35
BRANCH  32  37
HETATM   37  O   UNL     1       4.178  31.833  56.114  1.00  0.00    -0.356 OA
HETATM   38  C   UNL     1       4.672  33.042  55.546  1.00  0.00     0.210 C 
ENDBRANCH  32  37
ENDBRANCH   2  29
TORSDOF 11
ENDMDL
MODEL 5
REMARK VINA RESULT:      -7.8      4.174      8.250
REMARK  11 active torsions:
REMARK  status: ('A' for Active; 'I' for Inactive)
REMARK    1  A    between atoms: C_2  and  N_3 
REMARK    2  A    between atoms: N_3  and  C_5 
REMARK    3  A    between atoms: N_3  and  C_34 
REMARK    4  A    between atoms: C_5  and  C_6 
REMARK    5  A    between atoms: C_6  and  C_7 
REMARK    6  A    between atoms: C_7  and  N_8 
REMARK       I    between atoms: N_8  and  C_9 
REMARK    7  A    between atoms: C_9  and  C_10 
REMARK    8  A    between atoms: C_10  and  O_11 
REMARK    9  A    between atoms: N_12  and  C_13 
REMARK   10  A    between atoms: C_14  and  O_15 
REMARK   11  A    between atoms: C_18  and  O_19 
ROOT
HETATM    1  C   UNL     1       6.025  27.719  54.761  1.00  0.00     0.256 C 
HETATM    2  N   UNL     1       6.001  26.479  55.568  1.00  0.00    -0.251 N 
HETATM    3  C   UNL     1       4.951  26.231  56.443  1.00  0.00     0.330 C 
HETATM    4  O   UNL     1       4.716  25.145  56.974  1.00  0.00    -0.246 OA
HETATM    5  N   UNL     1       4.168  27.279  56.811  1.00  0.00    -0.308 N 
HETATM    6  C   UNL     1       4.330  28.589  56.400  1.00  0.00     0.048 A 
HETATM    7  C   UNL     1       5.267  28.872  55.415  1.00  0.00     0.035 A 
HETATM    8  C   UNL     1       3.544  29.592  56.974  1.00  0.00     0.031 A 
HETATM    9  C   UNL     1       3.704  30.916  56.568  1.00  0.00     0.021 A 
HETATM   10  C   UNL     1       4.628  31.219  55.574  1.00  0.00     0.011 A 
HETATM   11 BR   UNL     1       4.854  33.010  55.017  1.00  0.00    -0.051 Br
HETATM   12  C   UNL     1       5.390  30.209  54.983  1.00  0.00     0.034 A 
HETATM   13  H   UNL     1       3.437  27.038  57.469  1.00  0.00     0.170 HD
ENDROOT
BRANCH   1  14
HETATM   14  C   UNL     1       7.533  28.237  54.545  1.00  0.00     0.279 C 
HETATM   15  N   UNL     1       8.127  28.844  55.653  1.00  0.00    -0.356 N 
HETATM   16  H   UNL     1       7.738  28.572  56.550  1.00  0.00     0.162 HD
HETATM   17  O   UNL     1       8.089  28.253  53.445  1.00  0.00    -0.268 OA
BRANCH  15  18
HETATM   18  C   UNL     1       9.502  29.290  55.584  1.00  0.00     0.124 C 
BRANCH  18  19
HETATM   19  C   UNL     1      10.183  29.272  56.952  1.00  0.00     0.047 C 
BRANCH  19  20
HETATM   20  C   UNL     1      10.223  30.625  57.663  1.00  0.00     0.236 C 
BRANCH  20  21
HETATM   21  N   UNL     1       9.501  30.621  59.004  1.00  0.00    -0.072 N 
HETATM   22  H   UNL     1      10.067  30.053  59.644  1.00  0.00     0.279 HD
BRANCH  21  23
HETATM   23  C   UNL     1       8.156  29.909  58.938  1.00  0.00     0.230 C 
HETATM   24  C   UNL     1       7.070  30.867  58.476  1.00  0.00     0.034 C 
ENDBRANCH  21  23
BRANCH  21  25
HETATM   25  C   UNL     1       9.396  31.978  59.682  1.00  0.00     0.230 C 
HETATM   26  C   UNL     1       9.605  31.905  61.182  1.00  0.00     0.034 C 
ENDBRANCH  21  25
ENDBRANCH  20  21
ENDBRANCH  19  20
ENDBRANCH  18  19
ENDBRANCH  15  18
ENDBRANCH   1  14
BRANCH   1  27
HETATM   27  O   UNL     1       5.308  27.496  53.562  1.00  0.00    -0.359 OA
HETATM   28  H   UNL     1       5.492  28.282  53.018  1.00  0.00     0.213 HD
ENDBRANCH   1  27
BRANCH   2  29
HETATM   29  C   UNL     1       6.982  25.433  55.366  1.00  0.00     0.076 A 
HETATM   30  C   UNL     1       8.106  25.219  56.185  1.00  0.00     0.098 A 
HETATM   31  C   UNL     1       8.909  24.076  56.030  1.00  0.00     0.075 A 
HETATM   32  C   UNL     1       8.641  23.159  55.017  1.00  0.00     0.070 A 
HETATM   33  C   UNL     1       7.557  23.373  54.175  1.00  0.00     0.039 A 
HETATM   34  C   UNL     1       6.746  24.497  54.340  1.00  0.00     0.035 A 
BRANCH  30  35
HETATM   35  O   UNL     1       8.425  26.133  57.158  1.00  0.00    -0.354 OA
HETATM   36  C   UNL     1       7.882  25.757  58.434  1.00  0.00     0.210 C 
ENDBRANCH  30  35
BRANCH  32  37
HETATM   37  O   UNL     1       9.338  22.007  54.787  1.00  0.00    -0.356 OA
HETATM   38  C   UNL     1       8.925  21.256  53.649  1.00  0.00     0.210 C 
ENDBRANCH  32  37
ENDBRANCH   2  29
TORSDOF 11
ENDMDL
MODEL 6
REMARK VINA RESULT:      -7.8      2.606      5.691
REMARK  11 active torsions:
REMARK  status: ('A' for Active; 'I' for Inactive)
REMARK    1  A    between atoms: C_2  and  N_3 
REMARK    2  A    between atoms: N_3  and  C_5 
REMARK    3  A    between atoms: N_3  and  C_34 
REMARK    4  A    between atoms: C_5  and  C_6 
REMARK    5  A    between atoms: C_6  and  C_7 
REMARK    6  A    between atoms: C_7  and  N_8 
REMARK       I    between atoms: N_8  and  C_9 
REMARK    7  A    between atoms: C_9  and  C_10 
REMARK    8  A    between atoms: C_10  and  O_11 
REMARK    9  A    between atoms: N_12  and  C_13 
REMARK   10  A    between atoms: C_14  and  O_15 
REMARK   11  A    between atoms: C_18  and  O_19 
ROOT
HETATM    1  C   UNL     1       5.582  26.268  55.776  1.00  0.00     0.256 C 
HETATM    2  N   UNL     1       6.905  25.666  56.051  1.00  0.00    -0.251 N 
HETATM    3  C   UNL     1       7.744  26.220  57.008  1.00  0.00     0.330 C 
HETATM    4  O   UNL     1       8.743  25.672  57.475  1.00  0.00    -0.246 OA
HETATM    5  N   UNL     1       7.499  27.497  57.406  1.00  0.00    -0.308 N 
HETATM    6  C   UNL     1       6.487  28.310  56.930  1.00  0.00     0.048 A 
HETATM    7  C   UNL     1       5.531  27.763  56.083  1.00  0.00     0.035 A 
HETATM    8  C   UNL     1       6.442  29.651  57.317  1.00  0.00     0.031 A 
HETATM    9  C   UNL     1       5.428  30.478  56.839  1.00  0.00     0.021 A 
HETATM   10  C   UNL     1       4.453  29.947  56.000  1.00  0.00     0.011 A 
HETATM   11 BR   UNL     1       3.073  31.059  55.343  1.00  0.00    -0.051 Br
HETATM   12  C   UNL     1       4.486  28.599  55.640  1.00  0.00     0.034 A 
HETATM   13  H   UNL     1       8.160  27.852  58.087  1.00  0.00     0.170 HD
ENDROOT
BRANCH   1  14
HETATM   14  C   UNL     1       5.190  26.116  54.223  1.00  0.00     0.279 C 
HETATM   15  N   UNL     1       5.518  27.201  53.408  1.00  0.00    -0.356 N 
HETATM   16  H   UNL     1       6.274  27.782  53.753  1.00  0.00     0.162 HD
HETATM   17  O   UNL     1       4.507  25.186  53.789  1.00  0.00    -0.268 OA
BRANCH  15  18
HETATM   18  C   UNL     1       5.265  27.140  51.985  1.00  0.00     0.124 C 
BRANCH  18  19
HETATM   19  C   UNL     1       4.322  28.250  51.519  1.00  0.00     0.047 C 
BRANCH  19  20
HETATM   20  C   UNL     1       4.129  28.328  50.004  1.00  0.00     0.236 C 
BRANCH  20  21
HETATM   21  N   UNL     1       3.040  27.397  49.487  1.00  0.00    -0.072 N 
HETATM   22  H   UNL     1       2.661  26.902  50.303  1.00  0.00     0.279 HD
BRANCH  21  23
HETATM   23  C   UNL     1       3.593  26.297  48.590  1.00  0.00     0.230 C 
HETATM   24  C   UNL     1       4.823  26.790  47.844  1.00  0.00     0.034 C 
ENDBRANCH  21  23
BRANCH  21  25
HETATM   25  C   UNL     1       1.840  28.092  48.865  1.00  0.00     0.230 C 
HETATM   26  C   UNL     1       1.081  27.205  47.896  1.00  0.00     0.034 C 
ENDBRANCH  21  25
ENDBRANCH  20  21
ENDBRANCH  19  20
ENDBRANCH  18  19
ENDBRANCH  15  18
ENDBRANCH   1  14
BRANCH   1  27
HETATM   27  O   UNL     1       4.636  25.718  56.672  1.00  0.00    -0.359 OA
HETATM   28  H   UNL     1       3.973  26.423  56.791  1.00  0.00     0.213 HD
ENDBRANCH   1  27
BRANCH   2  29
HETATM   29  C   UNL     1       7.299  24.411  55.443  1.00  0.00     0.076 A 
HETATM   30  C   UNL     1       7.937  24.290  54.195  1.00  0.00     0.098 A 
HETATM   31  C   UNL     1       8.448  23.056  53.759  1.00  0.00     0.075 A 
HETATM   32  C   UNL     1       8.278  21.910  54.532  1.00  0.00     0.070 A 
HETATM   33  C   UNL     1       7.617  22.003  55.750  1.00  0.00     0.039 A 
HETATM   34  C   UNL     1       7.126  23.232  56.195  1.00  0.00     0.035 A 
BRANCH  30  35
HETATM   35  O   UNL     1       8.074  25.393  53.390  1.00  0.00    -0.354 OA
HETATM   36  C   UNL     1       8.072  25.035  51.998  1.00  0.00     0.210 C 
ENDBRANCH  30  35
BRANCH  32  37
HETATM   37  O   UNL     1       8.748  20.667  54.218  1.00  0.00    -0.356 OA
HETATM   38  C   UNL     1       8.555  20.260  52.866  1.00  0.00     0.210 C 
ENDBRANCH  32  37
ENDBRANCH   2  29
TORSDOF 11
ENDMDL
MODEL 7
REMARK VINA RESULT:      -7.6      3.580      8.556
REMARK  11 active torsions:
REMARK  status: ('A' for Active; 'I' for Inactive)
REMARK    1  A    between atoms: C_2  and  N_3 
REMARK    2  A    between atoms: N_3  and  C_5 
REMARK    3  A    between atoms: N_3  and  C_34 
REMARK    4  A    between atoms: C_5  and  C_6 
REMARK    5  A    between atoms: C_6  and  C_7 
REMARK    6  A    between atoms: C_7  and  N_8 
REMARK       I    between atoms: N_8  and  C_9 
REMARK    7  A    between atoms: C_9  and  C_10 
REMARK    8  A    between atoms: C_10  and  O_11 
REMARK    9  A    between atoms: N_12  and  C_13 
REMARK   10  A    between atoms: C_14  and  O_15 
REMARK   11  A    between atoms: C_18  and  O_19 
ROOT
HETATM    1  C   UNL     1       6.202  28.243  54.484  1.00  0.00     0.256 C 
HETATM    2  N   UNL     1       5.734  26.870  54.192  1.00  0.00    -0.251 N 
HETATM    3  C   UNL     1       4.705  26.656  53.285  1.00  0.00     0.330 C 
HETATM    4  O   UNL     1       4.406  25.565  52.801  1.00  0.00    -0.246 OA
HETATM    5  N   UNL     1       3.911  27.712  52.963  1.00  0.00    -0.308 N 
HETATM    6  C   UNL     1       4.026  28.992  53.472  1.00  0.00     0.048 A 
HETATM    7  C   UNL     1       5.121  29.301  54.269  1.00  0.00     0.035 A 
HETATM    8  C   UNL     1       3.049  29.944  53.168  1.00  0.00     0.031 A 
HETATM    9  C   UNL     1       3.155  31.235  53.681  1.00  0.00     0.021 A 
HETATM   10  C   UNL     1       4.251  31.569  54.470  1.00  0.00     0.011 A 
HETATM   11 BR   UNL     1       4.406  33.316  55.173  1.00  0.00    -0.051 Br
HETATM   12  C   UNL     1       5.239  30.622  54.747  1.00  0.00     0.034 A 
HETATM   13  H   UNL     1       3.165  27.486  52.316  1.00  0.00     0.170 HD
ENDROOT
BRANCH   1  14
HETATM   14  C   UNL     1       6.666  28.381  56.018  1.00  0.00     0.279 C 
HETATM   15  N   UNL     1       8.044  28.458  56.228  1.00  0.00    -0.356 N 
HETATM   16  H   UNL     1       8.579  28.797  55.435  1.00  0.00     0.162 HD
HETATM   17  O   UNL     1       5.889  28.270  56.969  1.00  0.00    -0.268 OA
BRANCH  15  18
HETATM   18  C   UNL     1       8.563  28.646  57.565  1.00  0.00     0.124 C 
BRANCH  18  19
HETATM   19  C   UNL     1       9.608  29.761  57.626  1.00  0.00     0.047 C 
BRANCH  19  20
HETATM   20  C   UNL     1       9.174  30.999  58.411  1.00  0.00     0.236 C 
BRANCH  20  21
HETATM   21  N   UNL     1       8.251  30.678  59.580  1.00  0.00    -0.072 N 
HETATM   22  H   UNL     1       7.898  29.727  59.426  1.00  0.00     0.279 HD
BRANCH  21  23
HETATM   23  C   UNL     1       7.007  31.556  59.596  1.00  0.00     0.230 C 
HETATM   24  C   UNL     1       6.380  31.614  58.212  1.00  0.00     0.034 C 
ENDBRANCH  21  23
BRANCH  21  25
HETATM   25  C   UNL     1       8.929  30.624  60.940  1.00  0.00     0.230 C 
HETATM   26  C   UNL     1       9.693  31.892  61.268  1.00  0.00     0.034 C 
ENDBRANCH  21  25
ENDBRANCH  20  21
ENDBRANCH  19  20
ENDBRANCH  18  19
ENDBRANCH  15  18
ENDBRANCH   1  14
BRANCH   1  27
HETATM   27  O   UNL     1       7.195  28.595  53.541  1.00  0.00    -0.359 OA
HETATM   28  H   UNL     1       6.810  29.341  53.046  1.00  0.00     0.213 HD
ENDBRANCH   1  27
BRANCH   2  29
HETATM   29  C   UNL     1       6.422  25.713  54.728  1.00  0.00     0.076 A 
HETATM   30  C   UNL     1       7.606  25.168  54.197  1.00  0.00     0.098 A 
HETATM   31  C   UNL     1       8.308  24.159  54.878  1.00  0.00     0.075 A 
HETATM   32  C   UNL     1       7.810  23.635  56.068  1.00  0.00     0.070 A 
HETATM   33  C   UNL     1       6.622  24.134  56.588  1.00  0.00     0.039 A 
HETATM   34  C   UNL     1       5.933  25.151  55.923  1.00  0.00     0.035 A 
BRANCH  30  35
HETATM   35  O   UNL     1       8.093  25.631  53.000  1.00  0.00    -0.354 OA
HETATM   36  C   UNL     1       7.734  24.764  51.912  1.00  0.00     0.210 C 
ENDBRANCH  30  35
BRANCH  32  37
HETATM   37  O   UNL     1       8.416  22.671  56.823  1.00  0.00    -0.356 OA
HETATM   38  C   UNL     1       8.254  21.334  56.357  1.00  0.00     0.210 C 
ENDBRANCH  32  37
ENDBRANCH   2  29
TORSDOF 11
ENDMDL
MODEL 8
REMARK VINA RESULT:      -7.6      9.568     13.353
REMARK  11 active torsions:
REMARK  status: ('A' for Active; 'I' for Inactive)
REMARK    1  A    between atoms: C_2  and  N_3 
REMARK    2  A    between atoms: N_3  and  C_5 
REMARK    3  A    between atoms: N_3  and  C_34 
REMARK    4  A    between atoms: C_5  and  C_6 
REMARK    5  A    between atoms: C_6  and  C_7 
REMARK    6  A    between atoms: C_7  and  N_8 
REMARK       I    between atoms: N_8  and  C_9 
REMARK    7  A    between atoms: C_9  and  C_10 
REMARK    8  A    between atoms: C_10  and  O_11 
REMARK    9  A    between atoms: N_12  and  C_13 
REMARK   10  A    between atoms: C_14  and  O_15 
REMARK   11  A    between atoms: C_18  and  O_19 
ROOT
HETATM    1  C   UNL     1       3.679  35.635  62.471  1.00  0.00     0.256 C 
HETATM    2  N   UNL     1       4.441  36.164  63.624  1.00  0.00    -0.251 N 
HETATM    3  C   UNL     1       4.916  37.469  63.612  1.00  0.00     0.330 C 
HETATM    4  O   UNL     1       5.346  38.072  64.596  1.00  0.00    -0.246 OA
HETATM    5  N   UNL     1       4.993  38.107  62.415  1.00  0.00    -0.308 N 
HETATM    6  C   UNL     1       4.651  37.567  61.189  1.00  0.00     0.048 A 
HETATM    7  C   UNL     1       4.034  36.323  61.154  1.00  0.00     0.035 A 
HETATM    8  C   UNL     1       4.921  38.284  60.021  1.00  0.00     0.031 A 
HETATM    9  C   UNL     1       4.583  37.744  58.782  1.00  0.00     0.021 A 
HETATM   10  C   UNL     1       3.952  36.506  58.725  1.00  0.00     0.011 A 
HETATM   11 BR   UNL     1       3.490  35.763  57.051  1.00  0.00    -0.051 Br
HETATM   12  C   UNL     1       3.658  35.807  59.897  1.00  0.00     0.034 A 
HETATM   13  H   UNL     1       5.370  39.046  62.470  1.00  0.00     0.170 HD
ENDROOT
BRANCH   1  14
HETATM   14  C   UNL     1       3.976  34.069  62.253  1.00  0.00     0.279 C 
HETATM   15  N   UNL     1       5.200  33.764  61.654  1.00  0.00    -0.356 N 
HETATM   16  H   UNL     1       5.918  34.473  61.762  1.00  0.00     0.162 HD
HETATM   17  O   UNL     1       3.134  33.190  62.447  1.00  0.00    -0.268 OA
BRANCH  15  18
HETATM   18  C   UNL     1       5.592  32.383  61.470  1.00  0.00     0.124 C 
BRANCH  18  19
HETATM   19  C   UNL     1       5.979  32.082  60.022  1.00  0.00     0.047 C 
BRANCH  19  20
HETATM   20  C   UNL     1       7.481  31.934  59.780  1.00  0.00     0.236 C 
BRANCH  20  21
HETATM   21  N   UNL     1       7.994  30.521  60.030  1.00  0.00    -0.072 N 
HETATM   22  H   UNL     1       7.218  29.993  60.446  1.00  0.00     0.279 HD
BRANCH  21  23
HETATM   23  C   UNL     1       9.098  30.480  61.078  1.00  0.00     0.230 C 
HETATM   24  C   UNL     1       9.486  31.889  61.495  1.00  0.00     0.034 C 
ENDBRANCH  21  23
BRANCH  21  25
HETATM   25  C   UNL     1       8.365  29.741  58.779  1.00  0.00     0.230 C 
HETATM   26  C   UNL     1       9.593  30.295  58.081  1.00  0.00     0.034 C 
ENDBRANCH  21  25
ENDBRANCH  20  21
ENDBRANCH  19  20
ENDBRANCH  18  19
ENDBRANCH  15  18
ENDBRANCH   1  14
BRANCH   1  27
HETATM   27  O   UNL     1       2.311  35.950  62.646  1.00  0.00    -0.359 OA
HETATM   28  H   UNL     1       1.937  35.922  61.747  1.00  0.00     0.213 HD
ENDBRANCH   1  27
BRANCH   2  29
HETATM   29  C   UNL     1       4.587  35.396  64.843  1.00  0.00     0.076 A 
HETATM   30  C   UNL     1       5.726  34.644  65.186  1.00  0.00     0.098 A 
HETATM   31  C   UNL     1       5.861  34.076  66.465  1.00  0.00     0.075 A 
HETATM   32  C   UNL     1       4.837  34.196  67.400  1.00  0.00     0.070 A 
HETATM   33  C   UNL     1       3.689  34.903  67.067  1.00  0.00     0.039 A 
HETATM   34  C   UNL     1       3.561  35.485  65.804  1.00  0.00     0.035 A 
BRANCH  30  35
HETATM   35  O   UNL     1       6.728  34.467  64.266  1.00  0.00    -0.354 OA
HETATM   36  C   UNL     1       7.510  33.296  64.554  1.00  0.00     0.210 C 
ENDBRANCH  30  35
BRANCH  32  37
HETATM   37  O   UNL     1       4.868  33.704  68.675  1.00  0.00    -0.356 OA
HETATM   38  C   UNL     1       5.913  34.208  69.502  1.00  0.00     0.210 C 
ENDBRANCH  32  37
ENDBRANCH   2  29
TORSDOF 11
ENDMDL
MODEL 9
REMARK VINA RESULT:      -7.6      3.130      6.105
REMARK  11 active torsions:
REMARK  status: ('A' for Active; 'I' for Inactive)
REMARK    1  A    between atoms: C_2  and  N_3 
REMARK    2  A    between atoms: N_3  and  C_5 
REMARK    3  A    between atoms: N_3  and  C_34 
REMARK    4  A    between atoms: C_5  and  C_6 
REMARK    5  A    between atoms: C_6  and  C_7 
REMARK    6  A    between atoms: C_7  and  N_8 
REMARK       I    between atoms: N_8  and  C_9 
REMARK    7  A    between atoms: C_9  and  C_10 
REMARK    8  A    between atoms: C_10  and  O_11 
REMARK    9  A    between atoms: N_12  and  C_13 
REMARK   10  A    between atoms: C_14  and  O_15 
REMARK   11  A    between atoms: C_18  and  O_19 
ROOT
HETATM    1  C   UNL     1       4.685  28.708  55.183  1.00  0.00     0.256 C 
HETATM    2  N   UNL     1       6.059  28.215  55.429  1.00  0.00    -0.251 N 
HETATM    3  C   UNL     1       6.858  28.815  56.392  1.00  0.00     0.330 C 
HETATM    4  O   UNL     1       7.906  28.343  56.834  1.00  0.00    -0.246 OA
HETATM    5  N   UNL     1       6.509  30.055  56.827  1.00  0.00    -0.308 N 
HETATM    6  C   UNL     1       5.425  30.789  56.384  1.00  0.00     0.048 A 
HETATM    7  C   UNL     1       4.510  30.185  55.531  1.00  0.00     0.035 A 
HETATM    8  C   UNL     1       5.269  32.111  56.808  1.00  0.00     0.031 A 
HETATM    9  C   UNL     1       4.181  32.859  56.362  1.00  0.00     0.021 A 
HETATM   10  C   UNL     1       3.246  32.269  55.518  1.00  0.00     0.011 A 
HETATM   11 BR   UNL     1       1.768  33.274  54.906  1.00  0.00    -0.051 Br
HETATM   12  C   UNL     1       3.391  30.939  55.121  1.00  0.00     0.034 A 
HETATM   13  H   UNL     1       7.145  30.447  57.511  1.00  0.00     0.170 HD
ENDROOT
BRANCH   1  14
HETATM   14  C   UNL     1       4.290  28.564  53.630  1.00  0.00     0.279 C 
HETATM   15  N   UNL     1       5.054  29.321  52.739  1.00  0.00    -0.356 N 
HETATM   16  H   UNL     1       5.978  29.571  53.073  1.00  0.00     0.162 HD
HETATM   17  O   UNL     1       3.288  27.958  53.243  1.00  0.00    -0.268 OA
BRANCH  15  18
HETATM   18  C   UNL     1       4.821  29.216  51.315  1.00  0.00     0.124 C 
BRANCH  18  19
HETATM   19  C   UNL     1       5.318  27.888  50.746  1.00  0.00     0.047 C 
BRANCH  19  20
HETATM   20  C   UNL     1       4.900  27.616  49.300  1.00  0.00     0.236 C 
BRANCH  20  21
HETATM   21  N   UNL     1       3.507  27.012  49.181  1.00  0.00    -0.072 N 
HETATM   22  H   UNL     1       3.174  26.843  50.137  1.00  0.00     0.279 HD
BRANCH  21  23
HETATM   23  C   UNL     1       3.523  25.637  48.527  1.00  0.00     0.230 C 
HETATM   24  C   UNL     1       2.830  25.683  47.175  1.00  0.00     0.034 C 
ENDBRANCH  21  23
BRANCH  21  25
HETATM   25  C   UNL     1       2.461  27.925  48.563  1.00  0.00     0.230 C 
HETATM   26  C   UNL     1       1.609  28.633  49.599  1.00  0.00     0.034 C 
ENDBRANCH  21  25
ENDBRANCH  20  21
ENDBRANCH  19  20
ENDBRANCH  18  19
ENDBRANCH  15  18
ENDBRANCH   1  14
BRANCH   1  27
HETATM   27  O   UNL     1       3.801  28.055  56.072  1.00  0.00    -0.359 OA
HETATM   28  H   UNL     1       2.913  28.269  55.735  1.00  0.00     0.213 HD
ENDBRANCH   1  27
BRANCH   2  29
HETATM   29  C   UNL     1       6.553  27.016  54.783  1.00  0.00     0.076 A 
HETATM   30  C   UNL     1       6.112  25.711  55.071  1.00  0.00     0.098 A 
HETATM   31  C   UNL     1       6.508  24.621  54.276  1.00  0.00     0.075 A 
HETATM   32  C   UNL     1       7.397  24.805  53.221  1.00  0.00     0.070 A 
HETATM   33  C   UNL     1       7.872  26.081  52.945  1.00  0.00     0.039 A 
HETATM   34  C   UNL     1       7.465  27.168  53.720  1.00  0.00     0.035 A 
BRANCH  30  35
HETATM   35  O   UNL     1       5.275  25.493  56.137  1.00  0.00    -0.354 OA
HETATM   36  C   UNL     1       6.011  25.273  57.350  1.00  0.00     0.210 C 
ENDBRANCH  30  35
BRANCH  32  37
HETATM   37  O   UNL     1       7.833  23.826  52.374  1.00  0.00    -0.356 OA
HETATM   38  C   UNL     1       7.892  22.515  52.929  1.00  0.00     0.210 C 
ENDBRANCH  32  37
ENDBRANCH   2  29
TORSDOF 11
ENDMDL
MODEL 10
REMARK VINA RESULT:      -7.5      3.037      6.857
REMARK  11 active torsions:
REMARK  status: ('A' for Active; 'I' for Inactive)
REMARK    1  A    between atoms: C_2  and  N_3 
REMARK    2  A    between atoms: N_3  and  C_5 
REMARK    3  A    between atoms: N_3  and  C_34 
REMARK    4  A    between atoms: C_5  and  C_6 
REMARK    5  A    between atoms: C_6  and  C_7 
REMARK    6  A    between atoms: C_7  and  N_8 
REMARK       I    between atoms: N_8  and  C_9 
REMARK    7  A    between atoms: C_9  and  C_10 
REMARK    8  A    between atoms: C_10  and  O_11 
REMARK    9  A    between atoms: N_12  and  C_13 
REMARK   10  A    between atoms: C_14  and  O_15 
REMARK   11  A    between atoms: C_18  and  O_19 
ROOT
HETATM    1  C   UNL     1       4.807  27.086  52.945  1.00  0.00     0.256 C 
HETATM    2  N   UNL     1       4.718  27.597  51.559  1.00  0.00    -0.251 N 
HETATM    3  C   UNL     1       5.252  26.866  50.505  1.00  0.00     0.330 C 
HETATM    4  O   UNL     1       5.027  27.079  49.314  1.00  0.00    -0.246 OA
HETATM    5  N   UNL     1       6.155  25.893  50.799  1.00  0.00    -0.308 N 
HETATM    6  C   UNL     1       6.608  25.569  52.064  1.00  0.00     0.048 A 
HETATM    7  C   UNL     1       6.004  26.163  53.165  1.00  0.00     0.035 A 
HETATM    8  C   UNL     1       7.649  24.648  52.207  1.00  0.00     0.031 A 
HETATM    9  C   UNL     1       8.113  24.319  53.479  1.00  0.00     0.021 A 
HETATM   10  C   UNL     1       7.514  24.893  54.596  1.00  0.00     0.011 A 
HETATM   11 BR   UNL     1       8.136  24.455  56.325  1.00  0.00    -0.051 Br
HETATM   12  C   UNL     1       6.454  25.790  54.448  1.00  0.00     0.034 A 
HETATM   13  H   UNL     1       6.525  25.414  49.987  1.00  0.00     0.170 HD
ENDROOT
BRANCH   1  14
HETATM   14  C   UNL     1       4.974  28.294  53.995  1.00  0.00     0.279 C 
HETATM   15  N   UNL     1       3.956  28.413  54.944  1.00  0.00    -0.356 N 
HETATM   16  H   UNL     1       3.444  27.558  55.132  1.00  0.00     0.162 HD
HETATM   17  O   UNL     1       5.843  29.162  53.891  1.00  0.00    -0.268 OA
BRANCH  15  18
HETATM   18  C   UNL     1       4.041  29.428  55.972  1.00  0.00     0.124 C 
BRANCH  18  19
HETATM   19  C   UNL     1       4.902  28.980  57.154  1.00  0.00     0.047 C 
BRANCH  19  20
HETATM   20  C   UNL     1       6.120  29.864  57.428  1.00  0.00     0.236 C 
BRANCH  20  21
HETATM   21  N   UNL     1       7.208  29.158  58.226  1.00  0.00    -0.072 N 
HETATM   22  H   UNL     1       6.734  28.618  58.960  1.00  0.00     0.279 HD
BRANCH  21  23
HETATM   23  C   UNL     1       8.102  30.134  58.979  1.00  0.00     0.230 C 
HETATM   24  C   UNL     1       7.421  31.487  59.109  1.00  0.00     0.034 C 
ENDBRANCH  21  23
BRANCH  21  25
HETATM   25  C   UNL     1       8.013  28.130  57.448  1.00  0.00     0.230 C 
HETATM   26  C   UNL     1       8.473  28.641  56.097  1.00  0.00     0.034 C 
ENDBRANCH  21  25
ENDBRANCH  20  21
ENDBRANCH  19  20
ENDBRANCH  18  19
ENDBRANCH  15  18
ENDBRANCH   1  14
BRANCH   1  27
HETATM   27  O   UNL     1       3.697  26.247  53.193  1.00  0.00    -0.359 OA
HETATM   28  H   UNL     1       4.023  25.348  53.009  1.00  0.00     0.213 HD
ENDBRANCH   1  27
BRANCH   2  29
HETATM   29  C   UNL     1       3.954  28.787  51.245  1.00  0.00     0.076 A 
HETATM   30  C   UNL     1       4.506  29.996  50.785  1.00  0.00     0.098 A 
HETATM   31  C   UNL     1       3.684  31.043  50.331  1.00  0.00     0.075 A 
HETATM   32  C   UNL     1       2.298  30.923  50.387  1.00  0.00     0.070 A 
HETATM   33  C   UNL     1       1.734  29.751  50.874  1.00  0.00     0.039 A 
HETATM   34  C   UNL     1       2.549  28.703  51.306  1.00  0.00     0.035 A 
BRANCH  30  35
HETATM   35  O   UNL     1       5.869  30.161  50.767  1.00  0.00    -0.354 OA
HETATM   36  C   UNL     1       6.281  31.045  49.712  1.00  0.00     0.210 C 
ENDBRANCH  30  35
BRANCH  32  37
HETATM   37  O   UNL     1       1.405  31.864  49.957  1.00  0.00    -0.356 OA
HETATM   38  C   UNL     1       0.034  31.569  50.208  1.00  0.00     0.210 C 
ENDBRANCH  32  37
ENDBRANCH   2  29
TORSDOF 11
ENDMDL
