MODEL 1
REMARK VINA RESULT:      -8.6      0.000      0.000
REMARK  4 active torsions:
REMARK  status: ('A' for Active; 'I' for Inactive)
REMARK    1  A    between atoms: C_5  and  N_6 
REMARK       I    between atoms: N_6  and  C_7 
REMARK    2  A    between atoms: C_7  and  C_8 
REMARK    3  A    between atoms: C_12  and  O_13 
REMARK    4  A    between atoms: C_19  and  C_20 
ROOT
HETATM    1  C   UNL     1       6.128  31.748  62.852  1.00  0.00     0.015 C 
HETATM    2  C   UNL     1       6.242  33.105  63.574  1.00  0.00    -0.040 C 
HETATM    3  C   UNL     1       7.642  33.182  64.210  1.00  0.00     0.015 C 
HETATM    4  C   UNL     1       5.114  33.201  64.628  1.00  0.00     0.039 C 
HETATM    5  C   UNL     1       5.032  34.559  65.354  1.00  0.00     0.122 C 
HETATM    6  C   UNL     1       5.286  35.721  64.438  1.00  0.00     0.007 A 
HETATM    7  C   UNL     1       5.784  35.591  63.155  1.00  0.00     0.047 A 
HETATM    8  N   UNL     1       5.996  36.653  62.346  1.00  0.00    -0.237 NA
HETATM    9  C   UNL     1       5.727  37.882  62.830  1.00  0.00     0.133 A 
HETATM   10  N   UNL     1       5.235  38.102  64.063  1.00  0.00    -0.244 NA
HETATM   11  C   UNL     1       5.030  37.019  64.837  1.00  0.00     0.130 A 
HETATM   12  C   UNL     1       6.054  34.239  62.544  1.00  0.00     0.069 C 
ENDROOT
BRANCH   5  13
HETATM   13  N   UNL     1       5.927  34.602  66.500  1.00  0.00    -0.347 N 
HETATM   14  C   UNL     1       5.494  34.273  67.763  1.00  0.00     0.270 C 
HETATM   15  O   UNL     1       4.319  34.026  68.014  1.00  0.00    -0.266 OA
HETATM   16  H   UNL     1       6.914  34.745  66.340  1.00  0.00     0.163 HD
BRANCH  14  17
HETATM   17  C   UNL     1       6.514  34.221  68.774  1.00  0.00     0.122 A 
HETATM   18  N   UNL     1       6.443  33.320  69.811  1.00  0.00    -0.270 N 
HETATM   19  H   UNL     1       5.707  32.637  69.972  1.00  0.00     0.189 HD
HETATM   20  N   UNL     1       7.481  33.385  70.667  1.00  0.00    -0.149 NA
HETATM   21  C   UNL     1       8.211  34.357  70.146  1.00  0.00     0.183 A 
HETATM   22  C   UNL     1       7.686  34.925  68.985  1.00  0.00     0.096 A 
BRANCH  21  23
HETATM   23  O   UNL     1       9.331  34.645  70.797  1.00  0.00    -0.344 OA
HETATM   24  H   UNL     1       9.506  35.578  70.584  1.00  0.00     0.219 HD
ENDBRANCH  21  23
ENDBRANCH  14  17
ENDBRANCH   5  13
BRANCH   9  25
HETATM   25  C   UNL     1       5.884  39.076  61.893  1.00  0.00     0.011 C 
HETATM   26  C   UNL     1       5.587  40.359  62.687  1.00  0.00     0.023 C 
HETATM   27  C   UNL     1       7.316  39.146  61.329  1.00  0.00     0.023 C 
HETATM   28  C   UNL     1       4.909  38.981  60.702  1.00  0.00     0.023 C 
ENDBRANCH   9  25
TORSDOF 4
ENDMDL
MODEL 2
REMARK VINA RESULT:      -8.3     12.106     14.947
REMARK  4 active torsions:
REMARK  status: ('A' for Active; 'I' for Inactive)
REMARK    1  A    between atoms: C_5  and  N_6 
REMARK       I    between atoms: N_6  and  C_7 
REMARK    2  A    between atoms: C_7  and  C_8 
REMARK    3  A    between atoms: C_12  and  O_13 
REMARK    4  A    between atoms: C_19  and  C_20 
ROOT
HETATM    1  C   UNL     1       6.988  22.889  54.219  1.00  0.00     0.015 C 
HETATM    2  C   UNL     1       6.857  24.352  53.751  1.00  0.00    -0.040 C 
HETATM    3  C   UNL     1       8.273  24.873  53.442  1.00  0.00     0.015 C 
HETATM    4  C   UNL     1       6.163  25.168  54.867  1.00  0.00     0.039 C 
HETATM    5  C   UNL     1       5.860  26.632  54.492  1.00  0.00     0.122 C 
HETATM    6  C   UNL     1       5.397  26.783  53.072  1.00  0.00     0.007 A 
HETATM    7  C   UNL     1       5.473  25.773  52.130  1.00  0.00     0.047 A 
HETATM    8  N   UNL     1       5.041  25.931  50.860  1.00  0.00    -0.237 NA
HETATM    9  C   UNL     1       4.539  27.131  50.505  1.00  0.00     0.133 A 
HETATM   10  N   UNL     1       4.422  28.166  51.356  1.00  0.00    -0.244 NA
HETATM   11  C   UNL     1       4.857  27.969  52.615  1.00  0.00     0.130 A 
HETATM   12  C   UNL     1       5.976  24.397  52.484  1.00  0.00     0.069 C 
ENDROOT
BRANCH   5  13
HETATM   13  N   UNL     1       7.002  27.494  54.755  1.00  0.00    -0.347 N 
HETATM   14  C   UNL     1       7.280  27.954  56.020  1.00  0.00     0.270 C 
HETATM   15  O   UNL     1       6.535  27.753  56.974  1.00  0.00    -0.266 OA
HETATM   16  H   UNL     1       7.677  27.643  54.018  1.00  0.00     0.163 HD
BRANCH  14  17
HETATM   17  C   UNL     1       8.514  28.676  56.160  1.00  0.00     0.122 A 
HETATM   18  N   UNL     1       9.127  29.255  55.073  1.00  0.00    -0.270 N 
HETATM   19  H   UNL     1       8.800  29.236  54.111  1.00  0.00     0.189 HD
HETATM   20  N   UNL     1      10.267  29.910  55.369  1.00  0.00    -0.149 NA
HETATM   21  C   UNL     1      10.363  29.724  56.675  1.00  0.00     0.183 A 
HETATM   22  C   UNL     1       9.330  28.975  57.237  1.00  0.00     0.096 A 
BRANCH  21  23
HETATM   23  O   UNL     1      11.420  30.279  57.256  1.00  0.00    -0.344 OA
HETATM   24  H   UNL     1      11.053  30.776  58.008  1.00  0.00     0.219 HD
ENDBRANCH  21  23
ENDBRANCH  14  17
ENDBRANCH   5  13
BRANCH   9  25
HETATM   25  C   UNL     1       3.973  27.287  49.096  1.00  0.00     0.011 C 
HETATM   26  C   UNL     1       5.041  27.955  48.215  1.00  0.00     0.023 C 
HETATM   27  C   UNL     1       3.604  25.915  48.498  1.00  0.00     0.023 C 
HETATM   28  C   UNL     1       2.702  28.160  49.100  1.00  0.00     0.023 C 
ENDBRANCH   9  25
TORSDOF 4
ENDMDL
MODEL 3
REMARK VINA RESULT:      -8.1     12.131     16.018
REMARK  4 active torsions:
REMARK  status: ('A' for Active; 'I' for Inactive)
REMARK    1  A    between atoms: C_5  and  N_6 
REMARK       I    between atoms: N_6  and  C_7 
REMARK    2  A    between atoms: C_7  and  C_8 
REMARK    3  A    between atoms: C_12  and  O_13 
REMARK    4  A    between atoms: C_19  and  C_20 
ROOT
HETATM    1  C   UNL     1       7.735  28.705  58.036  1.00  0.00     0.015 C 
HETATM    2  C   UNL     1       7.478  27.990  56.695  1.00  0.00    -0.040 C 
HETATM    3  C   UNL     1       8.341  28.683  55.623  1.00  0.00     0.015 C 
HETATM    4  C   UNL     1       5.968  28.071  56.373  1.00  0.00     0.039 C 
HETATM    5  C   UNL     1       5.542  27.296  55.110  1.00  0.00     0.122 C 
HETATM    6  C   UNL     1       6.257  25.984  54.968  1.00  0.00     0.007 A 
HETATM    7  C   UNL     1       7.351  25.620  55.732  1.00  0.00     0.047 A 
HETATM    8  N   UNL     1       7.972  24.428  55.590  1.00  0.00    -0.237 NA
HETATM    9  C   UNL     1       7.511  23.581  54.649  1.00  0.00     0.133 A 
HETATM   10  N   UNL     1       6.451  23.849  53.865  1.00  0.00    -0.244 NA
HETATM   11  C   UNL     1       5.853  25.043  54.040  1.00  0.00     0.130 A 
HETATM   12  C   UNL     1       7.876  26.506  56.833  1.00  0.00     0.069 C 
ENDROOT
BRANCH   5  13
HETATM   13  N   UNL     1       5.706  28.104  53.911  1.00  0.00    -0.347 N 
HETATM   14  C   UNL     1       4.635  28.438  53.117  1.00  0.00     0.270 C 
HETATM   15  O   UNL     1       3.507  27.995  53.309  1.00  0.00    -0.266 OA
HETATM   16  H   UNL     1       6.601  28.539  53.739  1.00  0.00     0.163 HD
BRANCH  14  17
HETATM   17  C   UNL     1       4.918  29.356  52.048  1.00  0.00     0.122 A 
HETATM   18  N   UNL     1       4.676  30.703  52.185  1.00  0.00    -0.270 N 
HETATM   19  H   UNL     1       4.291  31.171  53.001  1.00  0.00     0.189 HD
HETATM   20  N   UNL     1       5.008  31.433  51.102  1.00  0.00    -0.149 NA
HETATM   21  C   UNL     1       5.463  30.509  50.273  1.00  0.00     0.183 A 
HETATM   22  C   UNL     1       5.439  29.209  50.775  1.00  0.00     0.096 A 
BRANCH  21  23
HETATM   23  O   UNL     1       5.878  30.953  49.092  1.00  0.00    -0.344 OA
HETATM   24  H   UNL     1       6.391  30.215  48.719  1.00  0.00     0.219 HD
ENDBRANCH  21  23
ENDBRANCH  14  17
ENDBRANCH   5  13
BRANCH   9  25
HETATM   25  C   UNL     1       8.155  22.201  54.544  1.00  0.00     0.011 C 
HETATM   26  C   UNL     1       9.665  22.351  54.794  1.00  0.00     0.023 C 
HETATM   27  C   UNL     1       7.559  21.236  55.587  1.00  0.00     0.023 C 
HETATM   28  C   UNL     1       7.932  21.587  53.148  1.00  0.00     0.023 C 
ENDBRANCH   9  25
TORSDOF 4
ENDMDL
MODEL 4
REMARK VINA RESULT:      -8.1      6.630      9.859
REMARK  4 active torsions:
REMARK  status: ('A' for Active; 'I' for Inactive)
REMARK    1  A    between atoms: C_5  and  N_6 
REMARK       I    between atoms: N_6  and  C_7 
REMARK    2  A    between atoms: C_7  and  C_8 
REMARK    3  A    between atoms: C_12  and  O_13 
REMARK    4  A    between atoms: C_19  and  C_20 
ROOT
HETATM    1  C   UNL     1       3.137  31.903  56.406  1.00  0.00     0.015 C 
HETATM    2  C   UNL     1       4.167  31.135  57.256  1.00  0.00    -0.040 C 
HETATM    3  C   UNL     1       3.526  30.853  58.628  1.00  0.00     0.015 C 
HETATM    4  C   UNL     1       5.448  31.992  57.374  1.00  0.00     0.039 C 
HETATM    5  C   UNL     1       6.616  31.300  58.105  1.00  0.00     0.122 C 
HETATM    6  C   UNL     1       6.732  29.843  57.760  1.00  0.00     0.007 A 
HETATM    7  C   UNL     1       5.763  29.139  57.069  1.00  0.00     0.047 A 
HETATM    8  N   UNL     1       5.896  27.830  56.763  1.00  0.00    -0.237 NA
HETATM    9  C   UNL     1       7.011  27.193  57.172  1.00  0.00     0.133 A 
HETATM   10  N   UNL     1       8.007  27.799  57.843  1.00  0.00    -0.244 NA
HETATM   11  C   UNL     1       7.842  29.106  58.124  1.00  0.00     0.130 A 
HETATM   12  C   UNL     1       4.520  29.812  56.543  1.00  0.00     0.069 C 
ENDROOT
BRANCH   5  13
HETATM   13  N   UNL     1       6.521  31.481  59.546  1.00  0.00    -0.347 N 
HETATM   14  C   UNL     1       7.475  32.179  60.247  1.00  0.00     0.270 C 
HETATM   15  O   UNL     1       8.503  32.598  59.725  1.00  0.00    -0.266 OA
HETATM   16  H   UNL     1       5.669  31.206  60.014  1.00  0.00     0.163 HD
BRANCH  14  17
HETATM   17  C   UNL     1       7.183  32.403  61.636  1.00  0.00     0.122 A 
HETATM   18  N   UNL     1       5.933  32.148  62.151  1.00  0.00    -0.270 N 
HETATM   19  H   UNL     1       5.126  31.800  61.640  1.00  0.00     0.189 HD
HETATM   20  N   UNL     1       5.822  32.393  63.472  1.00  0.00    -0.149 NA
HETATM   21  C   UNL     1       7.037  32.815  63.779  1.00  0.00     0.183 A 
HETATM   22  C   UNL     1       7.931  32.854  62.709  1.00  0.00     0.096 A 
BRANCH  21  23
HETATM   23  O   UNL     1       7.228  33.133  65.053  1.00  0.00    -0.344 OA
HETATM   24  H   UNL     1       6.828  34.015  65.149  1.00  0.00     0.219 HD
ENDBRANCH  21  23
ENDBRANCH  14  17
ENDBRANCH   5  13
BRANCH   9  25
HETATM   25  C   UNL     1       7.204  25.737  56.755  1.00  0.00     0.011 C 
HETATM   26  C   UNL     1       7.523  25.702  55.251  1.00  0.00     0.023 C 
HETATM   27  C   UNL     1       8.363  25.092  57.537  1.00  0.00     0.023 C 
HETATM   28  C   UNL     1       5.932  24.909  57.022  1.00  0.00     0.023 C 
ENDBRANCH   9  25
TORSDOF 4
ENDMDL
MODEL 5
REMARK VINA RESULT:      -7.6     11.626     14.256
REMARK  4 active torsions:
REMARK  status: ('A' for Active; 'I' for Inactive)
REMARK    1  A    between atoms: C_5  and  N_6 
REMARK       I    between atoms: N_6  and  C_7 
REMARK    2  A    between atoms: C_7  and  C_8 
REMARK    3  A    between atoms: C_12  and  O_13 
REMARK    4  A    between atoms: C_19  and  C_20 
ROOT
HETATM    1  C   UNL     1       7.403  23.872  52.771  1.00  0.00     0.015 C 
HETATM    2  C   UNL     1       6.760  25.266  52.909  1.00  0.00    -0.040 C 
HETATM    3  C   UNL     1       7.885  26.273  53.211  1.00  0.00     0.015 C 
HETATM    4  C   UNL     1       5.703  25.213  54.036  1.00  0.00     0.039 C 
HETATM    5  C   UNL     1       4.892  26.512  54.212  1.00  0.00     0.122 C 
HETATM    6  C   UNL     1       4.542  27.159  52.904  1.00  0.00     0.007 A 
HETATM    7  C   UNL     1       5.092  26.782  51.692  1.00  0.00     0.047 A 
HETATM    8  N   UNL     1       4.754  27.375  50.525  1.00  0.00    -0.237 NA
HETATM    9  C   UNL     1       3.862  28.384  50.562  1.00  0.00     0.133 A 
HETATM   10  N   UNL     1       3.273  28.813  51.694  1.00  0.00    -0.244 NA
HETATM   11  C   UNL     1       3.630  28.194  52.835  1.00  0.00     0.130 A 
HETATM   12  C   UNL     1       6.054  25.626  51.584  1.00  0.00     0.069 C 
ENDROOT
BRANCH   5  13
HETATM   13  N   UNL     1       5.581  27.453  55.083  1.00  0.00    -0.347 N 
HETATM   14  C   UNL     1       5.547  27.323  56.451  1.00  0.00     0.270 C 
HETATM   15  O   UNL     1       4.859  26.480  57.018  1.00  0.00    -0.266 OA
HETATM   16  H   UNL     1       6.205  28.130  54.668  1.00  0.00     0.163 HD
BRANCH  14  17
HETATM   17  C   UNL     1       6.385  28.234  57.181  1.00  0.00     0.122 A 
HETATM   18  N   UNL     1       6.059  29.566  57.295  1.00  0.00    -0.270 N 
HETATM   19  H   UNL     1       5.244  30.027  56.898  1.00  0.00     0.189 HD
HETATM   20  N   UNL     1       6.935  30.287  58.022  1.00  0.00    -0.149 NA
HETATM   21  C   UNL     1       7.830  29.374  58.362  1.00  0.00     0.183 A 
HETATM   22  C   UNL     1       7.568  28.091  57.884  1.00  0.00     0.096 A 
BRANCH  21  23
HETATM   23  O   UNL     1       8.838  29.810  59.108  1.00  0.00    -0.344 OA
HETATM   24  H   UNL     1       8.417  30.359  59.793  1.00  0.00     0.219 HD
ENDBRANCH  21  23
ENDBRANCH  14  17
ENDBRANCH   5  13
BRANCH   9  25
HETATM   25  C   UNL     1       3.414  28.999  49.239  1.00  0.00     0.011 C 
HETATM   26  C   UNL     1       4.633  29.083  48.305  1.00  0.00     0.023 C 
HETATM   27  C   UNL     1       2.323  28.137  48.575  1.00  0.00     0.023 C 
HETATM   28  C   UNL     1       2.839  30.414  49.448  1.00  0.00     0.023 C 
ENDBRANCH   9  25
TORSDOF 4
ENDMDL
MODEL 6
REMARK VINA RESULT:      -7.5     10.353     13.077
REMARK  4 active torsions:
REMARK  status: ('A' for Active; 'I' for Inactive)
REMARK    1  A    between atoms: C_5  and  N_6 
REMARK       I    between atoms: N_6  and  C_7 
REMARK    2  A    between atoms: C_7  and  C_8 
REMARK    3  A    between atoms: C_12  and  O_13 
REMARK    4  A    between atoms: C_19  and  C_20 
ROOT
HETATM    1  C   UNL     1       6.854  23.523  55.768  1.00  0.00     0.015 C 
HETATM    2  C   UNL     1       6.643  25.003  55.394  1.00  0.00    -0.040 C 
HETATM    3  C   UNL     1       8.014  25.702  55.458  1.00  0.00     0.015 C 
HETATM    4  C   UNL     1       5.624  25.622  56.379  1.00  0.00     0.039 C 
HETATM    5  C   UNL     1       5.225  27.075  56.057  1.00  0.00     0.122 C 
HETATM    6  C   UNL     1       5.069  27.320  54.584  1.00  0.00     0.007 A 
HETATM    7  C   UNL     1       5.476  26.426  53.611  1.00  0.00     0.047 A 
HETATM    8  N   UNL     1       5.316  26.665  52.291  1.00  0.00    -0.237 NA
HETATM    9  C   UNL     1       4.755  27.834  51.922  1.00  0.00     0.133 A 
HETATM   10  N   UNL     1       4.324  28.759  52.799  1.00  0.00    -0.244 NA
HETATM   11  C   UNL     1       4.494  28.482  54.106  1.00  0.00     0.130 A 
HETATM   12  C   UNL     1       6.062  25.082  53.966  1.00  0.00     0.069 C 
ENDROOT
BRANCH   5  13
HETATM   13  N   UNL     1       6.163  28.024  56.638  1.00  0.00    -0.347 N 
HETATM   14  C   UNL     1       5.733  29.091  57.391  1.00  0.00     0.270 C 
HETATM   15  O   UNL     1       4.546  29.365  57.529  1.00  0.00    -0.266 OA
HETATM   16  H   UNL     1       7.151  27.814  56.601  1.00  0.00     0.163 HD
BRANCH  14  17
HETATM   17  C   UNL     1       6.769  29.863  58.021  1.00  0.00     0.122 A 
HETATM   18  N   UNL     1       7.747  29.258  58.776  1.00  0.00    -0.270 N 
HETATM   19  H   UNL     1       7.839  28.264  58.966  1.00  0.00     0.189 HD
HETATM   20  N   UNL     1       8.654  30.114  59.287  1.00  0.00    -0.149 NA
HETATM   21  C   UNL     1       8.221  31.279  58.837  1.00  0.00     0.183 A 
HETATM   22  C   UNL     1       7.068  31.213  58.055  1.00  0.00     0.096 A 
BRANCH  21  23
HETATM   23  O   UNL     1       8.944  32.335  59.190  1.00  0.00    -0.344 OA
HETATM   24  H   UNL     1       9.514  32.013  59.910  1.00  0.00     0.219 HD
ENDBRANCH  21  23
ENDBRANCH  14  17
ENDBRANCH   5  13
BRANCH   9  25
HETATM   25  C   UNL     1       4.494  28.071  50.437  1.00  0.00     0.011 C 
HETATM   26  C   UNL     1       5.562  29.043  49.907  1.00  0.00     0.023 C 
HETATM   27  C   UNL     1       4.571  26.750  49.649  1.00  0.00     0.023 C 
HETATM   28  C   UNL     1       3.097  28.680  50.207  1.00  0.00     0.023 C 
ENDBRANCH   9  25
TORSDOF 4
ENDMDL
MODEL 7
REMARK VINA RESULT:      -7.0     11.432     15.021
REMARK  4 active torsions:
REMARK  status: ('A' for Active; 'I' for Inactive)
REMARK    1  A    between atoms: C_5  and  N_6 
REMARK       I    between atoms: N_6  and  C_7 
REMARK    2  A    between atoms: C_7  and  C_8 
REMARK    3  A    between atoms: C_12  and  O_13 
REMARK    4  A    between atoms: C_19  and  C_20 
ROOT
HETATM    1  C   UNL     1       8.731  29.380  57.970  1.00  0.00     0.015 C 
HETATM    2  C   UNL     1       8.004  28.448  56.982  1.00  0.00    -0.040 C 
HETATM    3  C   UNL     1       8.226  29.004  55.563  1.00  0.00     0.015 C 
HETATM    4  C   UNL     1       6.506  28.396  57.363  1.00  0.00     0.039 C 
HETATM    5  C   UNL     1       5.668  27.408  56.528  1.00  0.00     0.122 C 
HETATM    6  C   UNL     1       6.400  26.129  56.239  1.00  0.00     0.007 A 
HETATM    7  C   UNL     1       7.751  25.951  56.471  1.00  0.00     0.047 A 
HETATM    8  N   UNL     1       8.385  24.786  56.210  1.00  0.00    -0.237 NA
HETATM    9  C   UNL     1       7.665  23.776  55.684  1.00  0.00     0.133 A 
HETATM   10  N   UNL     1       6.346  23.859  55.432  1.00  0.00    -0.244 NA
HETATM   11  C   UNL     1       5.747  25.032  55.711  1.00  0.00     0.130 A 
HETATM   12  C   UNL     1       8.595  27.027  57.105  1.00  0.00     0.069 C 
ENDROOT
BRANCH   5  13
HETATM   13  N   UNL     1       5.198  28.021  55.295  1.00  0.00    -0.347 N 
HETATM   14  C   UNL     1       4.156  28.917  55.290  1.00  0.00     0.270 C 
HETATM   15  O   UNL     1       3.500  29.173  56.294  1.00  0.00    -0.266 OA
HETATM   16  H   UNL     1       5.737  27.888  54.451  1.00  0.00     0.163 HD
BRANCH  14  17
HETATM   17  C   UNL     1       3.890  29.552  54.028  1.00  0.00     0.122 A 
HETATM   18  N   UNL     1       3.384  28.838  52.966  1.00  0.00    -0.270 N 
HETATM   19  H   UNL     1       3.160  27.847  52.952  1.00  0.00     0.189 HD
HETATM   20  N   UNL     1       3.175  29.577  51.858  1.00  0.00    -0.149 NA
HETATM   21  C   UNL     1       3.567  30.778  52.247  1.00  0.00     0.183 A 
HETATM   22  C   UNL     1       4.022  30.848  53.563  1.00  0.00     0.096 A 
BRANCH  21  23
HETATM   23  O   UNL     1       3.465  31.737  51.335  1.00  0.00    -0.344 OA
HETATM   24  H   UNL     1       2.556  31.659  50.996  1.00  0.00     0.219 HD
ENDBRANCH  21  23
ENDBRANCH  14  17
ENDBRANCH   5  13
BRANCH   9  25
HETATM   25  C   UNL     1       8.358  22.432  55.468  1.00  0.00     0.011 C 
HETATM   26  C   UNL     1       7.626  21.685  54.341  1.00  0.00     0.023 C 
HETATM   27  C   UNL     1       9.833  22.634  55.072  1.00  0.00     0.023 C 
HETATM   28  C   UNL     1       8.323  21.575  56.749  1.00  0.00     0.023 C 
ENDBRANCH   9  25
TORSDOF 4
ENDMDL
MODEL 8
REMARK VINA RESULT:      -7.0     11.013     13.279
REMARK  4 active torsions:
REMARK  status: ('A' for Active; 'I' for Inactive)
REMARK    1  A    between atoms: C_5  and  N_6 
REMARK       I    between atoms: N_6  and  C_7 
REMARK    2  A    between atoms: C_7  and  C_8 
REMARK    3  A    between atoms: C_12  and  O_13 
REMARK    4  A    between atoms: C_19  and  C_20 
ROOT
HETATM    1  C   UNL     1       6.178  24.368  53.425  1.00  0.00     0.015 C 
HETATM    2  C   UNL     1       6.232  25.907  53.491  1.00  0.00    -0.040 C 
HETATM    3  C   UNL     1       7.676  26.339  53.177  1.00  0.00     0.015 C 
HETATM    4  C   UNL     1       5.780  26.357  54.899  1.00  0.00     0.039 C 
HETATM    5  C   UNL     1       5.672  27.885  55.078  1.00  0.00     0.122 C 
HETATM    6  C   UNL     1       5.108  28.570  53.868  1.00  0.00     0.007 A 
HETATM    7  C   UNL     1       4.939  27.949  52.644  1.00  0.00     0.047 A 
HETATM    8  N   UNL     1       4.420  28.587  51.571  1.00  0.00    -0.237 NA
HETATM    9  C   UNL     1       4.078  29.883  51.708  1.00  0.00     0.133 A 
HETATM   10  N   UNL     1       4.202  30.565  52.862  1.00  0.00    -0.244 NA
HETATM   11  C   UNL     1       4.717  29.895  53.911  1.00  0.00     0.130 A 
HETATM   12  C   UNL     1       5.254  26.489  52.447  1.00  0.00     0.069 C 
ENDROOT
BRANCH   5  13
HETATM   13  N   UNL     1       6.954  28.466  55.448  1.00  0.00    -0.347 N 
HETATM   14  C   UNL     1       7.176  28.974  56.706  1.00  0.00     0.270 C 
HETATM   15  O   UNL     1       6.290  29.061  57.549  1.00  0.00    -0.266 OA
HETATM   16  H   UNL     1       7.732  28.370  54.812  1.00  0.00     0.163 HD
BRANCH  14  17
HETATM   17  C   UNL     1       8.526  29.386  56.978  1.00  0.00     0.122 A 
HETATM   18  N   UNL     1       8.809  30.265  57.998  1.00  0.00    -0.270 N 
HETATM   19  H   UNL     1       8.140  30.698  58.629  1.00  0.00     0.189 HD
HETATM   20  N   UNL     1      10.121  30.541  58.137  1.00  0.00    -0.149 NA
HETATM   21  C   UNL     1      10.661  29.815  57.173  1.00  0.00     0.183 A 
HETATM   22  C   UNL     1       9.751  29.079  56.414  1.00  0.00     0.096 A 
BRANCH  21  23
HETATM   23  O   UNL     1      11.982  29.889  57.071  1.00  0.00    -0.344 OA
HETATM   24  H   UNL     1      12.228  30.656  57.617  1.00  0.00     0.219 HD
ENDBRANCH  21  23
ENDBRANCH  14  17
ENDBRANCH   5  13
BRANCH   9  25
HETATM   25  C   UNL     1       3.413  30.583  50.525  1.00  0.00     0.011 C 
HETATM   26  C   UNL     1       3.194  29.547  49.410  1.00  0.00     0.023 C 
HETATM   27  C   UNL     1       2.056  31.185  50.936  1.00  0.00     0.023 C 
HETATM   28  C   UNL     1       4.296  31.726  49.987  1.00  0.00     0.023 C 
ENDBRANCH   9  25
TORSDOF 4
ENDMDL
MODEL 9
REMARK VINA RESULT:      -6.8      7.933     11.181
REMARK  4 active torsions:
REMARK  status: ('A' for Active; 'I' for Inactive)
REMARK    1  A    between atoms: C_5  and  N_6 
REMARK       I    between atoms: N_6  and  C_7 
REMARK    2  A    between atoms: C_7  and  C_8 
REMARK    3  A    between atoms: C_12  and  O_13 
REMARK    4  A    between atoms: C_19  and  C_20 
ROOT
HETATM    1  C   UNL     1       2.941  32.247  54.025  1.00  0.00     0.015 C 
HETATM    2  C   UNL     1       3.636  31.328  55.048  1.00  0.00    -0.040 C 
HETATM    3  C   UNL     1       2.628  31.033  56.174  1.00  0.00     0.015 C 
HETATM    4  C   UNL     1       4.905  32.041  55.570  1.00  0.00     0.039 C 
HETATM    5  C   UNL     1       5.770  31.190  56.521  1.00  0.00     0.122 C 
HETATM    6  C   UNL     1       5.854  29.752  56.097  1.00  0.00     0.007 A 
HETATM    7  C   UNL     1       5.052  29.194  55.118  1.00  0.00     0.047 A 
HETATM    8  N   UNL     1       5.153  27.898  54.748  1.00  0.00    -0.237 NA
HETATM    9  C   UNL     1       6.060  27.127  55.379  1.00  0.00     0.133 A 
HETATM   10  N   UNL     1       6.885  27.587  56.338  1.00  0.00    -0.244 NA
HETATM   11  C   UNL     1       6.759  28.885  56.676  1.00  0.00     0.130 A 
HETATM   12  C   UNL     1       4.057  30.021  54.343  1.00  0.00     0.069 C 
ENDROOT
BRANCH   5  13
HETATM   13  N   UNL     1       5.306  31.294  57.896  1.00  0.00    -0.347 N 
HETATM   14  C   UNL     1       6.069  31.895  58.869  1.00  0.00     0.270 C 
HETATM   15  O   UNL     1       7.214  32.282  58.664  1.00  0.00    -0.266 OA
HETATM   16  H   UNL     1       4.350  31.042  58.106  1.00  0.00     0.163 HD
BRANCH  14  17
HETATM   17  C   UNL     1       5.430  32.055  60.146  1.00  0.00     0.122 A 
HETATM   18  N   UNL     1       4.099  31.756  60.319  1.00  0.00    -0.270 N 
HETATM   19  H   UNL     1       3.456  31.416  59.608  1.00  0.00     0.189 HD
HETATM   20  N   UNL     1       3.651  31.944  61.576  1.00  0.00    -0.149 NA
HETATM   21  C   UNL     1       4.738  32.375  62.196  1.00  0.00     0.183 A 
HETATM   22  C   UNL     1       5.871  32.475  61.389  1.00  0.00     0.096 A 
BRANCH  21  23
HETATM   23  O   UNL     1       4.592  32.644  63.487  1.00  0.00    -0.344 OA
HETATM   24  H   UNL     1       4.188  33.529  63.510  1.00  0.00     0.219 HD
ENDBRANCH  21  23
ENDBRANCH  14  17
ENDBRANCH   5  13
BRANCH   9  25
HETATM   25  C   UNL     1       6.236  25.687  54.906  1.00  0.00     0.011 C 
HETATM   26  C   UNL     1       6.136  24.759  56.128  1.00  0.00     0.023 C 
HETATM   27  C   UNL     1       5.144  25.307  53.887  1.00  0.00     0.023 C 
HETATM   28  C   UNL     1       7.606  25.487  54.229  1.00  0.00     0.023 C 
ENDBRANCH   9  25
TORSDOF 4
ENDMDL
MODEL 10
REMARK VINA RESULT:      -6.7     16.145     17.487
REMARK  4 active torsions:
REMARK  status: ('A' for Active; 'I' for Inactive)
REMARK    1  A    between atoms: C_5  and  N_6 
REMARK       I    between atoms: N_6  and  C_7 
REMARK    2  A    between atoms: C_7  and  C_8 
REMARK    3  A    between atoms: C_12  and  O_13 
REMARK    4  A    between atoms: C_19  and  C_20 
ROOT
HETATM    1  C   UNL     1       0.860  27.427  46.834  1.00  0.00     0.015 C 
HETATM    2  C   UNL     1       2.117  27.964  47.546  1.00  0.00    -0.040 C 
HETATM    3  C   UNL     1       3.260  26.962  47.298  1.00  0.00     0.015 C 
HETATM    4  C   UNL     1       1.800  28.129  49.051  1.00  0.00     0.039 C 
HETATM    5  C   UNL     1       2.933  28.770  49.876  1.00  0.00     0.122 C 
HETATM    6  C   UNL     1       3.627  29.881  49.142  1.00  0.00     0.007 A 
HETATM    7  C   UNL     1       3.448  30.138  47.796  1.00  0.00     0.047 A 
HETATM    8  N   UNL     1       4.077  31.151  47.160  1.00  0.00    -0.237 NA
HETATM    9  C   UNL     1       4.925  31.918  47.874  1.00  0.00     0.133 A 
HETATM   10  N   UNL     1       5.156  31.743  49.188  1.00  0.00    -0.244 NA
HETATM   11  C   UNL     1       4.505  30.729  49.788  1.00  0.00     0.130 A 
HETATM   12  C   UNL     1       2.473  29.347  46.961  1.00  0.00     0.069 C 
ENDROOT
BRANCH   5  13
HETATM   13  N   UNL     1       3.893  27.771  50.323  1.00  0.00    -0.347 N 
HETATM   14  C   UNL     1       4.239  27.649  51.648  1.00  0.00     0.270 C 
HETATM   15  O   UNL     1       3.845  28.430  52.507  1.00  0.00    -0.266 OA
HETATM   16  H   UNL     1       4.204  27.069  49.666  1.00  0.00     0.163 HD
BRANCH  14  17
HETATM   17  C   UNL     1       5.086  26.533  51.967  1.00  0.00     0.122 A 
HETATM   18  N   UNL     1       6.256  26.308  51.280  1.00  0.00    -0.270 N 
HETATM   19  H   UNL     1       6.628  26.867  50.516  1.00  0.00     0.189 HD
HETATM   20  N   UNL     1       6.946  25.232  51.707  1.00  0.00    -0.149 NA
HETATM   21  C   UNL     1       6.177  24.778  52.681  1.00  0.00     0.183 A 
HETATM   22  C   UNL     1       5.015  25.516  52.903  1.00  0.00     0.096 A 
BRANCH  21  23
HETATM   23  O   UNL     1       6.622  23.694  53.305  1.00  0.00    -0.344 OA
HETATM   24  H   UNL     1       7.452  23.977  53.727  1.00  0.00     0.219 HD
ENDBRANCH  21  23
ENDBRANCH  14  17
ENDBRANCH   5  13
BRANCH   9  25
HETATM   25  C   UNL     1       5.573  33.114  47.180  1.00  0.00     0.011 C 
HETATM   26  C   UNL     1       5.808  32.751  45.705  1.00  0.00     0.023 C 
HETATM   27  C   UNL     1       4.661  34.354  47.261  1.00  0.00     0.023 C 
HETATM   28  C   UNL     1       6.922  33.473  47.834  1.00  0.00     0.023 C 
ENDBRANCH   9  25
TORSDOF 4
ENDMDL
