MODEL 1
REMARK VINA RESULT:      -8.9      0.000      0.000
REMARK  8 active torsions:
REMARK  status: ('A' for Active; 'I' for Inactive)
REMARK    1  A    between atoms: O_2  and  C_3 
REMARK    2  A    between atoms: C_5  and  O_6 
REMARK    3  A    between atoms: C_8  and  N_9 
REMARK       I    between atoms: N_9  and  C_10 
REMARK    4  A    between atoms: C_10  and  C_11 
REMARK    5  A    between atoms: C_11  and  N_12 
REMARK    6  A    between atoms: N_12  and  C_13 
REMARK    7  A    between atoms: C_14  and  N_15 
REMARK    8  A    between atoms: C_23  and  C_24 
ROOT
HETATM    1  N   UNL     1       7.810  25.663  52.970  1.00  0.00    -0.282 NA
HETATM    2  H   UNL     1       7.376  26.569  53.188  1.00  0.00     0.128 HD
ENDROOT
BRANCH   1   3
HETATM    3  C   UNL     1       7.235  25.083  51.752  1.00  0.00     0.195 C 
BRANCH   3   4
HETATM    4  C   UNL     1       5.832  25.641  51.486  1.00  0.00     0.235 C 
HETATM    5  N   UNL     1       5.736  26.306  50.277  1.00  0.00    -0.324 N 
HETATM    6  H   UNL     1       6.603  26.549  49.805  1.00  0.00     0.169 HD
HETATM    7  O   UNL     1       4.921  25.469  52.293  1.00  0.00    -0.272 OA
BRANCH   5   8
HETATM    8  C   UNL     1       4.565  26.716  49.602  1.00  0.00     0.068 A 
HETATM    9  C   UNL     1       4.143  28.049  49.778  1.00  0.00     0.097 A 
HETATM   10  C   UNL     1       3.028  28.523  49.075  1.00  0.00     0.075 A 
HETATM   11  C   UNL     1       2.330  27.689  48.196  1.00  0.00     0.070 A 
HETATM   12  C   UNL     1       2.734  26.365  48.042  1.00  0.00     0.039 A 
HETATM   13  C   UNL     1       3.847  25.883  48.740  1.00  0.00     0.035 A 
BRANCH   9  14
HETATM   14  O   UNL     1       4.903  28.806  50.641  1.00  0.00    -0.354 OA
HETATM   15  C   UNL     1       5.667  29.861  50.067  1.00  0.00     0.210 C 
ENDBRANCH   9  14
BRANCH  11  16
HETATM   16  O   UNL     1       1.277  28.283  47.555  1.00  0.00    -0.356 OA
HETATM   17  C   UNL     1       0.492  27.450  46.710  1.00  0.00     0.210 C 
ENDBRANCH  11  16
ENDBRANCH   5   8
ENDBRANCH   3   4
ENDBRANCH   1   3
BRANCH   1  18
HETATM   18  C   UNL     1       7.668  24.890  54.158  1.00  0.00     0.036 A 
HETATM   19  C   UNL     1       7.276  25.545  55.365  1.00  0.00     0.051 A 
HETATM   20  C   UNL     1       7.088  24.752  56.507  1.00  0.00     0.032 A 
HETATM   21  C   UNL     1       7.331  23.375  56.496  1.00  0.00     0.018 A 
HETATM   22  C   UNL     1       7.788  22.747  55.336  1.00  0.00     0.049 A 
HETATM   23  C   UNL     1       7.967  23.517  54.178  1.00  0.00     0.042 A 
BRANCH  19  24
HETATM   24  N   UNL     1       7.042  26.931  55.369  1.00  0.00    -0.379 N 
HETATM   25  C   UNL     1       5.681  27.454  55.182  1.00  0.00     0.123 C 
HETATM   26  C   UNL     1       4.989  27.776  56.509  1.00  0.00     0.020 C 
HETATM   27  C   UNL     1       5.864  28.651  57.399  1.00  0.00     0.003 C 
HETATM   28  C   UNL     1       7.233  28.008  57.594  1.00  0.00     0.020 C 
HETATM   29  C   UNL     1       7.910  27.731  56.253  1.00  0.00     0.123 C 
ENDBRANCH  19  24
BRANCH  22  30
HETATM   30  C   UNL     1       8.048  21.263  55.300  1.00  0.00     0.417 C 
HETATM   31  F   UNL     1       7.236  20.546  56.127  1.00  0.00    -0.166 F 
HETATM   32  F   UNL     1       7.869  20.738  54.055  1.00  0.00    -0.166 F 
HETATM   33  F   UNL     1       9.321  20.941  55.659  1.00  0.00    -0.166 F 
ENDBRANCH  22  30
ENDBRANCH   1  18
TORSDOF 8
ENDMDL
MODEL 2
REMARK VINA RESULT:      -8.9      1.773      2.693
REMARK  8 active torsions:
REMARK  status: ('A' for Active; 'I' for Inactive)
REMARK    1  A    between atoms: O_2  and  C_3 
REMARK    2  A    between atoms: C_5  and  O_6 
REMARK    3  A    between atoms: C_8  and  N_9 
REMARK       I    between atoms: N_9  and  C_10 
REMARK    4  A    between atoms: C_10  and  C_11 
REMARK    5  A    between atoms: C_11  and  N_12 
REMARK    6  A    between atoms: N_12  and  C_13 
REMARK    7  A    between atoms: C_14  and  N_15 
REMARK    8  A    between atoms: C_23  and  C_24 
ROOT
HETATM    1  N   UNL     1       5.382  25.583  54.460  1.00  0.00    -0.282 NA
HETATM    2  H   UNL     1       4.577  25.603  55.099  1.00  0.00     0.128 HD
ENDROOT
BRANCH   1   3
HETATM    3  C   UNL     1       5.081  24.798  53.258  1.00  0.00     0.195 C 
BRANCH   3   4
HETATM    4  C   UNL     1       5.614  25.492  51.999  1.00  0.00     0.235 C 
HETATM    5  N   UNL     1       4.618  26.096  51.254  1.00  0.00    -0.324 N 
HETATM    6  H   UNL     1       3.655  25.850  51.470  1.00  0.00     0.169 HD
HETATM    7  O   UNL     1       6.815  25.493  51.739  1.00  0.00    -0.272 OA
BRANCH   5   8
HETATM    8  C   UNL     1       4.764  27.021  50.196  1.00  0.00     0.068 A 
HETATM    9  C   UNL     1       4.220  26.671  48.943  1.00  0.00     0.097 A 
HETATM   10  C   UNL     1       4.278  27.584  47.883  1.00  0.00     0.075 A 
HETATM   11  C   UNL     1       4.866  28.841  48.052  1.00  0.00     0.070 A 
HETATM   12  C   UNL     1       5.424  29.175  49.284  1.00  0.00     0.039 A 
HETATM   13  C   UNL     1       5.371  28.270  50.349  1.00  0.00     0.035 A 
BRANCH   9  14
HETATM   14  O   UNL     1       3.638  25.426  48.874  1.00  0.00    -0.354 OA
HETATM   15  C   UNL     1       3.020  25.074  47.641  1.00  0.00     0.210 C 
ENDBRANCH   9  14
BRANCH  11  16
HETATM   16  O   UNL     1       4.833  29.645  46.945  1.00  0.00    -0.356 OA
HETATM   17  C   UNL     1       4.621  31.033  47.171  1.00  0.00     0.210 C 
ENDBRANCH  11  16
ENDBRANCH   5   8
ENDBRANCH   3   4
ENDBRANCH   1   3
BRANCH   1  18
HETATM   18  C   UNL     1       6.471  25.119  55.253  1.00  0.00     0.036 A 
HETATM   19  C   UNL     1       7.184  26.055  56.063  1.00  0.00     0.051 A 
HETATM   20  C   UNL     1       8.215  25.562  56.877  1.00  0.00     0.032 A 
HETATM   21  C   UNL     1       8.585  24.213  56.862  1.00  0.00     0.018 A 
HETATM   22  C   UNL     1       7.939  23.312  56.014  1.00  0.00     0.049 A 
HETATM   23  C   UNL     1       6.894  23.779  55.203  1.00  0.00     0.042 A 
BRANCH  19  24
HETATM   24  N   UNL     1       6.812  27.410  56.065  1.00  0.00    -0.379 N 
HETATM   25  C   UNL     1       6.388  28.060  57.313  1.00  0.00     0.123 C 
HETATM   26  C   UNL     1       7.528  28.826  57.991  1.00  0.00     0.020 C 
HETATM   27  C   UNL     1       8.228  29.766  57.017  1.00  0.00     0.003 C 
HETATM   28  C   UNL     1       8.691  29.002  55.781  1.00  0.00     0.020 C 
HETATM   29  C   UNL     1       7.525  28.278  55.110  1.00  0.00     0.123 C 
ENDBRANCH  19  24
BRANCH  22  30
HETATM   30  C   UNL     1       8.314  21.853  55.989  1.00  0.00     0.417 C 
HETATM   31  F   UNL     1       9.514  21.608  55.393  1.00  0.00    -0.166 F 
HETATM   32  F   UNL     1       8.405  21.321  57.241  1.00  0.00    -0.166 F 
HETATM   33  F   UNL     1       7.406  21.086  55.325  1.00  0.00    -0.166 F 
ENDBRANCH  22  30
ENDBRANCH   1  18
TORSDOF 8
ENDMDL
MODEL 3
REMARK VINA RESULT:      -8.9      1.677      2.364
REMARK  8 active torsions:
REMARK  status: ('A' for Active; 'I' for Inactive)
REMARK    1  A    between atoms: O_2  and  C_3 
REMARK    2  A    between atoms: C_5  and  O_6 
REMARK    3  A    between atoms: C_8  and  N_9 
REMARK       I    between atoms: N_9  and  C_10 
REMARK    4  A    between atoms: C_10  and  C_11 
REMARK    5  A    between atoms: C_11  and  N_12 
REMARK    6  A    between atoms: N_12  and  C_13 
REMARK    7  A    between atoms: C_14  and  N_15 
REMARK    8  A    between atoms: C_23  and  C_24 
ROOT
HETATM    1  N   UNL     1       6.860  25.461  52.093  1.00  0.00    -0.282 NA
HETATM    2  H   UNL     1       7.101  26.393  52.454  1.00  0.00     0.128 HD
ENDROOT
BRANCH   1   3
HETATM    3  C   UNL     1       5.502  25.447  51.538  1.00  0.00     0.195 C 
BRANCH   3   4
HETATM    4  C   UNL     1       5.150  26.802  50.913  1.00  0.00     0.235 C 
HETATM    5  N   UNL     1       5.111  26.765  49.531  1.00  0.00    -0.324 N 
HETATM    6  H   UNL     1       5.517  25.953  49.072  1.00  0.00     0.169 HD
HETATM    7  O   UNL     1       4.919  27.782  51.619  1.00  0.00    -0.272 OA
BRANCH   5   8
HETATM    8  C   UNL     1       4.584  27.736  48.650  1.00  0.00     0.068 A 
HETATM    9  C   UNL     1       3.357  27.447  48.019  1.00  0.00     0.097 A 
HETATM   10  C   UNL     1       2.761  28.406  47.191  1.00  0.00     0.075 A 
HETATM   11  C   UNL     1       3.365  29.650  46.987  1.00  0.00     0.070 A 
HETATM   12  C   UNL     1       4.589  29.924  47.592  1.00  0.00     0.039 A 
HETATM   13  C   UNL     1       5.193  28.972  48.420  1.00  0.00     0.035 A 
BRANCH   9  14
HETATM   14  O   UNL     1       2.822  26.210  48.297  1.00  0.00    -0.354 OA
HETATM   15  C   UNL     1       2.886  25.235  47.262  1.00  0.00     0.210 C 
ENDBRANCH   9  14
BRANCH  11  16
HETATM   16  O   UNL     1       2.664  30.502  46.177  1.00  0.00    -0.356 OA
HETATM   17  C   UNL     1       3.430  31.388  45.368  1.00  0.00     0.210 C 
ENDBRANCH  11  16
ENDBRANCH   5   8
ENDBRANCH   3   4
ENDBRANCH   1   3
BRANCH   1  18
HETATM   18  C   UNL     1       7.100  24.571  53.179  1.00  0.00     0.036 A 
HETATM   19  C   UNL     1       6.984  25.064  54.515  1.00  0.00     0.051 A 
HETATM   20  C   UNL     1       7.170  24.152  55.566  1.00  0.00     0.032 A 
HETATM   21  C   UNL     1       7.519  22.819  55.331  1.00  0.00     0.018 A 
HETATM   22  C   UNL     1       7.708  22.355  54.028  1.00  0.00     0.049 A 
HETATM   23  C   UNL     1       7.510  23.245  52.961  1.00  0.00     0.042 A 
BRANCH  19  24
HETATM   24  N   UNL     1       6.642  26.408  54.741  1.00  0.00    -0.379 N 
HETATM   25  C   UNL     1       5.276  26.766  55.150  1.00  0.00     0.123 C 
HETATM   26  C   UNL     1       5.143  26.934  56.666  1.00  0.00     0.020 C 
HETATM   27  C   UNL     1       6.214  27.865  57.223  1.00  0.00     0.003 C 
HETATM   28  C   UNL     1       7.601  27.388  56.807  1.00  0.00     0.020 C 
HETATM   29  C   UNL     1       7.711  27.264  55.288  1.00  0.00     0.123 C 
ENDBRANCH  19  24
BRANCH  22  30
HETATM   30  C   UNL     1       8.074  20.920  53.752  1.00  0.00     0.417 C 
HETATM   31  F   UNL     1       8.046  20.127  54.859  1.00  0.00    -0.166 F 
HETATM   32  F   UNL     1       7.232  20.335  52.853  1.00  0.00    -0.166 F 
HETATM   33  F   UNL     1       9.325  20.786  53.231  1.00  0.00    -0.166 F 
ENDBRANCH  22  30
ENDBRANCH   1  18
TORSDOF 8
ENDMDL
MODEL 4
REMARK VINA RESULT:      -8.7      3.532      6.998
REMARK  8 active torsions:
REMARK  status: ('A' for Active; 'I' for Inactive)
REMARK    1  A    between atoms: O_2  and  C_3 
REMARK    2  A    between atoms: C_5  and  O_6 
REMARK    3  A    between atoms: C_8  and  N_9 
REMARK       I    between atoms: N_9  and  C_10 
REMARK    4  A    between atoms: C_10  and  C_11 
REMARK    5  A    between atoms: C_11  and  N_12 
REMARK    6  A    between atoms: N_12  and  C_13 
REMARK    7  A    between atoms: C_14  and  N_15 
REMARK    8  A    between atoms: C_23  and  C_24 
ROOT
HETATM    1  N   UNL     1       7.139  25.130  56.769  1.00  0.00    -0.282 NA
HETATM    2  H   UNL     1       6.320  25.565  56.324  1.00  0.00     0.128 HD
ENDROOT
BRANCH   1   3
HETATM    3  C   UNL     1       8.222  26.103  56.943  1.00  0.00     0.195 C 
BRANCH   3   4
HETATM    4  C   UNL     1       7.748  27.521  56.606  1.00  0.00     0.235 C 
HETATM    5  N   UNL     1       6.838  28.018  57.522  1.00  0.00    -0.324 N 
HETATM    6  H   UNL     1       6.418  27.357  58.170  1.00  0.00     0.169 HD
HETATM    7  O   UNL     1       8.179  28.113  55.618  1.00  0.00    -0.272 OA
BRANCH   5   8
HETATM    8  C   UNL     1       6.394  29.350  57.670  1.00  0.00     0.068 A 
HETATM    9  C   UNL     1       7.207  30.231  58.411  1.00  0.00     0.097 A 
HETATM   10  C   UNL     1       6.844  31.579  58.527  1.00  0.00     0.075 A 
HETATM   11  C   UNL     1       5.686  32.063  57.913  1.00  0.00     0.070 A 
HETATM   12  C   UNL     1       4.871  31.186  57.202  1.00  0.00     0.039 A 
HETATM   13  C   UNL     1       5.225  29.838  57.080  1.00  0.00     0.035 A 
BRANCH   9  14
HETATM   14  O   UNL     1       8.342  29.676  58.959  1.00  0.00    -0.354 OA
HETATM   15  C   UNL     1       9.557  30.397  58.788  1.00  0.00     0.210 C 
ENDBRANCH   9  14
BRANCH  11  16
HETATM   16  O   UNL     1       5.461  33.402  58.083  1.00  0.00    -0.356 OA
HETATM   17  C   UNL     1       4.540  33.770  59.103  1.00  0.00     0.210 C 
ENDBRANCH  11  16
ENDBRANCH   5   8
ENDBRANCH   3   4
ENDBRANCH   1   3
BRANCH   1  18
HETATM   18  C   UNL     1       7.439  23.996  55.961  1.00  0.00     0.036 A 
HETATM   19  C   UNL     1       7.176  24.058  54.558  1.00  0.00     0.051 A 
HETATM   20  C   UNL     1       7.534  22.949  53.777  1.00  0.00     0.032 A 
HETATM   21  C   UNL     1       8.075  21.791  54.345  1.00  0.00     0.018 A 
HETATM   22  C   UNL     1       8.261  21.701  55.726  1.00  0.00     0.049 A 
HETATM   23  C   UNL     1       7.926  22.804  56.525  1.00  0.00     0.042 A 
BRANCH  19  24
HETATM   24  N   UNL     1       6.625  25.222  53.997  1.00  0.00    -0.379 N 
HETATM   25  C   UNL     1       7.333  25.936  52.925  1.00  0.00     0.123 C 
HETATM   26  C   UNL     1       6.827  25.552  51.532  1.00  0.00     0.020 C 
HETATM   27  C   UNL     1       5.309  25.657  51.438  1.00  0.00     0.003 C 
HETATM   28  C   UNL     1       4.652  24.840  52.546  1.00  0.00     0.020 C 
HETATM   29  C   UNL     1       5.153  25.270  53.923  1.00  0.00     0.123 C 
ENDBRANCH  19  24
BRANCH  22  30
HETATM   30  C   UNL     1       8.850  20.467  56.357  1.00  0.00     0.417 C 
HETATM   31  F   UNL     1      10.157  20.259  56.035  1.00  0.00    -0.166 F 
HETATM   32  F   UNL     1       8.805  20.511  57.719  1.00  0.00    -0.166 F 
HETATM   33  F   UNL     1       8.194  19.327  56.002  1.00  0.00    -0.166 F 
ENDBRANCH  22  30
ENDBRANCH   1  18
TORSDOF 8
ENDMDL
MODEL 5
REMARK VINA RESULT:      -8.5      3.074      7.769
REMARK  8 active torsions:
REMARK  status: ('A' for Active; 'I' for Inactive)
REMARK    1  A    between atoms: O_2  and  C_3 
REMARK    2  A    between atoms: C_5  and  O_6 
REMARK    3  A    between atoms: C_8  and  N_9 
REMARK       I    between atoms: N_9  and  C_10 
REMARK    4  A    between atoms: C_10  and  C_11 
REMARK    5  A    between atoms: C_11  and  N_12 
REMARK    6  A    between atoms: N_12  and  C_13 
REMARK    7  A    between atoms: C_14  and  N_15 
REMARK    8  A    between atoms: C_23  and  C_24 
ROOT
HETATM    1  N   UNL     1       3.713  27.327  53.373  1.00  0.00    -0.282 NA
HETATM    2  H   UNL     1       3.059  27.389  52.581  1.00  0.00     0.128 HD
ENDROOT
BRANCH   1   3
HETATM    3  C   UNL     1       4.076  28.662  53.860  1.00  0.00     0.195 C 
BRANCH   3   4
HETATM    4  C   UNL     1       4.686  28.588  55.265  1.00  0.00     0.235 C 
HETATM    5  N   UNL     1       5.830  29.354  55.397  1.00  0.00    -0.324 N 
HETATM    6  H   UNL     1       6.266  29.696  54.544  1.00  0.00     0.169 HD
HETATM    7  O   UNL     1       4.160  27.913  56.147  1.00  0.00    -0.272 OA
BRANCH   5   8
HETATM    8  C   UNL     1       6.498  29.721  56.586  1.00  0.00     0.068 A 
HETATM    9  C   UNL     1       7.627  28.964  56.961  1.00  0.00     0.097 A 
HETATM   10  C   UNL     1       8.363  29.331  58.094  1.00  0.00     0.075 A 
HETATM   11  C   UNL     1       7.995  30.444  58.857  1.00  0.00     0.070 A 
HETATM   12  C   UNL     1       6.865  31.175  58.499  1.00  0.00     0.039 A 
HETATM   13  C   UNL     1       6.123  30.816  57.368  1.00  0.00     0.035 A 
BRANCH   9  14
HETATM   14  O   UNL     1       7.932  27.903  56.139  1.00  0.00    -0.354 OA
HETATM   15  C   UNL     1       7.774  26.599  56.688  1.00  0.00     0.210 C 
ENDBRANCH   9  14
BRANCH  11  16
HETATM   16  O   UNL     1       8.814  30.707  59.921  1.00  0.00    -0.356 OA
HETATM   17  C   UNL     1       9.277  32.046  60.054  1.00  0.00     0.210 C 
ENDBRANCH  11  16
ENDBRANCH   5   8
ENDBRANCH   3   4
ENDBRANCH   1   3
BRANCH   1  18
HETATM   18  C   UNL     1       4.787  26.519  52.903  1.00  0.00     0.036 A 
HETATM   19  C   UNL     1       5.201  26.643  51.542  1.00  0.00     0.051 A 
HETATM   20  C   UNL     1       6.299  25.877  51.120  1.00  0.00     0.032 A 
HETATM   21  C   UNL     1       6.937  24.972  51.974  1.00  0.00     0.018 A 
HETATM   22  C   UNL     1       6.484  24.794  53.282  1.00  0.00     0.049 A 
HETATM   23  C   UNL     1       5.399  25.561  53.730  1.00  0.00     0.042 A 
BRANCH  19  24
HETATM   24  N   UNL     1       4.549  27.549  50.688  1.00  0.00    -0.379 N 
HETATM   25  C   UNL     1       5.103  28.893  50.470  1.00  0.00     0.123 C 
HETATM   26  C   UNL     1       5.947  28.979  49.196  1.00  0.00     0.020 C 
HETATM   27  C   UNL     1       5.201  28.421  47.990  1.00  0.00     0.003 C 
HETATM   28  C   UNL     1       4.715  27.004  48.275  1.00  0.00     0.020 C 
HETATM   29  C   UNL     1       3.848  26.959  49.532  1.00  0.00     0.123 C 
ENDBRANCH  19  24
BRANCH  22  30
HETATM   30  C   UNL     1       7.162  23.831  54.222  1.00  0.00     0.417 C 
HETATM   31  F   UNL     1       7.207  22.552  53.755  1.00  0.00    -0.166 F 
HETATM   32  F   UNL     1       8.455  24.181  54.475  1.00  0.00    -0.166 F 
HETATM   33  F   UNL     1       6.552  23.762  55.437  1.00  0.00    -0.166 F 
ENDBRANCH  22  30
ENDBRANCH   1  18
TORSDOF 8
ENDMDL
MODEL 6
REMARK VINA RESULT:      -8.3      7.818     10.854
REMARK  8 active torsions:
REMARK  status: ('A' for Active; 'I' for Inactive)
REMARK    1  A    between atoms: O_2  and  C_3 
REMARK    2  A    between atoms: C_5  and  O_6 
REMARK    3  A    between atoms: C_8  and  N_9 
REMARK       I    between atoms: N_9  and  C_10 
REMARK    4  A    between atoms: C_10  and  C_11 
REMARK    5  A    between atoms: C_11  and  N_12 
REMARK    6  A    between atoms: N_12  and  C_13 
REMARK    7  A    between atoms: C_14  and  N_15 
REMARK    8  A    between atoms: C_23  and  C_24 
ROOT
HETATM    1  N   UNL     1       4.012  32.281  62.369  1.00  0.00    -0.282 NA
HETATM    2  H   UNL     1       3.867  31.263  62.326  1.00  0.00     0.128 HD
ENDROOT
BRANCH   1   3
HETATM    3  C   UNL     1       3.674  32.914  61.090  1.00  0.00     0.195 C 
BRANCH   3   4
HETATM    4  C   UNL     1       3.606  31.877  59.963  1.00  0.00     0.235 C 
HETATM    5  N   UNL     1       4.545  32.096  58.971  1.00  0.00    -0.324 N 
HETATM    6  H   UNL     1       5.017  32.997  58.963  1.00  0.00     0.169 HD
HETATM    7  O   UNL     1       2.789  30.959  59.998  1.00  0.00    -0.272 OA
BRANCH   5   8
HETATM    8  C   UNL     1       4.935  31.218  57.935  1.00  0.00     0.068 A 
HETATM    9  C   UNL     1       4.139  31.187  56.773  1.00  0.00     0.097 A 
HETATM   10  C   UNL     1       4.523  30.385  55.690  1.00  0.00     0.075 A 
HETATM   11  C   UNL     1       5.690  29.619  55.747  1.00  0.00     0.070 A 
HETATM   12  C   UNL     1       6.463  29.633  56.906  1.00  0.00     0.039 A 
HETATM   13  C   UNL     1       6.087  30.430  57.992  1.00  0.00     0.035 A 
BRANCH   9  14
HETATM   14  O   UNL     1       3.022  31.992  56.793  1.00  0.00    -0.354 OA
HETATM   15  C   UNL     1       2.329  32.160  55.562  1.00  0.00     0.210 C 
ENDBRANCH   9  14
BRANCH  11  16
HETATM   16  O   UNL     1       5.963  28.902  54.614  1.00  0.00    -0.356 OA
HETATM   17  C   UNL     1       7.184  28.171  54.599  1.00  0.00     0.210 C 
ENDBRANCH  11  16
ENDBRANCH   5   8
ENDBRANCH   3   4
ENDBRANCH   1   3
BRANCH   1  18
HETATM   18  C   UNL     1       5.355  32.444  62.812  1.00  0.00     0.036 A 
HETATM   19  C   UNL     1       5.618  33.310  63.917  1.00  0.00     0.051 A 
HETATM   20  C   UNL     1       6.943  33.408  64.369  1.00  0.00     0.032 A 
HETATM   21  C   UNL     1       7.990  32.735  63.734  1.00  0.00     0.018 A 
HETATM   22  C   UNL     1       7.745  31.948  62.607  1.00  0.00     0.049 A 
HETATM   23  C   UNL     1       6.426  31.823  62.146  1.00  0.00     0.042 A 
BRANCH  19  24
HETATM   24  N   UNL     1       4.560  33.990  64.545  1.00  0.00    -0.379 N 
HETATM   25  C   UNL     1       4.367  33.880  65.998  1.00  0.00     0.123 C 
HETATM   26  C   UNL     1       4.991  35.050  66.762  1.00  0.00     0.020 C 
HETATM   27  C   UNL     1       4.556  36.392  66.186  1.00  0.00     0.003 C 
HETATM   28  C   UNL     1       4.848  36.448  64.690  1.00  0.00     0.020 C 
HETATM   29  C   UNL     1       4.183  35.287  63.953  1.00  0.00     0.123 C 
ENDBRANCH  19  24
BRANCH  22  30
HETATM   30  C   UNL     1       8.857  31.207  61.912  1.00  0.00     0.417 C 
HETATM   31  F   UNL     1       9.248  30.075  62.561  1.00  0.00    -0.166 F 
HETATM   32  F   UNL     1       8.510  30.814  60.654  1.00  0.00    -0.166 F 
HETATM   33  F   UNL     1       9.983  31.960  61.768  1.00  0.00    -0.166 F 
ENDBRANCH  22  30
ENDBRANCH   1  18
TORSDOF 8
ENDMDL
MODEL 7
REMARK VINA RESULT:      -8.3      2.068      2.895
REMARK  8 active torsions:
REMARK  status: ('A' for Active; 'I' for Inactive)
REMARK    1  A    between atoms: O_2  and  C_3 
REMARK    2  A    between atoms: C_5  and  O_6 
REMARK    3  A    between atoms: C_8  and  N_9 
REMARK       I    between atoms: N_9  and  C_10 
REMARK    4  A    between atoms: C_10  and  C_11 
REMARK    5  A    between atoms: C_11  and  N_12 
REMARK    6  A    between atoms: N_12  and  C_13 
REMARK    7  A    between atoms: C_14  and  N_15 
REMARK    8  A    between atoms: C_23  and  C_24 
ROOT
HETATM    1  N   UNL     1       6.890  28.509  54.052  1.00  0.00    -0.282 NA
HETATM    2  H   UNL     1       7.548  29.286  54.200  1.00  0.00     0.128 HD
ENDROOT
BRANCH   1   3
HETATM    3  C   UNL     1       5.504  28.951  54.230  1.00  0.00     0.195 C 
BRANCH   3   4
HETATM    4  C   UNL     1       4.609  28.428  53.101  1.00  0.00     0.235 C 
HETATM    5  N   UNL     1       5.205  28.515  51.856  1.00  0.00    -0.324 N 
HETATM    6  H   UNL     1       6.039  29.091  51.774  1.00  0.00     0.169 HD
HETATM    7  O   UNL     1       3.492  27.973  53.340  1.00  0.00    -0.272 OA
BRANCH   5   8
HETATM    8  C   UNL     1       4.790  27.909  50.649  1.00  0.00     0.068 A 
HETATM    9  C   UNL     1       4.305  28.751  49.628  1.00  0.00     0.097 A 
HETATM   10  C   UNL     1       3.947  28.204  48.390  1.00  0.00     0.075 A 
HETATM   11  C   UNL     1       4.069  26.832  48.152  1.00  0.00     0.070 A 
HETATM   12  C   UNL     1       4.526  25.999  49.170  1.00  0.00     0.039 A 
HETATM   13  C   UNL     1       4.886  26.536  50.411  1.00  0.00     0.035 A 
BRANCH   9  14
HETATM   14  O   UNL     1       4.242  30.090  49.941  1.00  0.00    -0.354 OA
HETATM   15  C   UNL     1       4.035  30.992  48.859  1.00  0.00     0.210 C 
ENDBRANCH   9  14
BRANCH  11  16
HETATM   16  O   UNL     1       3.711  26.433  46.893  1.00  0.00    -0.356 OA
HETATM   17  C   UNL     1       2.543  25.626  46.788  1.00  0.00     0.210 C 
ENDBRANCH  11  16
ENDBRANCH   5   8
ENDBRANCH   3   4
ENDBRANCH   1   3
BRANCH   1  18
HETATM   18  C   UNL     1       7.336  27.477  54.928  1.00  0.00     0.036 A 
HETATM   19  C   UNL     1       7.957  27.839  56.162  1.00  0.00     0.051 A 
HETATM   20  C   UNL     1       8.334  26.804  57.031  1.00  0.00     0.032 A 
HETATM   21  C   UNL     1       8.171  25.458  56.689  1.00  0.00     0.018 A 
HETATM   22  C   UNL     1       7.635  25.103  55.450  1.00  0.00     0.049 A 
HETATM   23  C   UNL     1       7.235  26.121  54.572  1.00  0.00     0.042 A 
BRANCH  19  24
HETATM   24  N   UNL     1       8.124  29.194  56.494  1.00  0.00    -0.379 N 
HETATM   25  C   UNL     1       7.397  29.774  57.632  1.00  0.00     0.123 C 
HETATM   26  C   UNL     1       8.239  29.810  58.910  1.00  0.00     0.020 C 
HETATM   27  C   UNL     1       9.602  30.448  58.665  1.00  0.00     0.003 C 
HETATM   28  C   UNL     1      10.316  29.749  57.512  1.00  0.00     0.020 C 
HETATM   29  C   UNL     1       9.463  29.761  56.245  1.00  0.00     0.123 C 
ENDBRANCH  19  24
BRANCH  22  30
HETATM   30  C   UNL     1       7.442  23.660  55.065  1.00  0.00     0.417 C 
HETATM   31  F   UNL     1       6.610  23.485  54.000  1.00  0.00    -0.166 F 
HETATM   32  F   UNL     1       8.615  23.054  54.725  1.00  0.00    -0.166 F 
HETATM   33  F   UNL     1       6.916  22.910  56.073  1.00  0.00    -0.166 F 
ENDBRANCH  22  30
ENDBRANCH   1  18
TORSDOF 8
ENDMDL
MODEL 8
REMARK VINA RESULT:      -8.2      6.948      9.988
REMARK  8 active torsions:
REMARK  status: ('A' for Active; 'I' for Inactive)
REMARK    1  A    between atoms: O_2  and  C_3 
REMARK    2  A    between atoms: C_5  and  O_6 
REMARK    3  A    between atoms: C_8  and  N_9 
REMARK       I    between atoms: N_9  and  C_10 
REMARK    4  A    between atoms: C_10  and  C_11 
REMARK    5  A    between atoms: C_11  and  N_12 
REMARK    6  A    between atoms: N_12  and  C_13 
REMARK    7  A    between atoms: C_14  and  N_15 
REMARK    8  A    between atoms: C_23  and  C_24 
ROOT
HETATM    1  N   UNL     1       5.223  33.283  59.989  1.00  0.00    -0.282 NA
HETATM    2  H   UNL     1       4.639  34.056  60.335  1.00  0.00     0.128 HD
ENDROOT
BRANCH   1   3
HETATM    3  C   UNL     1       4.397  32.141  59.582  1.00  0.00     0.195 C 
BRANCH   3   4
HETATM    4  C   UNL     1       4.838  31.601  58.217  1.00  0.00     0.235 C 
HETATM    5  N   UNL     1       4.966  30.224  58.198  1.00  0.00    -0.324 N 
HETATM    6  H   UNL     1       4.977  29.742  59.093  1.00  0.00     0.169 HD
HETATM    7  O   UNL     1       5.027  32.360  57.269  1.00  0.00    -0.272 OA
BRANCH   5   8
HETATM    8  C   UNL     1       5.102  29.380  57.073  1.00  0.00     0.068 A 
HETATM    9  C   UNL     1       6.268  28.592  56.986  1.00  0.00     0.097 A 
HETATM   10  C   UNL     1       6.417  27.689  55.926  1.00  0.00     0.075 A 
HETATM   11  C   UNL     1       5.420  27.555  54.955  1.00  0.00     0.070 A 
HETATM   12  C   UNL     1       4.280  28.351  55.030  1.00  0.00     0.039 A 
HETATM   13  C   UNL     1       4.122  29.257  56.085  1.00  0.00     0.035 A 
BRANCH   9  14
HETATM   14  O   UNL     1       7.184  28.770  57.998  1.00  0.00    -0.354 OA
HETATM   15  C   UNL     1       8.545  28.925  57.611  1.00  0.00     0.210 C 
ENDBRANCH   9  14
BRANCH  11  16
HETATM   16  O   UNL     1       5.679  26.619  53.991  1.00  0.00    -0.356 OA
HETATM   17  C   UNL     1       5.536  25.255  54.370  1.00  0.00     0.210 C 
ENDBRANCH  11  16
ENDBRANCH   5   8
ENDBRANCH   3   4
ENDBRANCH   1   3
BRANCH   1  18
HETATM   18  C   UNL     1       6.162  33.035  61.031  1.00  0.00     0.036 A 
HETATM   19  C   UNL     1       5.963  33.655  62.303  1.00  0.00     0.051 A 
HETATM   20  C   UNL     1       6.871  33.349  63.328  1.00  0.00     0.032 A 
HETATM   21  C   UNL     1       7.974  32.517  63.111  1.00  0.00     0.018 A 
HETATM   22  C   UNL     1       8.212  31.972  61.848  1.00  0.00     0.049 A 
HETATM   23  C   UNL     1       7.308  32.251  60.812  1.00  0.00     0.042 A 
BRANCH  19  24
HETATM   24  N   UNL     1       4.857  34.497  62.509  1.00  0.00    -0.379 N 
HETATM   25  C   UNL     1       3.761  34.077  63.393  1.00  0.00     0.123 C 
HETATM   26  C   UNL     1       3.900  34.642  64.809  1.00  0.00     0.020 C 
HETATM   27  C   UNL     1       4.129  36.149  64.791  1.00  0.00     0.003 C 
HETATM   28  C   UNL     1       5.320  36.494  63.903  1.00  0.00     0.020 C 
HETATM   29  C   UNL     1       5.134  35.945  62.490  1.00  0.00     0.123 C 
ENDBRANCH  19  24
BRANCH  22  30
HETATM   30  C   UNL     1       9.388  31.065  61.595  1.00  0.00     0.417 C 
HETATM   31  F   UNL     1      10.592  31.698  61.673  1.00  0.00    -0.166 F 
HETATM   32  F   UNL     1       9.449  30.036  62.486  1.00  0.00    -0.166 F 
HETATM   33  F   UNL     1       9.353  30.487  60.362  1.00  0.00    -0.166 F 
ENDBRANCH  22  30
ENDBRANCH   1  18
TORSDOF 8
ENDMDL
MODEL 9
REMARK VINA RESULT:      -8.1      3.131      7.402
REMARK  8 active torsions:
REMARK  status: ('A' for Active; 'I' for Inactive)
REMARK    1  A    between atoms: O_2  and  C_3 
REMARK    2  A    between atoms: C_5  and  O_6 
REMARK    3  A    between atoms: C_8  and  N_9 
REMARK       I    between atoms: N_9  and  C_10 
REMARK    4  A    between atoms: C_10  and  C_11 
REMARK    5  A    between atoms: C_11  and  N_12 
REMARK    6  A    between atoms: N_12  and  C_13 
REMARK    7  A    between atoms: C_14  and  N_15 
REMARK    8  A    between atoms: C_23  and  C_24 
ROOT
HETATM    1  N   UNL     1       4.991  25.288  55.158  1.00  0.00    -0.282 NA
HETATM    2  H   UNL     1       4.612  26.122  54.689  1.00  0.00     0.128 HD
ENDROOT
BRANCH   1   3
HETATM    3  C   UNL     1       5.448  25.609  56.514  1.00  0.00     0.195 C 
BRANCH   3   4
HETATM    4  C   UNL     1       6.404  26.808  56.504  1.00  0.00     0.235 C 
HETATM    5  N   UNL     1       5.977  27.845  57.313  1.00  0.00    -0.324 N 
HETATM    6  H   UNL     1       5.016  27.817  57.644  1.00  0.00     0.169 HD
HETATM    7  O   UNL     1       7.438  26.785  55.838  1.00  0.00    -0.272 OA
BRANCH   5   8
HETATM    8  C   UNL     1       6.712  28.974  57.738  1.00  0.00     0.068 A 
HETATM    9  C   UNL     1       6.035  30.209  57.795  1.00  0.00     0.097 A 
HETATM   10  C   UNL     1       6.701  31.343  58.277  1.00  0.00     0.075 A 
HETATM   11  C   UNL     1       8.029  31.264  58.707  1.00  0.00     0.070 A 
HETATM   12  C   UNL     1       8.703  30.048  58.626  1.00  0.00     0.039 A 
HETATM   13  C   UNL     1       8.046  28.910  58.147  1.00  0.00     0.035 A 
BRANCH   9  14
HETATM   14  O   UNL     1       4.724  30.190  57.378  1.00  0.00    -0.354 OA
HETATM   15  C   UNL     1       3.777  30.861  58.203  1.00  0.00     0.210 C 
ENDBRANCH   9  14
BRANCH  11  16
HETATM   16  O   UNL     1       8.552  32.438  59.178  1.00  0.00    -0.356 OA
HETATM   17  C   UNL     1       9.120  32.406  60.482  1.00  0.00     0.210 C 
ENDBRANCH  11  16
ENDBRANCH   5   8
ENDBRANCH   3   4
ENDBRANCH   1   3
BRANCH   1  18
HETATM   18  C   UNL     1       5.981  24.783  54.267  1.00  0.00     0.036 A 
HETATM   19  C   UNL     1       6.050  25.309  52.941  1.00  0.00     0.051 A 
HETATM   20  C   UNL     1       7.071  24.835  52.102  1.00  0.00     0.032 A 
HETATM   21  C   UNL     1       7.959  23.837  52.515  1.00  0.00     0.018 A 
HETATM   22  C   UNL     1       7.844  23.268  53.785  1.00  0.00     0.049 A 
HETATM   23  C   UNL     1       6.841  23.738  54.646  1.00  0.00     0.042 A 
BRANCH  19  24
HETATM   24  N   UNL     1       5.148  26.306  52.531  1.00  0.00    -0.379 N 
HETATM   25  C   UNL     1       5.308  27.689  53.002  1.00  0.00     0.123 C 
HETATM   26  C   UNL     1       6.054  28.569  51.996  1.00  0.00     0.020 C 
HETATM   27  C   UNL     1       5.449  28.463  50.601  1.00  0.00     0.003 C 
HETATM   28  C   UNL     1       5.378  27.003  50.163  1.00  0.00     0.020 C 
HETATM   29  C   UNL     1       4.598  26.161  51.171  1.00  0.00     0.123 C 
ENDBRANCH  19  24
BRANCH  22  30
HETATM   30  C   UNL     1       8.796  22.198  54.253  1.00  0.00     0.417 C 
HETATM   31  F   UNL     1       9.338  21.468  53.239  1.00  0.00    -0.166 F 
HETATM   32  F   UNL     1       9.850  22.713  54.947  1.00  0.00    -0.166 F 
HETATM   33  F   UNL     1       8.207  21.297  55.087  1.00  0.00    -0.166 F 
ENDBRANCH  22  30
ENDBRANCH   1  18
TORSDOF 8
ENDMDL
MODEL 10
REMARK VINA RESULT:      -8.0      4.551      8.708
REMARK  8 active torsions:
REMARK  status: ('A' for Active; 'I' for Inactive)
REMARK    1  A    between atoms: O_2  and  C_3 
REMARK    2  A    between atoms: C_5  and  O_6 
REMARK    3  A    between atoms: C_8  and  N_9 
REMARK       I    between atoms: N_9  and  C_10 
REMARK    4  A    between atoms: C_10  and  C_11 
REMARK    5  A    between atoms: C_11  and  N_12 
REMARK    6  A    between atoms: N_12  and  C_13 
REMARK    7  A    between atoms: C_14  and  N_15 
REMARK    8  A    between atoms: C_23  and  C_24 
ROOT
HETATM    1  N   UNL     1       5.555  29.097  52.885  1.00  0.00    -0.282 NA
HETATM    2  H   UNL     1       6.331  28.665  53.404  1.00  0.00     0.128 HD
ENDROOT
BRANCH   1   3
HETATM    3  C   UNL     1       4.442  29.426  53.780  1.00  0.00     0.195 C 
BRANCH   3   4
HETATM    4  C   UNL     1       4.848  29.257  55.249  1.00  0.00     0.235 C 
HETATM    5  N   UNL     1       6.068  29.837  55.542  1.00  0.00    -0.324 N 
HETATM    6  H   UNL     1       6.658  30.110  54.760  1.00  0.00     0.169 HD
HETATM    7  O   UNL     1       4.115  28.669  56.042  1.00  0.00    -0.272 OA
BRANCH   5   8
HETATM    8  C   UNL     1       6.625  30.095  56.815  1.00  0.00     0.068 A 
HETATM    9  C   UNL     1       7.679  29.264  57.246  1.00  0.00     0.097 A 
HETATM   10  C   UNL     1       8.310  29.522  58.469  1.00  0.00     0.075 A 
HETATM   11  C   UNL     1       7.909  30.598  59.267  1.00  0.00     0.070 A 
HETATM   12  C   UNL     1       6.851  31.402  58.851  1.00  0.00     0.039 A 
HETATM   13  C   UNL     1       6.215  31.152  57.630  1.00  0.00     0.035 A 
BRANCH   9  14
HETATM   14  O   UNL     1       8.025  28.246  56.386  1.00  0.00    -0.354 OA
HETATM   15  C   UNL     1       8.080  26.933  56.934  1.00  0.00     0.210 C 
ENDBRANCH   9  14
BRANCH  11  16
HETATM   16  O   UNL     1       8.624  30.753  60.423  1.00  0.00    -0.356 OA
HETATM   17  C   UNL     1       8.797  32.085  60.893  1.00  0.00     0.210 C 
ENDBRANCH  11  16
ENDBRANCH   5   8
ENDBRANCH   3   4
ENDBRANCH   1   3
BRANCH   1  18
HETATM   18  C   UNL     1       5.263  28.182  51.832  1.00  0.00     0.036 A 
HETATM   19  C   UNL     1       5.759  26.846  51.919  1.00  0.00     0.051 A 
HETATM   20  C   UNL     1       5.408  25.951  50.898  1.00  0.00     0.032 A 
HETATM   21  C   UNL     1       4.650  26.353  49.794  1.00  0.00     0.018 A 
HETATM   22  C   UNL     1       4.229  27.678  49.670  1.00  0.00     0.049 A 
HETATM   23  C   UNL     1       4.554  28.587  50.688  1.00  0.00     0.042 A 
BRANCH  19  24
HETATM   24  N   UNL     1       6.528  26.453  53.028  1.00  0.00    -0.379 N 
HETATM   25  C   UNL     1       5.886  25.816  54.187  1.00  0.00     0.123 C 
HETATM   26  C   UNL     1       5.972  24.288  54.139  1.00  0.00     0.020 C 
HETATM   27  C   UNL     1       7.400  23.815  53.893  1.00  0.00     0.003 C 
HETATM   28  C   UNL     1       7.969  24.473  52.641  1.00  0.00     0.020 C 
HETATM   29  C   UNL     1       7.899  25.996  52.735  1.00  0.00     0.123 C 
ENDBRANCH  19  24
BRANCH  22  30
HETATM   30  C   UNL     1       3.403  28.131  48.494  1.00  0.00     0.417 C 
HETATM   31  F   UNL     1       3.200  27.158  47.562  1.00  0.00    -0.166 F 
HETATM   32  F   UNL     1       2.163  28.556  48.866  1.00  0.00    -0.166 F 
HETATM   33  F   UNL     1       3.967  29.174  47.824  1.00  0.00    -0.166 F 
ENDBRANCH  22  30
ENDBRANCH   1  18
TORSDOF 8
ENDMDL
