MODEL 1
REMARK VINA RESULT:      -9.3      0.000      0.000
REMARK  9 active torsions:
REMARK  status: ('A' for Active; 'I' for Inactive)
REMARK    1  A    between atoms: C_2  and  N_3 
REMARK    2  A    between atoms: C_4  and  S_5 
REMARK    3  A    between atoms: S_5  and  C_6 
REMARK    4  A    between atoms: C_6  and  C_7 
REMARK       I    between atoms: C_7  and  N_8 
REMARK    5  A    between atoms: N_8  and  C_9 
REMARK    6  A    between atoms: C_9  and  C_10 
REMARK    7  A    between atoms: C_10  and  C_11 
REMARK    8  A    between atoms: C_20  and  C_21 
REMARK    9  A    between atoms: C_24  and  O_25 
ROOT
HETATM    1  N   UNL     1       7.702  27.141  55.940  1.00  0.00    -0.308 N 
HETATM    2  C   UNL     1       7.820  27.987  57.016  1.00  0.00     0.192 A 
HETATM    3  N   UNL     1       7.929  27.298  58.122  1.00  0.00    -0.122 NA
HETATM    4  N   UNL     1       7.927  25.978  57.781  1.00  0.00    -0.128 NA
HETATM    5  C   UNL     1       7.798  25.859  56.466  1.00  0.00     0.164 A 
ENDROOT
BRANCH   2   6
HETATM    6  S   UNL     1       7.842  29.714  56.919  1.00  0.00    -0.081 SA
BRANCH   6   7
HETATM    7  C   UNL     1       9.561  30.066  57.380  1.00  0.00     0.185 C 
BRANCH   7   8
HETATM    8  C   UNL     1       9.648  31.000  58.571  1.00  0.00     0.227 C 
HETATM    9  N   UNL     1       9.106  30.512  59.741  1.00  0.00    -0.360 N 
HETATM   10  H   UNL     1       8.695  29.577  59.731  1.00  0.00     0.162 HD
HETATM   11  O   UNL     1      10.124  32.129  58.475  1.00  0.00    -0.273 OA
BRANCH   9  12
HETATM   12  C   UNL     1       8.911  31.362  60.898  1.00  0.00     0.127 C 
BRANCH  12  13
HETATM   13  C   UNL     1       7.669  32.243  60.770  1.00  0.00     0.058 C 
BRANCH  13  14
HETATM   14  C   UNL     1       7.320  32.906  62.078  1.00  0.00    -0.057 A 
HETATM   15  C   UNL     1       6.357  33.923  62.122  1.00  0.00     0.007 A 
HETATM   16  C   UNL     1       6.054  34.562  63.325  1.00  0.00     0.001 A 
HETATM   17  C   UNL     1       6.713  34.192  64.496  1.00  0.00     0.000 A 
HETATM   18  C   UNL     1       7.675  33.185  64.463  1.00  0.00     0.001 A 
HETATM   19  C   UNL     1       7.980  32.545  63.261  1.00  0.00     0.007 A 
ENDBRANCH  13  14
ENDBRANCH  12  13
ENDBRANCH   9  12
ENDBRANCH   7   8
ENDBRANCH   6   7
ENDBRANCH   2   6
BRANCH   1  20
HETATM   20  C   UNL     1       7.517  27.543  54.562  1.00  0.00     0.128 C 
HETATM   21  C   UNL     1       6.063  27.735  54.172  1.00  0.00     0.027 C 
ENDBRANCH   1  20
BRANCH   5  22
HETATM   22  C   UNL     1       7.840  24.554  55.783  1.00  0.00     0.012 A 
HETATM   23  C   UNL     1       8.054  23.410  56.572  1.00  0.00     0.018 A 
HETATM   24  C   UNL     1       8.073  22.128  56.012  1.00  0.00     0.037 A 
HETATM   25  C   UNL     1       7.878  21.950  54.645  1.00  0.00     0.068 A 
HETATM   26  C   UNL     1       7.660  23.070  53.847  1.00  0.00     0.037 A 
HETATM   27  C   UNL     1       7.627  24.356  54.414  1.00  0.00     0.018 A 
BRANCH  25  28
HETATM   28  O   UNL     1       7.912  20.651  54.224  1.00  0.00    -0.356 OA
HETATM   29  C   UNL     1       8.294  20.419  52.874  1.00  0.00     0.210 C 
ENDBRANCH  25  28
ENDBRANCH   5  22
TORSDOF 9
ENDMDL
MODEL 2
REMARK VINA RESULT:      -8.9      2.316     11.091
REMARK  9 active torsions:
REMARK  status: ('A' for Active; 'I' for Inactive)
REMARK    1  A    between atoms: C_2  and  N_3 
REMARK    2  A    between atoms: C_4  and  S_5 
REMARK    3  A    between atoms: S_5  and  C_6 
REMARK    4  A    between atoms: C_6  and  C_7 
REMARK       I    between atoms: C_7  and  N_8 
REMARK    5  A    between atoms: N_8  and  C_9 
REMARK    6  A    between atoms: C_9  and  C_10 
REMARK    7  A    between atoms: C_10  and  C_11 
REMARK    8  A    between atoms: C_20  and  C_21 
REMARK    9  A    between atoms: C_24  and  O_25 
ROOT
HETATM    1  N   UNL     1       7.141  31.215  59.043  1.00  0.00    -0.308 N 
HETATM    2  C   UNL     1       7.752  30.175  58.386  1.00  0.00     0.192 A 
HETATM    3  N   UNL     1       8.672  29.639  59.146  1.00  0.00    -0.122 NA
HETATM    4  N   UNL     1       8.648  30.298  60.340  1.00  0.00    -0.128 NA
HETATM    5  C   UNL     1       7.725  31.251  60.302  1.00  0.00     0.164 A 
ENDROOT
BRANCH   2   6
HETATM    6  S   UNL     1       7.350  29.638  56.792  1.00  0.00    -0.081 SA
BRANCH   6   7
HETATM    7  C   UNL     1       6.188  28.295  57.160  1.00  0.00     0.185 C 
BRANCH   7   8
HETATM    8  C   UNL     1       6.846  26.932  57.057  1.00  0.00     0.227 C 
HETATM    9  N   UNL     1       6.457  26.172  55.975  1.00  0.00    -0.360 N 
HETATM   10  H   UNL     1       5.772  26.566  55.329  1.00  0.00     0.162 HD
HETATM   11  O   UNL     1       7.630  26.526  57.913  1.00  0.00    -0.273 OA
BRANCH   9  12
HETATM   12  C   UNL     1       6.821  24.775  55.862  1.00  0.00     0.127 C 
BRANCH  12  13
HETATM   13  C   UNL     1       7.398  24.432  54.489  1.00  0.00     0.058 C 
BRANCH  13  14
HETATM   14  C   UNL     1       7.720  22.964  54.372  1.00  0.00    -0.057 A 
HETATM   15  C   UNL     1       7.897  22.377  53.111  1.00  0.00     0.007 A 
HETATM   16  C   UNL     1       8.163  21.012  52.996  1.00  0.00     0.001 A 
HETATM   17  C   UNL     1       8.253  20.220  54.139  1.00  0.00     0.000 A 
HETATM   18  C   UNL     1       8.075  20.793  55.397  1.00  0.00     0.001 A 
HETATM   19  C   UNL     1       7.808  22.158  55.514  1.00  0.00     0.007 A 
ENDBRANCH  13  14
ENDBRANCH  12  13
ENDBRANCH   9  12
ENDBRANCH   7   8
ENDBRANCH   6   7
ENDBRANCH   2   6
BRANCH   1  20
HETATM   20  C   UNL     1       6.108  32.071  58.498  1.00  0.00     0.128 C 
HETATM   21  C   UNL     1       4.709  31.498  58.625  1.00  0.00     0.027 C 
ENDBRANCH   1  20
BRANCH   5  22
HETATM   22  C   UNL     1       7.405  32.087  61.473  1.00  0.00     0.012 A 
HETATM   23  C   UNL     1       8.197  31.929  62.624  1.00  0.00     0.018 A 
HETATM   24  C   UNL     1       7.988  32.707  63.768  1.00  0.00     0.037 A 
HETATM   25  C   UNL     1       6.981  33.668  63.796  1.00  0.00     0.068 A 
HETATM   26  C   UNL     1       6.189  33.843  62.664  1.00  0.00     0.037 A 
HETATM   27  C   UNL     1       6.411  33.070  61.511  1.00  0.00     0.018 A 
BRANCH  25  28
HETATM   28  O   UNL     1       6.884  34.365  64.967  1.00  0.00    -0.356 OA
HETATM   29  C   UNL     1       5.574  34.646  65.445  1.00  0.00     0.210 C 
ENDBRANCH  25  28
ENDBRANCH   5  22
TORSDOF 9
ENDMDL
MODEL 3
REMARK VINA RESULT:      -8.8      2.606     11.375
REMARK  9 active torsions:
REMARK  status: ('A' for Active; 'I' for Inactive)
REMARK    1  A    between atoms: C_2  and  N_3 
REMARK    2  A    between atoms: C_4  and  S_5 
REMARK    3  A    between atoms: S_5  and  C_6 
REMARK    4  A    between atoms: C_6  and  C_7 
REMARK       I    between atoms: C_7  and  N_8 
REMARK    5  A    between atoms: N_8  and  C_9 
REMARK    6  A    between atoms: C_9  and  C_10 
REMARK    7  A    between atoms: C_10  and  C_11 
REMARK    8  A    between atoms: C_20  and  C_21 
REMARK    9  A    between atoms: C_24  and  O_25 
ROOT
HETATM    1  N   UNL     1       7.516  31.622  60.866  1.00  0.00    -0.308 N 
HETATM    2  C   UNL     1       7.299  31.660  59.510  1.00  0.00     0.192 A 
HETATM    3  N   UNL     1       6.304  32.463  59.234  1.00  0.00    -0.122 NA
HETATM    4  N   UNL     1       5.877  33.001  60.411  1.00  0.00    -0.128 NA
HETATM    5  C   UNL     1       6.600  32.512  61.411  1.00  0.00     0.164 A 
ENDROOT
BRANCH   2   6
HETATM    6  S   UNL     1       8.222  30.788  58.335  1.00  0.00    -0.081 SA
BRANCH   6   7
HETATM    7  C   UNL     1       7.108  29.401  57.978  1.00  0.00     0.185 C 
BRANCH   7   8
HETATM    8  C   UNL     1       7.866  28.171  57.515  1.00  0.00     0.227 C 
HETATM    9  N   UNL     1       7.087  27.061  57.266  1.00  0.00    -0.360 N 
HETATM   10  H   UNL     1       6.078  27.137  57.404  1.00  0.00     0.162 HD
HETATM   11  O   UNL     1       9.092  28.163  57.421  1.00  0.00    -0.273 OA
BRANCH   9  12
HETATM   12  C   UNL     1       7.678  25.758  57.038  1.00  0.00     0.127 C 
BRANCH  12  13
HETATM   13  C   UNL     1       6.715  24.797  56.342  1.00  0.00     0.058 C 
BRANCH  13  14
HETATM   14  C   UNL     1       7.437  23.884  55.383  1.00  0.00    -0.057 A 
HETATM   15  C   UNL     1       6.967  23.719  54.073  1.00  0.00     0.007 A 
HETATM   16  C   UNL     1       7.613  22.851  53.192  1.00  0.00     0.001 A 
HETATM   17  C   UNL     1       8.733  22.137  53.612  1.00  0.00     0.000 A 
HETATM   18  C   UNL     1       9.207  22.291  54.914  1.00  0.00     0.001 A 
HETATM   19  C   UNL     1       8.562  23.159  55.796  1.00  0.00     0.007 A 
ENDBRANCH  13  14
ENDBRANCH  12  13
ENDBRANCH   9  12
ENDBRANCH   7   8
ENDBRANCH   6   7
ENDBRANCH   2   6
BRANCH   1  20
HETATM   20  C   UNL     1       8.502  30.808  61.544  1.00  0.00     0.128 C 
HETATM   21  C   UNL     1       9.871  31.457  61.636  1.00  0.00     0.027 C 
ENDBRANCH   1  20
BRANCH   5  22
HETATM   22  C   UNL     1       6.429  32.963  62.804  1.00  0.00     0.012 A 
HETATM   23  C   UNL     1       5.117  33.074  63.298  1.00  0.00     0.018 A 
HETATM   24  C   UNL     1       4.863  33.459  64.618  1.00  0.00     0.037 A 
HETATM   25  C   UNL     1       5.913  33.745  65.487  1.00  0.00     0.068 A 
HETATM   26  C   UNL     1       7.220  33.637  65.018  1.00  0.00     0.037 A 
HETATM   27  C   UNL     1       7.473  33.235  63.695  1.00  0.00     0.018 A 
BRANCH  25  28
HETATM   28  O   UNL     1       5.534  34.102  66.750  1.00  0.00    -0.356 OA
HETATM   29  C   UNL     1       6.571  34.360  67.687  1.00  0.00     0.210 C 
ENDBRANCH  25  28
ENDBRANCH   5  22
TORSDOF 9
ENDMDL
MODEL 4
REMARK VINA RESULT:      -8.7      5.305      9.268
REMARK  9 active torsions:
REMARK  status: ('A' for Active; 'I' for Inactive)
REMARK    1  A    between atoms: C_2  and  N_3 
REMARK    2  A    between atoms: C_4  and  S_5 
REMARK    3  A    between atoms: S_5  and  C_6 
REMARK    4  A    between atoms: C_6  and  C_7 
REMARK       I    between atoms: C_7  and  N_8 
REMARK    5  A    between atoms: N_8  and  C_9 
REMARK    6  A    between atoms: C_9  and  C_10 
REMARK    7  A    between atoms: C_10  and  C_11 
REMARK    8  A    between atoms: C_20  and  C_21 
REMARK    9  A    between atoms: C_24  and  O_25 
ROOT
HETATM    1  N   UNL     1       5.806  28.166  52.992  1.00  0.00    -0.308 N 
HETATM    2  C   UNL     1       6.659  27.777  53.996  1.00  0.00     0.192 A 
HETATM    3  N   UNL     1       7.269  26.667  53.667  1.00  0.00    -0.122 NA
HETATM    4  N   UNL     1       6.852  26.331  52.413  1.00  0.00    -0.128 NA
HETATM    5  C   UNL     1       5.973  27.226  51.982  1.00  0.00     0.164 A 
ENDROOT
BRANCH   2   6
HETATM    6  S   UNL     1       6.908  28.641  55.474  1.00  0.00    -0.081 SA
BRANCH   6   7
HETATM    7  C   UNL     1       6.141  27.512  56.669  1.00  0.00     0.185 C 
BRANCH   7   8
HETATM    8  C   UNL     1       7.119  26.467  57.170  1.00  0.00     0.227 C 
HETATM    9  N   UNL     1       7.111  25.275  56.477  1.00  0.00    -0.360 N 
HETATM   10  H   UNL     1       6.466  25.177  55.691  1.00  0.00     0.162 HD
HETATM   11  O   UNL     1       7.827  26.662  58.156  1.00  0.00    -0.273 OA
BRANCH   9  12
HETATM   12  C   UNL     1       7.818  24.110  56.966  1.00  0.00     0.127 C 
BRANCH  12  13
HETATM   13  C   UNL     1       8.989  23.718  56.067  1.00  0.00     0.058 C 
BRANCH  13  14
HETATM   14  C   UNL     1       8.598  22.649  55.078  1.00  0.00    -0.057 A 
HETATM   15  C   UNL     1       8.671  21.295  55.434  1.00  0.00     0.007 A 
HETATM   16  C   UNL     1       8.340  20.301  54.511  1.00  0.00     0.001 A 
HETATM   17  C   UNL     1       7.937  20.651  53.224  1.00  0.00     0.000 A 
HETATM   18  C   UNL     1       7.865  21.994  52.859  1.00  0.00     0.001 A 
HETATM   19  C   UNL     1       8.195  22.989  53.780  1.00  0.00     0.007 A 
ENDBRANCH  13  14
ENDBRANCH  12  13
ENDBRANCH   9  12
ENDBRANCH   7   8
ENDBRANCH   6   7
ENDBRANCH   2   6
BRANCH   1  20
HETATM   20  C   UNL     1       4.932  29.318  53.022  1.00  0.00     0.128 C 
HETATM   21  C   UNL     1       3.536  29.014  53.535  1.00  0.00     0.027 C 
ENDBRANCH   1  20
BRANCH   5  22
HETATM   22  C   UNL     1       5.398  27.180  50.626  1.00  0.00     0.012 A 
HETATM   23  C   UNL     1       4.677  26.030  50.262  1.00  0.00     0.018 A 
HETATM   24  C   UNL     1       4.066  25.915  49.008  1.00  0.00     0.037 A 
HETATM   25  C   UNL     1       4.158  26.948  48.080  1.00  0.00     0.068 A 
HETATM   26  C   UNL     1       4.864  28.098  48.423  1.00  0.00     0.037 A 
HETATM   27  C   UNL     1       5.464  28.217  49.689  1.00  0.00     0.018 A 
BRANCH  25  28
HETATM   28  O   UNL     1       3.513  26.718  46.897  1.00  0.00    -0.356 OA
HETATM   29  C   UNL     1       2.098  26.588  46.948  1.00  0.00     0.210 C 
ENDBRANCH  25  28
ENDBRANCH   5  22
TORSDOF 9
ENDMDL
MODEL 5
REMARK VINA RESULT:      -8.6      3.790      4.924
REMARK  9 active torsions:
REMARK  status: ('A' for Active; 'I' for Inactive)
REMARK    1  A    between atoms: C_2  and  N_3 
REMARK    2  A    between atoms: C_4  and  S_5 
REMARK    3  A    between atoms: S_5  and  C_6 
REMARK    4  A    between atoms: C_6  and  C_7 
REMARK       I    between atoms: C_7  and  N_8 
REMARK    5  A    between atoms: N_8  and  C_9 
REMARK    6  A    between atoms: C_9  and  C_10 
REMARK    7  A    between atoms: C_10  and  C_11 
REMARK    8  A    between atoms: C_20  and  C_21 
REMARK    9  A    between atoms: C_24  and  O_25 
ROOT
HETATM    1  N   UNL     1       5.778  26.185  53.608  1.00  0.00    -0.308 N 
HETATM    2  C   UNL     1       5.767  27.554  53.506  1.00  0.00     0.192 A 
HETATM    3  N   UNL     1       6.922  28.045  53.875  1.00  0.00    -0.122 NA
HETATM    4  N   UNL     1       7.729  26.991  54.187  1.00  0.00    -0.128 NA
HETATM    5  C   UNL     1       7.061  25.856  54.027  1.00  0.00     0.164 A 
ENDROOT
BRANCH   2   6
HETATM    6  S   UNL     1       4.425  28.495  52.950  1.00  0.00    -0.081 SA
BRANCH   6   7
HETATM    7  C   UNL     1       4.514  29.921  54.068  1.00  0.00     0.185 C 
BRANCH   7   8
HETATM    8  C   UNL     1       4.537  29.499  55.524  1.00  0.00     0.227 C 
HETATM    9  N   UNL     1       5.674  29.850  56.220  1.00  0.00    -0.360 N 
HETATM   10  H   UNL     1       6.407  30.360  55.724  1.00  0.00     0.162 HD
HETATM   11  O   UNL     1       3.622  28.846  56.023  1.00  0.00    -0.273 OA
BRANCH   9  12
HETATM   12  C   UNL     1       5.943  29.328  57.544  1.00  0.00     0.127 C 
BRANCH  12  13
HETATM   13  C   UNL     1       7.199  28.458  57.583  1.00  0.00     0.058 C 
BRANCH  13  14
HETATM   14  C   UNL     1       8.452  29.294  57.644  1.00  0.00    -0.057 A 
HETATM   15  C   UNL     1       8.540  30.375  58.533  1.00  0.00     0.007 A 
HETATM   16  C   UNL     1       9.686  31.170  58.570  1.00  0.00     0.001 A 
HETATM   17  C   UNL     1      10.753  30.896  57.718  1.00  0.00     0.000 A 
HETATM   18  C   UNL     1      10.675  29.826  56.828  1.00  0.00     0.001 A 
HETATM   19  C   UNL     1       9.530  29.030  56.789  1.00  0.00     0.007 A 
ENDBRANCH  13  14
ENDBRANCH  12  13
ENDBRANCH   9  12
ENDBRANCH   7   8
ENDBRANCH   6   7
ENDBRANCH   2   6
BRANCH   1  20
HETATM   20  C   UNL     1       4.663  25.305  53.330  1.00  0.00     0.128 C 
HETATM   21  C   UNL     1       4.742  24.627  51.975  1.00  0.00     0.027 C 
ENDBRANCH   1  20
BRANCH   5  22
HETATM   22  C   UNL     1       7.690  24.536  54.211  1.00  0.00     0.012 A 
HETATM   23  C   UNL     1       7.823  24.054  55.525  1.00  0.00     0.018 A 
HETATM   24  C   UNL     1       8.374  22.796  55.791  1.00  0.00     0.037 A 
HETATM   25  C   UNL     1       8.810  21.980  54.750  1.00  0.00     0.068 A 
HETATM   26  C   UNL     1       8.682  22.438  53.440  1.00  0.00     0.037 A 
HETATM   27  C   UNL     1       8.114  23.696  53.176  1.00  0.00     0.018 A 
BRANCH  25  28
HETATM   28  O   UNL     1       9.321  20.775  55.139  1.00  0.00    -0.356 OA
HETATM   29  C   UNL     1       9.026  20.345  56.462  1.00  0.00     0.210 C 
ENDBRANCH  25  28
ENDBRANCH   5  22
TORSDOF 9
ENDMDL
MODEL 6
REMARK VINA RESULT:      -8.5      1.652      2.265
REMARK  9 active torsions:
REMARK  status: ('A' for Active; 'I' for Inactive)
REMARK    1  A    between atoms: C_2  and  N_3 
REMARK    2  A    between atoms: C_4  and  S_5 
REMARK    3  A    between atoms: S_5  and  C_6 
REMARK    4  A    between atoms: C_6  and  C_7 
REMARK       I    between atoms: C_7  and  N_8 
REMARK    5  A    between atoms: N_8  and  C_9 
REMARK    6  A    between atoms: C_9  and  C_10 
REMARK    7  A    between atoms: C_10  and  C_11 
REMARK    8  A    between atoms: C_20  and  C_21 
REMARK    9  A    between atoms: C_24  and  O_25 
ROOT
HETATM    1  N   UNL     1       6.824  26.704  55.694  1.00  0.00    -0.308 N 
HETATM    2  C   UNL     1       6.733  28.018  55.304  1.00  0.00     0.192 A 
HETATM    3  N   UNL     1       7.225  28.168  54.101  1.00  0.00    -0.122 NA
HETATM    4  N   UNL     1       7.612  26.936  53.664  1.00  0.00    -0.128 NA
HETATM    5  C   UNL     1       7.373  26.035  54.607  1.00  0.00     0.164 A 
ENDROOT
BRANCH   2   6
HETATM    6  S   UNL     1       6.046  29.288  56.257  1.00  0.00    -0.081 SA
BRANCH   6   7
HETATM    7  C   UNL     1       7.395  29.614  57.425  1.00  0.00     0.185 C 
BRANCH   7   8
HETATM    8  C   UNL     1       7.136  30.855  58.257  1.00  0.00     0.227 C 
HETATM    9  N   UNL     1       8.189  31.261  59.050  1.00  0.00    -0.360 N 
HETATM   10  H   UNL     1       9.052  30.716  59.024  1.00  0.00     0.162 HD
HETATM   11  O   UNL     1       6.044  31.421  58.255  1.00  0.00    -0.273 OA
BRANCH   9  12
HETATM   12  C   UNL     1       8.025  32.285  60.061  1.00  0.00     0.127 C 
BRANCH  12  13
HETATM   13  C   UNL     1       8.476  31.816  61.443  1.00  0.00     0.058 C 
BRANCH  13  14
HETATM   14  C   UNL     1       7.566  32.331  62.530  1.00  0.00    -0.057 A 
HETATM   15  C   UNL     1       8.103  32.870  63.707  1.00  0.00     0.007 A 
HETATM   16  C   UNL     1       7.264  33.317  64.729  1.00  0.00     0.001 A 
HETATM   17  C   UNL     1       5.882  33.228  64.585  1.00  0.00     0.000 A 
HETATM   18  C   UNL     1       5.337  32.690  63.421  1.00  0.00     0.001 A 
HETATM   19  C   UNL     1       6.174  32.242  62.398  1.00  0.00     0.007 A 
ENDBRANCH  13  14
ENDBRANCH  12  13
ENDBRANCH   9  12
ENDBRANCH   7   8
ENDBRANCH   6   7
ENDBRANCH   2   6
BRANCH   1  20
HETATM   20  C   UNL     1       6.423  26.172  56.978  1.00  0.00     0.128 C 
HETATM   21  C   UNL     1       5.031  25.568  56.982  1.00  0.00     0.027 C 
ENDBRANCH   1  20
BRANCH   5  22
HETATM   22  C   UNL     1       7.611  24.594  54.403  1.00  0.00     0.012 A 
HETATM   23  C   UNL     1       8.054  23.843  55.505  1.00  0.00     0.018 A 
HETATM   24  C   UNL     1       8.270  22.464  55.412  1.00  0.00     0.037 A 
HETATM   25  C   UNL     1       8.051  21.794  54.211  1.00  0.00     0.068 A 
HETATM   26  C   UNL     1       7.608  22.520  53.108  1.00  0.00     0.037 A 
HETATM   27  C   UNL     1       7.377  23.902  53.210  1.00  0.00     0.018 A 
BRANCH  25  28
HETATM   28  O   UNL     1       8.292  20.449  54.252  1.00  0.00    -0.356 OA
HETATM   29  C   UNL     1       8.619  19.889  55.517  1.00  0.00     0.210 C 
ENDBRANCH  25  28
ENDBRANCH   5  22
TORSDOF 9
ENDMDL
MODEL 7
REMARK VINA RESULT:      -8.5      2.277      3.123
REMARK  9 active torsions:
REMARK  status: ('A' for Active; 'I' for Inactive)
REMARK    1  A    between atoms: C_2  and  N_3 
REMARK    2  A    between atoms: C_4  and  S_5 
REMARK    3  A    between atoms: S_5  and  C_6 
REMARK    4  A    between atoms: C_6  and  C_7 
REMARK       I    between atoms: C_7  and  N_8 
REMARK    5  A    between atoms: N_8  and  C_9 
REMARK    6  A    between atoms: C_9  and  C_10 
REMARK    7  A    between atoms: C_10  and  C_11 
REMARK    8  A    between atoms: C_20  and  C_21 
REMARK    9  A    between atoms: C_24  and  O_25 
ROOT
HETATM    1  N   UNL     1       6.533  27.679  55.104  1.00  0.00    -0.308 N 
HETATM    2  C   UNL     1       5.462  28.528  54.967  1.00  0.00     0.192 A 
HETATM    3  N   UNL     1       4.516  27.956  54.268  1.00  0.00    -0.122 NA
HETATM    4  N   UNL     1       4.939  26.694  53.969  1.00  0.00    -0.128 NA
HETATM    5  C   UNL     1       6.153  26.502  54.470  1.00  0.00     0.164 A 
ENDROOT
BRANCH   2   6
HETATM    6  S   UNL     1       5.368  30.119  55.640  1.00  0.00    -0.081 SA
BRANCH   6   7
HETATM    7  C   UNL     1       4.591  29.774  57.242  1.00  0.00     0.185 C 
BRANCH   7   8
HETATM    8  C   UNL     1       4.535  31.008  58.122  1.00  0.00     0.227 C 
HETATM    9  N   UNL     1       5.678  31.262  58.850  1.00  0.00    -0.360 N 
HETATM   10  H   UNL     1       6.467  30.622  58.750  1.00  0.00     0.162 HD
HETATM   11  O   UNL     1       3.519  31.695  58.211  1.00  0.00    -0.273 OA
BRANCH   9  12
HETATM   12  C   UNL     1       5.702  32.263  59.897  1.00  0.00     0.127 C 
BRANCH  12  13
HETATM   13  C   UNL     1       7.099  32.460  60.482  1.00  0.00     0.058 C 
BRANCH  13  14
HETATM   14  C   UNL     1       7.043  33.041  61.872  1.00  0.00    -0.057 A 
HETATM   15  C   UNL     1       7.841  32.509  62.895  1.00  0.00     0.007 A 
HETATM   16  C   UNL     1       7.769  33.022  64.190  1.00  0.00     0.001 A 
HETATM   17  C   UNL     1       6.897  34.070  64.478  1.00  0.00     0.000 A 
HETATM   18  C   UNL     1       6.096  34.604  63.470  1.00  0.00     0.001 A 
HETATM   19  C   UNL     1       6.167  34.092  62.173  1.00  0.00     0.007 A 
ENDBRANCH  13  14
ENDBRANCH  12  13
ENDBRANCH   9  12
ENDBRANCH   7   8
ENDBRANCH   6   7
ENDBRANCH   2   6
BRANCH   1  20
HETATM   20  C   UNL     1       7.778  27.986  55.774  1.00  0.00     0.128 C 
HETATM   21  C   UNL     1       7.806  27.568  57.233  1.00  0.00     0.027 C 
ENDBRANCH   1  20
BRANCH   5  22
HETATM   22  C   UNL     1       6.849  25.206  54.380  1.00  0.00     0.012 A 
HETATM   23  C   UNL     1       7.380  24.836  53.132  1.00  0.00     0.018 A 
HETATM   24  C   UNL     1       8.088  23.641  52.964  1.00  0.00     0.037 A 
HETATM   25  C   UNL     1       8.286  22.779  54.039  1.00  0.00     0.068 A 
HETATM   26  C   UNL     1       7.772  23.130  55.285  1.00  0.00     0.037 A 
HETATM   27  C   UNL     1       7.075  24.339  55.454  1.00  0.00     0.018 A 
BRANCH  25  28
HETATM   28  O   UNL     1       8.998  21.650  53.747  1.00  0.00    -0.356 OA
HETATM   29  C   UNL     1       8.315  20.619  53.045  1.00  0.00     0.210 C 
ENDBRANCH  25  28
ENDBRANCH   5  22
TORSDOF 9
ENDMDL
MODEL 8
REMARK VINA RESULT:      -8.5      1.594      2.238
REMARK  9 active torsions:
REMARK  status: ('A' for Active; 'I' for Inactive)
REMARK    1  A    between atoms: C_2  and  N_3 
REMARK    2  A    between atoms: C_4  and  S_5 
REMARK    3  A    between atoms: S_5  and  C_6 
REMARK    4  A    between atoms: C_6  and  C_7 
REMARK       I    between atoms: C_7  and  N_8 
REMARK    5  A    between atoms: N_8  and  C_9 
REMARK    6  A    between atoms: C_9  and  C_10 
REMARK    7  A    between atoms: C_10  and  C_11 
REMARK    8  A    between atoms: C_20  and  C_21 
REMARK    9  A    between atoms: C_24  and  O_25 
ROOT
HETATM    1  N   UNL     1       6.793  26.924  56.768  1.00  0.00    -0.308 N 
HETATM    2  C   UNL     1       7.343  28.098  57.224  1.00  0.00     0.192 A 
HETATM    3  N   UNL     1       8.607  27.923  57.511  1.00  0.00    -0.122 NA
HETATM    4  N   UNL     1       8.919  26.631  57.205  1.00  0.00    -0.128 NA
HETATM    5  C   UNL     1       7.839  26.010  56.748  1.00  0.00     0.164 A 
ENDROOT
BRANCH   2   6
HETATM    6  S   UNL     1       6.493  29.597  57.376  1.00  0.00    -0.081 SA
BRANCH   6   7
HETATM    7  C   UNL     1       7.718  30.603  58.258  1.00  0.00     0.185 C 
BRANCH   7   8
HETATM    8  C   UNL     1       7.065  31.696  59.082  1.00  0.00     0.227 C 
HETATM    9  N   UNL     1       7.469  31.758  60.399  1.00  0.00    -0.360 N 
HETATM   10  H   UNL     1       8.164  31.085  60.725  1.00  0.00     0.162 HD
HETATM   11  O   UNL     1       6.202  32.434  58.612  1.00  0.00    -0.273 OA
BRANCH   9  12
HETATM   12  C   UNL     1       6.780  32.591  61.364  1.00  0.00     0.127 C 
BRANCH  12  13
HETATM   13  C   UNL     1       7.632  32.879  62.599  1.00  0.00     0.058 C 
BRANCH  13  14
HETATM   14  C   UNL     1       6.782  33.263  63.784  1.00  0.00    -0.057 A 
HETATM   15  C   UNL     1       7.382  33.622  64.999  1.00  0.00     0.007 A 
HETATM   16  C   UNL     1       6.599  33.947  66.107  1.00  0.00     0.001 A 
HETATM   17  C   UNL     1       5.209  33.912  66.013  1.00  0.00     0.000 A 
HETATM   18  C   UNL     1       4.602  33.553  64.812  1.00  0.00     0.001 A 
HETATM   19  C   UNL     1       5.384  33.228  63.702  1.00  0.00     0.007 A 
ENDBRANCH  13  14
ENDBRANCH  12  13
ENDBRANCH   9  12
ENDBRANCH   7   8
ENDBRANCH   6   7
ENDBRANCH   2   6
BRANCH   1  20
HETATM   20  C   UNL     1       5.408  26.725  56.399  1.00  0.00     0.128 C 
HETATM   21  C   UNL     1       4.703  25.664  57.223  1.00  0.00     0.027 C 
ENDBRANCH   1  20
BRANCH   5  22
HETATM   22  C   UNL     1       7.874  24.620  56.259  1.00  0.00     0.012 A 
HETATM   23  C   UNL     1       7.377  24.370  54.968  1.00  0.00     0.018 A 
HETATM   24  C   UNL     1       7.405  23.087  54.409  1.00  0.00     0.037 A 
HETATM   25  C   UNL     1       7.931  22.015  55.125  1.00  0.00     0.068 A 
HETATM   26  C   UNL     1       8.432  22.244  56.404  1.00  0.00     0.037 A 
HETATM   27  C   UNL     1       8.416  23.536  56.957  1.00  0.00     0.018 A 
BRANCH  25  28
HETATM   28  O   UNL     1       7.907  20.818  54.467  1.00  0.00    -0.356 OA
HETATM   29  C   UNL     1       8.011  20.858  53.049  1.00  0.00     0.210 C 
ENDBRANCH  25  28
ENDBRANCH   5  22
TORSDOF 9
ENDMDL
MODEL 9
REMARK VINA RESULT:      -8.4      2.477     10.696
REMARK  9 active torsions:
REMARK  status: ('A' for Active; 'I' for Inactive)
REMARK    1  A    between atoms: C_2  and  N_3 
REMARK    2  A    between atoms: C_4  and  S_5 
REMARK    3  A    between atoms: S_5  and  C_6 
REMARK    4  A    between atoms: C_6  and  C_7 
REMARK       I    between atoms: C_7  and  N_8 
REMARK    5  A    between atoms: N_8  and  C_9 
REMARK    6  A    between atoms: C_9  and  C_10 
REMARK    7  A    between atoms: C_10  and  C_11 
REMARK    8  A    between atoms: C_20  and  C_21 
REMARK    9  A    between atoms: C_24  and  O_25 
ROOT
HETATM    1  N   UNL     1       6.830  30.379  58.069  1.00  0.00    -0.308 N 
HETATM    2  C   UNL     1       7.224  29.609  57.002  1.00  0.00     0.192 A 
HETATM    3  N   UNL     1       8.484  29.277  57.125  1.00  0.00    -0.122 NA
HETATM    4  N   UNL     1       8.927  29.795  58.306  1.00  0.00    -0.128 NA
HETATM    5  C   UNL     1       7.942  30.459  58.897  1.00  0.00     0.164 A 
ENDROOT
BRANCH   2   6
HETATM    6  S   UNL     1       6.198  29.128  55.695  1.00  0.00    -0.081 SA
BRANCH   6   7
HETATM    7  C   UNL     1       6.521  27.344  55.638  1.00  0.00     0.185 C 
BRANCH   7   8
HETATM    8  C   UNL     1       6.604  26.829  54.214  1.00  0.00     0.227 C 
HETATM    9  N   UNL     1       6.413  25.471  54.068  1.00  0.00    -0.360 N 
HETATM   10  H   UNL     1       6.229  24.916  54.906  1.00  0.00     0.162 HD
HETATM   11  O   UNL     1       6.875  27.570  53.271  1.00  0.00    -0.273 OA
BRANCH   9  12
HETATM   12  C   UNL     1       6.682  24.798  52.814  1.00  0.00     0.127 C 
BRANCH  12  13
HETATM   13  C   UNL     1       8.095  24.220  52.755  1.00  0.00     0.058 C 
BRANCH  13  14
HETATM   14  C   UNL     1       8.194  22.917  53.507  1.00  0.00    -0.057 A 
HETATM   15  C   UNL     1       8.745  22.883  54.796  1.00  0.00     0.007 A 
HETATM   16  C   UNL     1       8.868  21.675  55.483  1.00  0.00     0.001 A 
HETATM   17  C   UNL     1       8.446  20.488  54.888  1.00  0.00     0.000 A 
HETATM   18  C   UNL     1       7.901  20.509  53.605  1.00  0.00     0.001 A 
HETATM   19  C   UNL     1       7.777  21.717  52.917  1.00  0.00     0.007 A 
ENDBRANCH  13  14
ENDBRANCH  12  13
ENDBRANCH   9  12
ENDBRANCH   7   8
ENDBRANCH   6   7
ENDBRANCH   2   6
BRANCH   1  20
HETATM   20  C   UNL     1       5.520  30.967  58.251  1.00  0.00     0.128 C 
HETATM   21  C   UNL     1       5.334  32.284  57.522  1.00  0.00     0.027 C 
ENDBRANCH   1  20
BRANCH   5  22
HETATM   22  C   UNL     1       8.089  31.068  60.231  1.00  0.00     0.012 A 
HETATM   23  C   UNL     1       7.445  32.296  60.463  1.00  0.00     0.018 A 
HETATM   24  C   UNL     1       7.501  32.927  61.710  1.00  0.00     0.037 A 
HETATM   25  C   UNL     1       8.202  32.350  62.765  1.00  0.00     0.068 A 
HETATM   26  C   UNL     1       8.843  31.131  62.557  1.00  0.00     0.037 A 
HETATM   27  C   UNL     1       8.773  30.491  61.307  1.00  0.00     0.018 A 
BRANCH  25  28
HETATM   28  O   UNL     1       8.174  33.060  63.932  1.00  0.00    -0.356 OA
HETATM   29  C   UNL     1       6.897  33.451  64.420  1.00  0.00     0.210 C 
ENDBRANCH  25  28
ENDBRANCH   5  22
TORSDOF 9
ENDMDL
MODEL 10
REMARK VINA RESULT:      -8.2      2.679      4.262
REMARK  9 active torsions:
REMARK  status: ('A' for Active; 'I' for Inactive)
REMARK    1  A    between atoms: C_2  and  N_3 
REMARK    2  A    between atoms: C_4  and  S_5 
REMARK    3  A    between atoms: S_5  and  C_6 
REMARK    4  A    between atoms: C_6  and  C_7 
REMARK       I    between atoms: C_7  and  N_8 
REMARK    5  A    between atoms: N_8  and  C_9 
REMARK    6  A    between atoms: C_9  and  C_10 
REMARK    7  A    between atoms: C_10  and  C_11 
REMARK    8  A    between atoms: C_20  and  C_21 
REMARK    9  A    between atoms: C_24  and  O_25 
ROOT
HETATM    1  N   UNL     1       5.910  27.169  55.019  1.00  0.00    -0.308 N 
HETATM    2  C   UNL     1       5.108  27.920  55.843  1.00  0.00     0.192 A 
HETATM    3  N   UNL     1       4.777  27.230  56.904  1.00  0.00    -0.122 NA
HETATM    4  N   UNL     1       5.397  26.019  56.810  1.00  0.00    -0.128 NA
HETATM    5  C   UNL     1       6.093  25.963  55.682  1.00  0.00     0.164 A 
ENDROOT
BRANCH   2   6
HETATM    6  S   UNL     1       4.622  29.552  55.534  1.00  0.00    -0.081 SA
BRANCH   6   7
HETATM    7  C   UNL     1       4.254  30.129  57.214  1.00  0.00     0.185 C 
BRANCH   7   8
HETATM    8  C   UNL     1       5.266  31.151  57.696  1.00  0.00     0.227 C 
HETATM    9  N   UNL     1       6.008  30.771  58.794  1.00  0.00    -0.360 N 
HETATM   10  H   UNL     1       5.835  29.850  59.199  1.00  0.00     0.162 HD
HETATM   11  O   UNL     1       5.371  32.257  57.168  1.00  0.00    -0.273 OA
BRANCH   9  12
HETATM   12  C   UNL     1       6.847  31.714  59.504  1.00  0.00     0.127 C 
BRANCH  12  13
HETATM   13  C   UNL     1       8.155  31.086  59.981  1.00  0.00     0.058 C 
BRANCH  13  14
HETATM   14  C   UNL     1       8.940  30.499  58.835  1.00  0.00    -0.057 A 
HETATM   15  C   UNL     1      10.068  31.165  58.335  1.00  0.00     0.007 A 
HETATM   16  C   UNL     1      10.779  30.642  57.254  1.00  0.00     0.001 A 
HETATM   17  C   UNL     1      10.368  29.451  56.659  1.00  0.00     0.000 A 
HETATM   18  C   UNL     1       9.246  28.783  57.145  1.00  0.00     0.001 A 
HETATM   19  C   UNL     1       8.533  29.305  58.227  1.00  0.00     0.007 A 
ENDBRANCH  13  14
ENDBRANCH  12  13
ENDBRANCH   9  12
ENDBRANCH   7   8
ENDBRANCH   6   7
ENDBRANCH   2   6
BRANCH   1  20
HETATM   20  C   UNL     1       6.431  27.585  53.734  1.00  0.00     0.128 C 
HETATM   21  C   UNL     1       7.855  28.107  53.793  1.00  0.00     0.027 C 
ENDBRANCH   1  20
BRANCH   5  22
HETATM   22  C   UNL     1       6.939  24.807  55.333  1.00  0.00     0.012 A 
HETATM   23  C   UNL     1       6.593  24.068  54.188  1.00  0.00     0.018 A 
HETATM   24  C   UNL     1       7.360  22.978  53.762  1.00  0.00     0.037 A 
HETATM   25  C   UNL     1       8.498  22.594  54.467  1.00  0.00     0.068 A 
HETATM   26  C   UNL     1       8.860  23.317  55.601  1.00  0.00     0.037 A 
HETATM   27  C   UNL     1       8.095  24.421  56.018  1.00  0.00     0.018 A 
BRANCH  25  28
HETATM   28  O   UNL     1       9.163  21.521  53.945  1.00  0.00    -0.356 OA
HETATM   29  C   UNL     1       8.403  20.606  53.165  1.00  0.00     0.210 C 
ENDBRANCH  25  28
ENDBRANCH   5  22
TORSDOF 9
ENDMDL
