MODEL 1
REMARK VINA RESULT:      -8.7      0.000      0.000
REMARK  5 active torsions:
REMARK  status: ('A' for Active; 'I' for Inactive)
REMARK    1  A    between atoms: C_2  and  O_3 
REMARK    2  A    between atoms: O_3  and  C_4 
REMARK    3  A    between atoms: C_8  and  C_9 
REMARK    4  A    between atoms: C_9  and  N_10 
REMARK       I    between atoms: N_10  and  C_11 
REMARK       I    between atoms: C_11  and  N_12 
REMARK    5  A    between atoms: N_12  and  C_13 
ROOT
HETATM    1  N   UNL     1       7.826  28.434  56.756  1.00  0.00    -0.339 N 
HETATM    2  C   UNL     1       7.066  27.332  57.058  1.00  0.00     0.316 C 
HETATM    3  N   UNL     1       7.753  26.167  56.826  1.00  0.00    -0.337 N 
HETATM    4  O   UNL     1       5.915  27.385  57.472  1.00  0.00    -0.247 OA
HETATM    5  H   UNL     1       8.827  28.315  56.789  1.00  0.00     0.164 HD
HETATM    6  H   UNL     1       8.596  26.223  56.272  1.00  0.00     0.164 HD
ENDROOT
BRANCH   1   7
HETATM    7  C   UNL     1       7.318  29.772  56.954  1.00  0.00     0.163 C 
BRANCH   7   8
HETATM    8  C   UNL     1       8.190  30.559  57.894  1.00  0.00    -0.035 A 
HETATM    9  C   UNL     1       9.565  30.667  57.672  1.00  0.00     0.028 A 
HETATM   10  C   UNL     1      10.325  31.401  58.569  1.00  0.00     0.120 A 
HETATM   11  N   UNL     1       9.819  32.017  59.658  1.00  0.00    -0.237 NA
HETATM   12  C   UNL     1       8.495  31.899  59.860  1.00  0.00     0.165 A 
HETATM   13  C   UNL     1       7.647  31.207  59.006  1.00  0.00     0.066 A 
BRANCH  12  14
HETATM   14  O   UNL     1       7.892  32.521  60.928  1.00  0.00    -0.324 OA
BRANCH  14  15
HETATM   15  C   UNL     1       7.735  31.806  62.168  1.00  0.00     0.058 C 
HETATM   16  C   UNL     1       8.669  30.591  62.276  1.00  0.00     0.045 C 
HETATM   17  C   UNL     1       6.271  31.440  62.458  1.00  0.00     0.045 C 
HETATM   18  C   UNL     1       8.179  32.826  63.235  1.00  0.00     0.045 C 
ENDBRANCH  14  15
ENDBRANCH  12  14
ENDBRANCH   7   8
ENDBRANCH   1   7
BRANCH   3  19
HETATM   19  C   UNL     1       7.173  24.871  57.015  1.00  0.00     0.100 A 
HETATM   20  C   UNL     1       6.308  24.237  55.949  1.00  0.00     0.049 A 
HETATM   21  C   UNL     1       7.682  23.664  56.267  1.00  0.00     0.024 A 
HETATM   22  C   UNL     1       6.399  24.658  54.515  1.00  0.00    -0.045 A 
HETATM   23  C   UNL     1       8.574  23.759  55.039  1.00  0.00     0.046 A 
HETATM   24  C   UNL     1       7.681  24.390  53.995  1.00  0.00    -0.051 A 
HETATM   25  C   UNL     1       8.016  24.704  52.688  1.00  0.00     0.007 A 
HETATM   26  C   UNL     1       7.045  25.303  51.884  1.00  0.00     0.001 A 
HETATM   27  C   UNL     1       5.766  25.577  52.391  1.00  0.00     0.001 A 
HETATM   28  C   UNL     1       5.440  25.255  53.712  1.00  0.00     0.008 A 
ENDBRANCH   3  19
TORSDOF 5
ENDMDL
MODEL 2
REMARK VINA RESULT:      -8.7      1.819      9.179
REMARK  5 active torsions:
REMARK  status: ('A' for Active; 'I' for Inactive)
REMARK    1  A    between atoms: C_2  and  O_3 
REMARK    2  A    between atoms: O_3  and  C_4 
REMARK    3  A    between atoms: C_8  and  C_9 
REMARK    4  A    between atoms: C_9  and  N_10 
REMARK       I    between atoms: N_10  and  C_11 
REMARK       I    between atoms: C_11  and  N_12 
REMARK    5  A    between atoms: N_12  and  C_13 
ROOT
HETATM    1  N   UNL     1       7.310  28.749  58.585  1.00  0.00    -0.339 N 
HETATM    2  C   UNL     1       7.955  29.956  58.674  1.00  0.00     0.316 C 
HETATM    3  N   UNL     1       8.520  30.134  59.912  1.00  0.00    -0.337 N 
HETATM    4  O   UNL     1       8.009  30.775  57.766  1.00  0.00    -0.247 OA
HETATM    5  H   UNL     1       7.626  28.020  59.207  1.00  0.00     0.164 HD
HETATM    6  H   UNL     1       8.224  29.517  60.655  1.00  0.00     0.164 HD
ENDROOT
BRANCH   1   7
HETATM    7  C   UNL     1       6.668  28.331  57.359  1.00  0.00     0.163 C 
BRANCH   7   8
HETATM    8  C   UNL     1       7.100  26.948  56.955  1.00  0.00    -0.035 A 
HETATM    9  C   UNL     1       8.135  26.296  57.630  1.00  0.00     0.028 A 
HETATM   10  C   UNL     1       8.497  25.024  57.217  1.00  0.00     0.120 A 
HETATM   11  N   UNL     1       7.914  24.370  56.189  1.00  0.00    -0.237 NA
HETATM   12  C   UNL     1       6.924  25.014  55.547  1.00  0.00     0.165 A 
HETATM   13  C   UNL     1       6.473  26.278  55.901  1.00  0.00     0.066 A 
BRANCH  12  14
HETATM   14  O   UNL     1       6.255  24.408  54.509  1.00  0.00    -0.324 OA
BRANCH  14  15
HETATM   15  C   UNL     1       6.845  24.402  53.195  1.00  0.00     0.058 C 
HETATM   16  C   UNL     1       7.498  23.057  52.843  1.00  0.00     0.045 C 
HETATM   17  C   UNL     1       7.796  25.586  52.969  1.00  0.00     0.045 C 
HETATM   18  C   UNL     1       5.638  24.588  52.254  1.00  0.00     0.045 C 
ENDBRANCH  14  15
ENDBRANCH  12  14
ENDBRANCH   7   8
ENDBRANCH   1   7
BRANCH   3  19
HETATM   19  C   UNL     1       9.212  31.332  60.286  1.00  0.00     0.100 A 
HETATM   20  C   UNL     1       8.460  32.595  60.639  1.00  0.00     0.049 A 
HETATM   21  C   UNL     1       9.218  31.826  61.712  1.00  0.00     0.024 A 
HETATM   22  C   UNL     1       7.032  32.555  61.087  1.00  0.00    -0.045 A 
HETATM   23  C   UNL     1       8.245  31.329  62.770  1.00  0.00     0.046 A 
HETATM   24  C   UNL     1       6.905  31.839  62.293  1.00  0.00    -0.051 A 
HETATM   25  C   UNL     1       5.674  31.651  62.902  1.00  0.00     0.007 A 
HETATM   26  C   UNL     1       4.544  32.193  62.286  1.00  0.00     0.001 A 
HETATM   27  C   UNL     1       4.658  32.906  61.084  1.00  0.00     0.001 A 
HETATM   28  C   UNL     1       5.905  33.088  60.479  1.00  0.00     0.008 A 
ENDBRANCH   3  19
TORSDOF 5
ENDMDL
MODEL 3
REMARK VINA RESULT:      -8.5      6.107      8.780
REMARK  5 active torsions:
REMARK  status: ('A' for Active; 'I' for Inactive)
REMARK    1  A    between atoms: C_2  and  O_3 
REMARK    2  A    between atoms: O_3  and  C_4 
REMARK    3  A    between atoms: C_8  and  C_9 
REMARK    4  A    between atoms: C_9  and  N_10 
REMARK       I    between atoms: N_10  and  C_11 
REMARK       I    between atoms: C_11  and  N_12 
REMARK    5  A    between atoms: N_12  and  C_13 
ROOT
HETATM    1  N   UNL     1       4.116  27.058  53.351  1.00  0.00    -0.339 N 
HETATM    2  C   UNL     1       4.118  28.278  52.722  1.00  0.00     0.316 C 
HETATM    3  N   UNL     1       3.063  28.397  51.852  1.00  0.00    -0.337 N 
HETATM    4  O   UNL     1       4.964  29.144  52.907  1.00  0.00    -0.247 OA
HETATM    5  H   UNL     1       3.225  26.590  53.424  1.00  0.00     0.164 HD
HETATM    6  H   UNL     1       2.567  27.555  51.599  1.00  0.00     0.164 HD
ENDROOT
BRANCH   1   7
HETATM    7  C   UNL     1       5.117  26.722  54.337  1.00  0.00     0.163 C 
BRANCH   7   8
HETATM    8  C   UNL     1       6.121  25.745  53.791  1.00  0.00    -0.035 A 
HETATM    9  C   UNL     1       6.978  26.107  52.750  1.00  0.00     0.028 A 
HETATM   10  C   UNL     1       7.884  25.170  52.280  1.00  0.00     0.120 A 
HETATM   11  N   UNL     1       7.988  23.913  52.764  1.00  0.00    -0.237 NA
HETATM   12  C   UNL     1       7.153  23.579  53.763  1.00  0.00     0.165 A 
HETATM   13  C   UNL     1       6.229  24.454  54.316  1.00  0.00     0.066 A 
BRANCH  12  14
HETATM   14  O   UNL     1       7.212  22.329  54.335  1.00  0.00    -0.324 OA
BRANCH  14  15
HETATM   15  C   UNL     1       8.214  22.054  55.331  1.00  0.00     0.058 C 
HETATM   16  C   UNL     1       8.263  23.119  56.437  1.00  0.00     0.045 C 
HETATM   17  C   UNL     1       9.598  21.788  54.719  1.00  0.00     0.045 C 
HETATM   18  C   UNL     1       7.732  20.740  55.978  1.00  0.00     0.045 C 
ENDBRANCH  14  15
ENDBRANCH  12  14
ENDBRANCH   7   8
ENDBRANCH   1   7
BRANCH   3  19
HETATM   19  C   UNL     1       2.860  29.554  51.031  1.00  0.00     0.100 A 
HETATM   20  C   UNL     1       3.384  29.614  49.615  1.00  0.00     0.049 A 
HETATM   21  C   UNL     1       1.887  29.541  49.878  1.00  0.00     0.024 A 
HETATM   22  C   UNL     1       3.690  28.368  48.842  1.00  0.00    -0.045 A 
HETATM   23  C   UNL     1       1.322  28.262  49.279  1.00  0.00     0.046 A 
HETATM   24  C   UNL     1       2.526  27.599  48.650  1.00  0.00    -0.051 A 
HETATM   25  C   UNL     1       2.555  26.390  47.973  1.00  0.00     0.007 A 
HETATM   26  C   UNL     1       3.781  25.941  47.478  1.00  0.00     0.001 A 
HETATM   27  C   UNL     1       4.948  26.697  47.665  1.00  0.00     0.001 A 
HETATM   28  C   UNL     1       4.905  27.915  48.350  1.00  0.00     0.008 A 
ENDBRANCH   3  19
TORSDOF 5
ENDMDL
MODEL 4
REMARK VINA RESULT:      -8.4      5.892      9.032
REMARK  5 active torsions:
REMARK  status: ('A' for Active; 'I' for Inactive)
REMARK    1  A    between atoms: C_2  and  O_3 
REMARK    2  A    between atoms: O_3  and  C_4 
REMARK    3  A    between atoms: C_8  and  C_9 
REMARK    4  A    between atoms: C_9  and  N_10 
REMARK       I    between atoms: N_10  and  C_11 
REMARK       I    between atoms: C_11  and  N_12 
REMARK    5  A    between atoms: N_12  and  C_13 
ROOT
HETATM    1  N   UNL     1       4.487  26.226  52.488  1.00  0.00    -0.339 N 
HETATM    2  C   UNL     1       5.240  26.738  51.462  1.00  0.00     0.316 C 
HETATM    3  N   UNL     1       4.952  28.061  51.238  1.00  0.00    -0.337 N 
HETATM    4  O   UNL     1       6.057  26.090  50.821  1.00  0.00    -0.247 OA
HETATM    5  H   UNL     1       4.144  26.886  53.170  1.00  0.00     0.164 HD
HETATM    6  H   UNL     1       4.110  28.434  51.653  1.00  0.00     0.164 HD
ENDROOT
BRANCH   1   7
HETATM    7  C   UNL     1       4.645  24.857  52.923  1.00  0.00     0.163 C 
BRANCH   7   8
HETATM    8  C   UNL     1       5.795  24.714  53.882  1.00  0.00    -0.035 A 
HETATM    9  C   UNL     1       5.884  25.522  55.018  1.00  0.00     0.028 A 
HETATM   10  C   UNL     1       6.965  25.353  55.869  1.00  0.00     0.120 A 
HETATM   11  N   UNL     1       7.951  24.454  55.665  1.00  0.00    -0.237 NA
HETATM   12  C   UNL     1       7.853  23.688  54.565  1.00  0.00     0.165 A 
HETATM   13  C   UNL     1       6.798  23.765  53.666  1.00  0.00     0.066 A 
BRANCH  12  14
HETATM   14  O   UNL     1       8.798  22.724  54.297  1.00  0.00    -0.324 OA
BRANCH  14  15
HETATM   15  C   UNL     1       8.502  21.344  54.580  1.00  0.00     0.058 C 
HETATM   16  C   UNL     1       8.353  20.495  53.308  1.00  0.00     0.045 C 
HETATM   17  C   UNL     1       7.307  21.179  55.531  1.00  0.00     0.045 C 
HETATM   18  C   UNL     1       9.759  20.847  55.321  1.00  0.00     0.045 C 
ENDBRANCH  14  15
ENDBRANCH  12  14
ENDBRANCH   7   8
ENDBRANCH   1   7
BRANCH   3  19
HETATM   19  C   UNL     1       5.563  28.824  50.189  1.00  0.00     0.100 A 
HETATM   20  C   UNL     1       5.284  28.521  48.734  1.00  0.00     0.049 A 
HETATM   21  C   UNL     1       4.770  29.807  49.365  1.00  0.00     0.024 A 
HETATM   22  C   UNL     1       4.048  27.790  48.311  1.00  0.00    -0.045 A 
HETATM   23  C   UNL     1       3.249  29.826  49.325  1.00  0.00     0.046 A 
HETATM   24  C   UNL     1       2.893  28.524  48.643  1.00  0.00    -0.051 A 
HETATM   25  C   UNL     1       1.622  28.047  48.365  1.00  0.00     0.007 A 
HETATM   26  C   UNL     1       1.506  26.804  47.740  1.00  0.00     0.001 A 
HETATM   27  C   UNL     1       2.649  26.063  47.407  1.00  0.00     0.001 A 
HETATM   28  C   UNL     1       3.926  26.555  47.693  1.00  0.00     0.008 A 
ENDBRANCH   3  19
TORSDOF 5
ENDMDL
MODEL 5
REMARK VINA RESULT:      -8.3      2.121      9.189
REMARK  5 active torsions:
REMARK  status: ('A' for Active; 'I' for Inactive)
REMARK    1  A    between atoms: C_2  and  O_3 
REMARK    2  A    between atoms: O_3  and  C_4 
REMARK    3  A    between atoms: C_8  and  C_9 
REMARK    4  A    between atoms: C_9  and  N_10 
REMARK       I    between atoms: N_10  and  C_11 
REMARK       I    between atoms: C_11  and  N_12 
REMARK    5  A    between atoms: N_12  and  C_13 
ROOT
HETATM    1  N   UNL     1       8.077  28.869  58.042  1.00  0.00    -0.339 N 
HETATM    2  C   UNL     1       8.924  29.896  58.377  1.00  0.00     0.316 C 
HETATM    3  N   UNL     1       8.608  30.430  59.600  1.00  0.00    -0.337 N 
HETATM    4  O   UNL     1       9.840  30.290  57.665  1.00  0.00    -0.247 OA
HETATM    5  H   UNL     1       7.628  28.388  58.805  1.00  0.00     0.164 HD
HETATM    6  H   UNL     1       7.708  30.198  59.994  1.00  0.00     0.164 HD
ENDROOT
BRANCH   1   7
HETATM    7  C   UNL     1       8.242  28.134  56.809  1.00  0.00     0.163 C 
BRANCH   7   8
HETATM    8  C   UNL     1       7.442  26.860  56.816  1.00  0.00    -0.035 A 
HETATM    9  C   UNL     1       6.048  26.891  56.881  1.00  0.00     0.028 A 
HETATM   10  C   UNL     1       5.357  25.690  56.888  1.00  0.00     0.120 A 
HETATM   11  N   UNL     1       5.952  24.479  56.844  1.00  0.00    -0.237 NA
HETATM   12  C   UNL     1       7.295  24.466  56.787  1.00  0.00     0.165 A 
HETATM   13  C   UNL     1       8.073  25.615  56.751  1.00  0.00     0.066 A 
BRANCH  12  14
HETATM   14  O   UNL     1       7.980  23.275  56.708  1.00  0.00    -0.324 OA
BRANCH  14  15
HETATM   15  C   UNL     1       7.975  22.537  55.472  1.00  0.00     0.058 C 
HETATM   16  C   UNL     1       7.195  23.248  54.357  1.00  0.00     0.045 C 
HETATM   17  C   UNL     1       7.527  21.079  55.656  1.00  0.00     0.045 C 
HETATM   18  C   UNL     1       9.460  22.517  55.055  1.00  0.00     0.045 C 
ENDBRANCH  14  15
ENDBRANCH  12  14
ENDBRANCH   7   8
ENDBRANCH   1   7
BRANCH   3  19
HETATM   19  C   UNL     1       9.306  31.547  60.165  1.00  0.00     0.100 A 
HETATM   20  C   UNL     1       8.561  32.734  60.730  1.00  0.00     0.049 A 
HETATM   21  C   UNL     1       9.324  31.795  61.653  1.00  0.00     0.024 A 
HETATM   22  C   UNL     1       7.136  32.622  61.175  1.00  0.00    -0.045 A 
HETATM   23  C   UNL     1       8.357  31.129  62.620  1.00  0.00     0.046 A 
HETATM   24  C   UNL     1       7.015  31.714  62.245  1.00  0.00    -0.051 A 
HETATM   25  C   UNL     1       5.788  31.429  62.823  1.00  0.00     0.007 A 
HETATM   26  C   UNL     1       4.655  32.068  62.315  1.00  0.00     0.001 A 
HETATM   27  C   UNL     1       4.763  32.973  61.249  1.00  0.00     0.001 A 
HETATM   28  C   UNL     1       6.006  33.252  60.674  1.00  0.00     0.008 A 
ENDBRANCH   3  19
TORSDOF 5
ENDMDL
MODEL 6
REMARK VINA RESULT:      -8.3      2.298      9.209
REMARK  5 active torsions:
REMARK  status: ('A' for Active; 'I' for Inactive)
REMARK    1  A    between atoms: C_2  and  O_3 
REMARK    2  A    between atoms: O_3  and  C_4 
REMARK    3  A    between atoms: C_8  and  C_9 
REMARK    4  A    between atoms: C_9  and  N_10 
REMARK       I    between atoms: N_10  and  C_11 
REMARK       I    between atoms: C_11  and  N_12 
REMARK    5  A    between atoms: N_12  and  C_13 
ROOT
HETATM    1  N   UNL     1       7.622  28.531  58.152  1.00  0.00    -0.339 N 
HETATM    2  C   UNL     1       8.578  29.482  58.402  1.00  0.00     0.316 C 
HETATM    3  N   UNL     1       8.274  30.220  59.519  1.00  0.00    -0.337 N 
HETATM    4  O   UNL     1       9.571  29.657  57.707  1.00  0.00    -0.247 OA
HETATM    5  H   UNL     1       7.076  28.221  58.941  1.00  0.00     0.164 HD
HETATM    6  H   UNL     1       7.333  30.157  59.879  1.00  0.00     0.164 HD
ENDROOT
BRANCH   1   7
HETATM    7  C   UNL     1       7.749  27.614  57.042  1.00  0.00     0.163 C 
BRANCH   7   8
HETATM    8  C   UNL     1       6.609  27.760  56.073  1.00  0.00    -0.035 A 
HETATM    9  C   UNL     1       5.362  28.223  56.500  1.00  0.00     0.028 A 
HETATM   10  C   UNL     1       4.343  28.338  55.568  1.00  0.00     0.120 A 
HETATM   11  N   UNL     1       4.476  28.019  54.263  1.00  0.00    -0.237 NA
HETATM   12  C   UNL     1       5.680  27.570  53.869  1.00  0.00     0.165 A 
HETATM   13  C   UNL     1       6.769  27.444  54.721  1.00  0.00     0.066 A 
BRANCH  12  14
HETATM   14  O   UNL     1       5.912  27.253  52.550  1.00  0.00    -0.324 OA
BRANCH  14  15
HETATM   15  C   UNL     1       5.820  25.880  52.127  1.00  0.00     0.058 C 
HETATM   16  C   UNL     1       4.896  25.041  53.022  1.00  0.00     0.045 C 
HETATM   17  C   UNL     1       7.197  25.226  51.940  1.00  0.00     0.045 C 
HETATM   18  C   UNL     1       5.157  25.972  50.738  1.00  0.00     0.045 C 
ENDBRANCH  14  15
ENDBRANCH  12  14
ENDBRANCH   7   8
ENDBRANCH   1   7
BRANCH   3  19
HETATM   19  C   UNL     1       9.084  31.311  59.974  1.00  0.00     0.100 A 
HETATM   20  C   UNL     1       8.461  32.565  60.543  1.00  0.00     0.049 A 
HETATM   21  C   UNL     1       9.240  31.616  61.443  1.00  0.00     0.024 A 
HETATM   22  C   UNL     1       7.074  32.563  61.107  1.00  0.00    -0.045 A 
HETATM   23  C   UNL     1       8.319  31.053  62.514  1.00  0.00     0.046 A 
HETATM   24  C   UNL     1       6.988  31.708  62.223  1.00  0.00    -0.051 A 
HETATM   25  C   UNL     1       5.798  31.526  62.910  1.00  0.00     0.007 A 
HETATM   26  C   UNL     1       4.668  32.216  62.467  1.00  0.00     0.001 A 
HETATM   27  C   UNL     1       4.741  33.068  61.355  1.00  0.00     0.001 A 
HETATM   28  C   UNL     1       5.947  33.244  60.671  1.00  0.00     0.008 A 
ENDBRANCH   3  19
TORSDOF 5
ENDMDL
MODEL 7
REMARK VINA RESULT:      -8.0      5.263      8.957
REMARK  5 active torsions:
REMARK  status: ('A' for Active; 'I' for Inactive)
REMARK    1  A    between atoms: C_2  and  O_3 
REMARK    2  A    between atoms: O_3  and  C_4 
REMARK    3  A    between atoms: C_8  and  C_9 
REMARK    4  A    between atoms: C_9  and  N_10 
REMARK       I    between atoms: N_10  and  C_11 
REMARK       I    between atoms: C_11  and  N_12 
REMARK    5  A    between atoms: N_12  and  C_13 
ROOT
HETATM    1  N   UNL     1       3.745  27.808  51.933  1.00  0.00    -0.339 N 
HETATM    2  C   UNL     1       4.579  27.631  50.857  1.00  0.00     0.316 C 
HETATM    3  N   UNL     1       3.936  27.006  49.819  1.00  0.00    -0.337 N 
HETATM    4  O   UNL     1       5.753  27.979  50.834  1.00  0.00    -0.247 OA
HETATM    5  H   UNL     1       2.757  27.841  51.737  1.00  0.00     0.164 HD
HETATM    6  H   UNL     1       3.054  26.555  50.018  1.00  0.00     0.164 HD
ENDROOT
BRANCH   1   7
HETATM    7  C   UNL     1       4.199  28.477  53.130  1.00  0.00     0.163 C 
BRANCH   7   8
HETATM    8  C   UNL     1       4.744  27.499  54.135  1.00  0.00    -0.035 A 
HETATM    9  C   UNL     1       4.796  27.823  55.493  1.00  0.00     0.028 A 
HETATM   10  C   UNL     1       5.309  26.888  56.378  1.00  0.00     0.120 A 
HETATM   11  N   UNL     1       5.773  25.675  56.008  1.00  0.00    -0.237 NA
HETATM   12  C   UNL     1       5.720  25.381  54.697  1.00  0.00     0.165 A 
HETATM   13  C   UNL     1       5.202  26.241  53.738  1.00  0.00     0.066 A 
BRANCH  12  14
HETATM   14  O   UNL     1       6.143  24.155  54.238  1.00  0.00    -0.324 OA
BRANCH  14  15
HETATM   15  C   UNL     1       7.524  23.975  53.871  1.00  0.00     0.058 C 
HETATM   16  C   UNL     1       8.446  23.815  55.089  1.00  0.00     0.045 C 
HETATM   17  C   UNL     1       8.024  25.057  52.902  1.00  0.00     0.045 C 
HETATM   18  C   UNL     1       7.526  22.633  53.112  1.00  0.00     0.045 C 
ENDBRANCH  14  15
ENDBRANCH  12  14
ENDBRANCH   7   8
ENDBRANCH   1   7
BRANCH   3  19
HETATM   19  C   UNL     1       4.592  26.657  48.594  1.00  0.00     0.100 A 
HETATM   20  C   UNL     1       3.835  26.602  47.286  1.00  0.00     0.049 A 
HETATM   21  C   UNL     1       4.873  27.689  47.530  1.00  0.00     0.024 A 
HETATM   22  C   UNL     1       2.551  27.347  47.095  1.00  0.00    -0.045 A 
HETATM   23  C   UNL     1       4.205  29.054  47.495  1.00  0.00     0.046 A 
HETATM   24  C   UNL     1       2.754  28.736  47.213  1.00  0.00    -0.051 A 
HETATM   25  C   UNL     1       1.709  29.638  47.089  1.00  0.00     0.007 A 
HETATM   26  C   UNL     1       0.430  29.136  46.843  1.00  0.00     0.001 A 
HETATM   27  C   UNL     1       0.215  27.754  46.727  1.00  0.00     0.001 A 
HETATM   28  C   UNL     1       1.277  26.855  46.853  1.00  0.00     0.008 A 
ENDBRANCH   3  19
TORSDOF 5
ENDMDL
MODEL 8
REMARK VINA RESULT:      -8.0      4.055      7.440
REMARK  5 active torsions:
REMARK  status: ('A' for Active; 'I' for Inactive)
REMARK    1  A    between atoms: C_2  and  O_3 
REMARK    2  A    between atoms: O_3  and  C_4 
REMARK    3  A    between atoms: C_8  and  C_9 
REMARK    4  A    between atoms: C_9  and  N_10 
REMARK       I    between atoms: N_10  and  C_11 
REMARK       I    between atoms: C_11  and  N_12 
REMARK    5  A    between atoms: N_12  and  C_13 
ROOT
HETATM    1  N   UNL     1       4.423  26.164  52.535  1.00  0.00    -0.339 N 
HETATM    2  C   UNL     1       5.233  26.712  51.572  1.00  0.00     0.316 C 
HETATM    3  N   UNL     1       4.819  27.973  51.224  1.00  0.00    -0.337 N 
HETATM    4  O   UNL     1       6.197  26.140  51.080  1.00  0.00    -0.247 OA
HETATM    5  H   UNL     1       3.920  26.811  53.123  1.00  0.00     0.164 HD
HETATM    6  H   UNL     1       3.893  28.257  51.509  1.00  0.00     0.164 HD
ENDROOT
BRANCH   1   7
HETATM    7  C   UNL     1       4.689  24.852  53.080  1.00  0.00     0.163 C 
BRANCH   7   8
HETATM    8  C   UNL     1       5.810  24.889  54.081  1.00  0.00    -0.035 A 
HETATM    9  C   UNL     1       6.922  24.055  53.941  1.00  0.00     0.028 A 
HETATM   10  C   UNL     1       7.928  24.125  54.891  1.00  0.00     0.120 A 
HETATM   11  N   UNL     1       7.898  24.949  55.960  1.00  0.00    -0.237 NA
HETATM   12  C   UNL     1       6.819  25.742  56.084  1.00  0.00     0.165 A 
HETATM   13  C   UNL     1       5.773  25.762  55.172  1.00  0.00     0.066 A 
BRANCH  12  14
HETATM   14  O   UNL     1       6.722  26.634  57.126  1.00  0.00    -0.324 OA
BRANCH  14  15
HETATM   15  C   UNL     1       6.843  28.044  56.864  1.00  0.00     0.058 C 
HETATM   16  C   UNL     1       5.506  28.790  56.988  1.00  0.00     0.045 C 
HETATM   17  C   UNL     1       7.551  28.339  55.533  1.00  0.00     0.045 C 
HETATM   18  C   UNL     1       7.759  28.547  57.998  1.00  0.00     0.045 C 
ENDBRANCH  14  15
ENDBRANCH  12  14
ENDBRANCH   7   8
ENDBRANCH   1   7
BRANCH   3  19
HETATM   19  C   UNL     1       5.462  28.749  50.205  1.00  0.00     0.100 A 
HETATM   20  C   UNL     1       5.308  28.404  48.741  1.00  0.00     0.049 A 
HETATM   21  C   UNL     1       4.679  29.671  49.304  1.00  0.00     0.024 A 
HETATM   22  C   UNL     1       4.149  27.597  48.247  1.00  0.00    -0.045 A 
HETATM   23  C   UNL     1       3.167  29.602  49.154  1.00  0.00     0.046 A 
HETATM   24  C   UNL     1       2.933  28.270  48.479  1.00  0.00    -0.051 A 
HETATM   25  C   UNL     1       1.714  27.717  48.120  1.00  0.00     0.007 A 
HETATM   26  C   UNL     1       1.713  26.458  47.517  1.00  0.00     0.001 A 
HETATM   27  C   UNL     1       2.917  25.776  47.283  1.00  0.00     0.001 A 
HETATM   28  C   UNL     1       4.140  26.345  47.649  1.00  0.00     0.008 A 
ENDBRANCH   3  19
TORSDOF 5
ENDMDL
MODEL 9
REMARK VINA RESULT:      -7.9      2.136      9.229
REMARK  5 active torsions:
REMARK  status: ('A' for Active; 'I' for Inactive)
REMARK    1  A    between atoms: C_2  and  O_3 
REMARK    2  A    between atoms: O_3  and  C_4 
REMARK    3  A    between atoms: C_8  and  C_9 
REMARK    4  A    between atoms: C_9  and  N_10 
REMARK       I    between atoms: N_10  and  C_11 
REMARK       I    between atoms: C_11  and  N_12 
REMARK    5  A    between atoms: N_12  and  C_13 
ROOT
HETATM    1  N   UNL     1       7.419  26.891  58.106  1.00  0.00    -0.339 N 
HETATM    2  C   UNL     1       7.873  28.077  57.585  1.00  0.00     0.316 C 
HETATM    3  N   UNL     1       7.232  29.152  58.147  1.00  0.00    -0.337 N 
HETATM    4  O   UNL     1       8.734  28.161  56.720  1.00  0.00    -0.247 OA
HETATM    5  H   UNL     1       7.014  26.929  59.030  1.00  0.00     0.164 HD
HETATM    6  H   UNL     1       6.386  28.972  58.671  1.00  0.00     0.164 HD
ENDROOT
BRANCH   1   7
HETATM    7  C   UNL     1       7.976  25.626  57.686  1.00  0.00     0.163 C 
BRANCH   7   8
HETATM    8  C   UNL     1       7.358  25.153  56.399  1.00  0.00    -0.035 A 
HETATM    9  C   UNL     1       6.095  25.601  56.004  1.00  0.00     0.028 A 
HETATM   10  C   UNL     1       5.569  25.133  54.811  1.00  0.00     0.120 A 
HETATM   11  N   UNL     1       6.201  24.257  54.001  1.00  0.00    -0.237 NA
HETATM   12  C   UNL     1       7.413  23.832  54.397  1.00  0.00     0.165 A 
HETATM   13  C   UNL     1       8.034  24.260  55.562  1.00  0.00     0.066 A 
BRANCH  12  14
HETATM   14  O   UNL     1       8.139  22.962  53.616  1.00  0.00    -0.324 OA
BRANCH  14  15
HETATM   15  C   UNL     1       8.311  21.599  54.047  1.00  0.00     0.058 C 
HETATM   16  C   UNL     1       8.170  20.590  52.897  1.00  0.00     0.045 C 
HETATM   17  C   UNL     1       7.420  21.241  55.246  1.00  0.00     0.045 C 
HETATM   18  C   UNL     1       9.776  21.552  54.525  1.00  0.00     0.045 C 
ENDBRANCH  14  15
ENDBRANCH  12  14
ENDBRANCH   7   8
ENDBRANCH   1   7
BRANCH   3  19
HETATM   19  C   UNL     1       7.484  30.504  57.747  1.00  0.00     0.100 A 
HETATM   20  C   UNL     1       7.468  31.636  58.749  1.00  0.00     0.049 A 
HETATM   21  C   UNL     1       8.774  31.203  58.097  1.00  0.00     0.024 A 
HETATM   22  C   UNL     1       7.678  31.388  60.211  1.00  0.00    -0.045 A 
HETATM   23  C   UNL     1       9.734  30.694  59.161  1.00  0.00     0.046 A 
HETATM   24  C   UNL     1       8.959  30.854  60.450  1.00  0.00    -0.051 A 
HETATM   25  C   UNL     1       9.385  30.526  61.727  1.00  0.00     0.007 A 
HETATM   26  C   UNL     1       8.505  30.736  62.790  1.00  0.00     0.001 A 
HETATM   27  C   UNL     1       7.225  31.265  62.564  1.00  0.00     0.001 A 
HETATM   28  C   UNL     1       6.807  31.592  61.271  1.00  0.00     0.008 A 
ENDBRANCH   3  19
TORSDOF 5
ENDMDL
MODEL 10
REMARK VINA RESULT:      -7.8      6.048      9.537
REMARK  5 active torsions:
REMARK  status: ('A' for Active; 'I' for Inactive)
REMARK    1  A    between atoms: C_2  and  O_3 
REMARK    2  A    between atoms: O_3  and  C_4 
REMARK    3  A    between atoms: C_8  and  C_9 
REMARK    4  A    between atoms: C_9  and  N_10 
REMARK       I    between atoms: N_10  and  C_11 
REMARK       I    between atoms: C_11  and  N_12 
REMARK    5  A    between atoms: N_12  and  C_13 
ROOT
HETATM    1  N   UNL     1       5.461  26.439  50.596  1.00  0.00    -0.339 N 
HETATM    2  C   UNL     1       4.832  26.630  49.391  1.00  0.00     0.316 C 
HETATM    3  N   UNL     1       5.381  27.679  48.698  1.00  0.00    -0.337 N 
HETATM    4  O   UNL     1       3.892  25.954  48.993  1.00  0.00    -0.247 OA
HETATM    5  H   UNL     1       6.412  26.769  50.666  1.00  0.00     0.164 HD
HETATM    6  H   UNL     1       5.984  28.311  49.205  1.00  0.00     0.164 HD
ENDROOT
BRANCH   1   7
HETATM    7  C   UNL     1       5.072  25.366  51.483  1.00  0.00     0.163 C 
BRANCH   7   8
HETATM    8  C   UNL     1       6.001  25.262  52.661  1.00  0.00    -0.035 A 
HETATM    9  C   UNL     1       6.743  26.366  53.087  1.00  0.00     0.028 A 
HETATM   10  C   UNL     1       7.586  26.218  54.176  1.00  0.00     0.120 A 
HETATM   11  N   UNL     1       7.745  25.061  54.855  1.00  0.00    -0.237 NA
HETATM   12  C   UNL     1       7.028  24.007  54.429  1.00  0.00     0.165 A 
HETATM   13  C   UNL     1       6.139  24.062  53.364  1.00  0.00     0.066 A 
BRANCH  12  14
HETATM   14  O   UNL     1       7.105  22.798  55.082  1.00  0.00    -0.324 OA
BRANCH  14  15
HETATM   15  C   UNL     1       8.085  21.830  54.664  1.00  0.00     0.058 C 
HETATM   16  C   UNL     1       9.522  22.253  55.003  1.00  0.00     0.045 C 
HETATM   17  C   UNL     1       7.930  21.431  53.188  1.00  0.00     0.045 C 
HETATM   18  C   UNL     1       7.756  20.589  55.518  1.00  0.00     0.045 C 
ENDBRANCH  14  15
ENDBRANCH  12  14
ENDBRANCH   7   8
ENDBRANCH   1   7
BRANCH   3  19
HETATM   19  C   UNL     1       4.879  28.122  47.431  1.00  0.00     0.100 A 
HETATM   20  C   UNL     1       3.524  28.781  47.311  1.00  0.00     0.049 A 
HETATM   21  C   UNL     1       4.795  29.587  47.085  1.00  0.00     0.024 A 
HETATM   22  C   UNL     1       2.867  29.437  48.486  1.00  0.00    -0.045 A 
HETATM   23  C   UNL     1       4.891  30.696  48.122  1.00  0.00     0.046 A 
HETATM   24  C   UNL     1       3.637  30.522  48.949  1.00  0.00    -0.051 A 
HETATM   25  C   UNL     1       3.244  31.280  50.040  1.00  0.00     0.007 A 
HETATM   26  C   UNL     1       2.051  30.943  50.682  1.00  0.00     0.001 A 
HETATM   27  C   UNL     1       1.276  29.864  50.231  1.00  0.00     0.001 A 
HETATM   28  C   UNL     1       1.684  29.106  49.130  1.00  0.00     0.008 A 
ENDBRANCH   3  19
TORSDOF 5
ENDMDL
