MODEL 1
REMARK VINA RESULT:      -9.7      0.000      0.000
REMARK  3 active torsions:
REMARK  status: ('A' for Active; 'I' for Inactive)
REMARK    1  A    between atoms: C_3  and  N_4 
REMARK       I    between atoms: N_4  and  C_5 
REMARK    2  A    between atoms: C_5  and  C_6 
REMARK    3  A    between atoms: C_6  and  N_7 
ROOT
HETATM    1  N   UNL     1       7.135  29.165  56.258  1.00  0.00    -0.224 N 
HETATM    2  N   UNL     1       8.444  28.863  56.693  1.00  0.00    -0.180 NA
HETATM    3  C   UNL     1       8.896  29.386  57.796  1.00  0.00     0.153 A 
HETATM    4  C   UNL     1       8.074  30.250  58.591  1.00  0.00     0.028 A 
HETATM    5  C   UNL     1       6.795  30.518  58.172  1.00  0.00     0.116 A 
HETATM    6  N   UNL     1       6.207  31.342  59.088  1.00  0.00    -0.350 N 
HETATM    7  H   UNL     1       5.258  31.687  59.029  1.00  0.00     0.166 HD
HETATM    8  C   UNL     1       7.097  31.606  60.110  1.00  0.00     0.044 A 
HETATM    9  C   UNL     1       8.286  30.928  59.818  1.00  0.00     0.005 A 
HETATM   10  C   UNL     1       6.937  32.382  61.265  1.00  0.00     0.030 A 
HETATM   11  C   UNL     1       8.021  32.464  62.145  1.00  0.00     0.002 A 
HETATM   12  C   UNL     1       9.216  31.799  61.880  1.00  0.00     0.001 A 
HETATM   13  C   UNL     1       9.364  31.029  60.720  1.00  0.00     0.014 A 
HETATM   14  C   UNL     1       6.227  29.969  56.975  1.00  0.00     0.291 A 
HETATM   15  O   UNL     1       5.074  30.189  56.625  1.00  0.00    -0.264 OA
ENDROOT
BRANCH   1  16
HETATM   16  C   UNL     1       6.634  28.378  55.145  1.00  0.00     0.258 C 
BRANCH  16  17
HETATM   17  C   UNL     1       7.319  27.071  54.710  1.00  0.00     0.244 C 
HETATM   18  N   UNL     1       6.948  25.850  55.283  1.00  0.00    -0.320 N 
HETATM   19  C   UNL     1       6.311  25.729  56.586  1.00  0.00     0.159 C 
HETATM   20  O   UNL     1       8.067  27.131  53.722  1.00  0.00    -0.271 OA
BRANCH  18  21
HETATM   21  C   UNL     1       7.368  24.630  54.664  1.00  0.00     0.042 A 
HETATM   22  C   UNL     1       6.728  24.121  53.514  1.00  0.00    -0.035 A 
HETATM   23  C   UNL     1       5.540  24.782  52.867  1.00  0.00     0.050 C 
HETATM   24  C   UNL     1       7.203  22.927  52.939  1.00  0.00     0.009 A 
HETATM   25  C   UNL     1       8.263  22.225  53.512  1.00  0.00     0.001 A 
HETATM   26  C   UNL     1       8.869  22.709  54.667  1.00  0.00     0.002 A 
HETATM   27  C   UNL     1       8.422  23.901  55.240  1.00  0.00     0.030 A 
ENDBRANCH  18  21
ENDBRANCH  16  17
ENDBRANCH   1  16
TORSDOF 3
ENDMDL
MODEL 2
REMARK VINA RESULT:      -9.6      1.746      2.704
REMARK  3 active torsions:
REMARK  status: ('A' for Active; 'I' for Inactive)
REMARK    1  A    between atoms: C_3  and  N_4 
REMARK       I    between atoms: N_4  and  C_5 
REMARK    2  A    between atoms: C_5  and  C_6 
REMARK    3  A    between atoms: C_6  and  N_7 
ROOT
HETATM    1  N   UNL     1       6.636  27.753  54.911  1.00  0.00    -0.224 N 
HETATM    2  N   UNL     1       7.942  28.101  54.504  1.00  0.00    -0.180 NA
HETATM    3  C   UNL     1       8.676  28.861  55.265  1.00  0.00     0.153 A 
HETATM    4  C   UNL     1       8.184  29.334  56.525  1.00  0.00     0.028 A 
HETATM    5  C   UNL     1       6.922  28.969  56.922  1.00  0.00     0.116 A 
HETATM    6  N   UNL     1       6.683  29.521  58.148  1.00  0.00    -0.350 N 
HETATM    7  H   UNL     1       5.829  29.403  58.678  1.00  0.00     0.166 HD
HETATM    8  C   UNL     1       7.790  30.237  58.557  1.00  0.00     0.044 A 
HETATM    9  C   UNL     1       8.753  30.136  57.546  1.00  0.00     0.005 A 
HETATM   10  C   UNL     1       8.012  30.956  59.738  1.00  0.00     0.030 A 
HETATM   11  C   UNL     1       9.252  31.584  59.891  1.00  0.00     0.002 A 
HETATM   12  C   UNL     1      10.229  31.499  58.902  1.00  0.00     0.001 A 
HETATM   13  C   UNL     1       9.994  30.779  57.724  1.00  0.00     0.014 A 
HETATM   14  C   UNL     1       6.063  28.127  56.143  1.00  0.00     0.291 A 
HETATM   15  O   UNL     1       4.949  27.783  56.519  1.00  0.00    -0.264 OA
ENDROOT
BRANCH   1  16
HETATM   16  C   UNL     1       5.969  26.734  54.118  1.00  0.00     0.258 C 
BRANCH  16  17
HETATM   17  C   UNL     1       6.258  25.237  54.323  1.00  0.00     0.244 C 
HETATM   18  N   UNL     1       7.353  24.634  53.696  1.00  0.00    -0.320 N 
HETATM   19  C   UNL     1       7.986  25.156  52.494  1.00  0.00     0.159 C 
HETATM   20  O   UNL     1       5.595  24.651  55.193  1.00  0.00    -0.271 OA
BRANCH  18  21
HETATM   21  C   UNL     1       7.780  23.338  54.129  1.00  0.00     0.042 A 
HETATM   22  C   UNL     1       8.415  23.141  55.374  1.00  0.00    -0.035 A 
HETATM   23  C   UNL     1       8.732  24.263  56.327  1.00  0.00     0.050 C 
HETATM   24  C   UNL     1       8.791  21.839  55.751  1.00  0.00     0.009 A 
HETATM   25  C   UNL     1       8.583  20.755  54.899  1.00  0.00     0.001 A 
HETATM   26  C   UNL     1       7.991  20.956  53.657  1.00  0.00     0.002 A 
HETATM   27  C   UNL     1       7.596  22.239  53.274  1.00  0.00     0.030 A 
ENDBRANCH  18  21
ENDBRANCH  16  17
ENDBRANCH   1  16
TORSDOF 3
ENDMDL
MODEL 3
REMARK VINA RESULT:      -9.5      5.286      8.453
REMARK  3 active torsions:
REMARK  status: ('A' for Active; 'I' for Inactive)
REMARK    1  A    between atoms: C_3  and  N_4 
REMARK       I    between atoms: N_4  and  C_5 
REMARK    2  A    between atoms: C_5  and  C_6 
REMARK    3  A    between atoms: C_6  and  N_7 
ROOT
HETATM    1  N   UNL     1       6.734  26.606  53.274  1.00  0.00    -0.224 N 
HETATM    2  N   UNL     1       7.137  25.938  52.098  1.00  0.00    -0.180 NA
HETATM    3  C   UNL     1       7.517  24.693  52.159  1.00  0.00     0.153 A 
HETATM    4  C   UNL     1       7.510  23.983  53.403  1.00  0.00     0.028 A 
HETATM    5  C   UNL     1       7.092  24.635  54.537  1.00  0.00     0.116 A 
HETATM    6  N   UNL     1       7.157  23.760  55.583  1.00  0.00    -0.350 N 
HETATM    7  H   UNL     1       6.896  23.978  56.536  1.00  0.00     0.166 HD
HETATM    8  C   UNL     1       7.608  22.534  55.133  1.00  0.00     0.044 A 
HETATM    9  C   UNL     1       7.840  22.650  53.758  1.00  0.00     0.005 A 
HETATM   10  C   UNL     1       7.819  21.341  55.834  1.00  0.00     0.030 A 
HETATM   11  C   UNL     1       8.277  20.236  55.110  1.00  0.00     0.002 A 
HETATM   12  C   UNL     1       8.515  20.322  53.739  1.00  0.00     0.001 A 
HETATM   13  C   UNL     1       8.303  21.523  53.051  1.00  0.00     0.014 A 
HETATM   14  C   UNL     1       6.650  25.998  54.543  1.00  0.00     0.291 A 
HETATM   15  O   UNL     1       6.250  26.563  55.554  1.00  0.00    -0.264 OA
ENDROOT
BRANCH   1  16
HETATM   16  C   UNL     1       6.123  27.911  53.090  1.00  0.00     0.258 C 
BRANCH  16  17
HETATM   17  C   UNL     1       4.797  28.080  52.329  1.00  0.00     0.244 C 
HETATM   18  N   UNL     1       4.769  28.721  51.086  1.00  0.00    -0.320 N 
HETATM   19  C   UNL     1       5.782  29.667  50.641  1.00  0.00     0.159 C 
HETATM   20  O   UNL     1       3.812  27.473  52.776  1.00  0.00    -0.271 OA
BRANCH  18  21
HETATM   21  C   UNL     1       3.603  28.603  50.264  1.00  0.00     0.042 A 
HETATM   22  C   UNL     1       3.507  27.632  49.245  1.00  0.00    -0.035 A 
HETATM   23  C   UNL     1       4.618  26.674  48.908  1.00  0.00     0.050 C 
HETATM   24  C   UNL     1       2.325  27.553  48.486  1.00  0.00     0.009 A 
HETATM   25  C   UNL     1       1.272  28.442  48.699  1.00  0.00     0.001 A 
HETATM   26  C   UNL     1       1.383  29.422  49.679  1.00  0.00     0.002 A 
HETATM   27  C   UNL     1       2.541  29.504  50.453  1.00  0.00     0.030 A 
ENDBRANCH  18  21
ENDBRANCH  16  17
ENDBRANCH   1  16
TORSDOF 3
ENDMDL
MODEL 4
REMARK VINA RESULT:      -9.5      1.755      2.522
REMARK  3 active torsions:
REMARK  status: ('A' for Active; 'I' for Inactive)
REMARK    1  A    between atoms: C_3  and  N_4 
REMARK       I    between atoms: N_4  and  C_5 
REMARK    2  A    between atoms: C_5  and  C_6 
REMARK    3  A    between atoms: C_6  and  N_7 
ROOT
HETATM    1  N   UNL     1       7.656  30.479  58.257  1.00  0.00    -0.224 N 
HETATM    2  N   UNL     1       8.580  29.988  59.204  1.00  0.00    -0.180 NA
HETATM    3  C   UNL     1       8.621  30.507  60.398  1.00  0.00     0.153 A 
HETATM    4  C   UNL     1       7.723  31.559  60.773  1.00  0.00     0.028 A 
HETATM    5  C   UNL     1       6.812  32.012  59.852  1.00  0.00     0.116 A 
HETATM    6  N   UNL     1       6.064  32.993  60.436  1.00  0.00    -0.350 N 
HETATM    7  H   UNL     1       5.310  33.493  59.982  1.00  0.00     0.166 HD
HETATM    8  C   UNL     1       6.478  33.176  61.741  1.00  0.00     0.044 A 
HETATM    9  C   UNL     1       7.528  32.281  61.978  1.00  0.00     0.005 A 
HETATM   10  C   UNL     1       6.002  34.053  62.722  1.00  0.00     0.030 A 
HETATM   11  C   UNL     1       6.613  34.013  63.979  1.00  0.00     0.002 A 
HETATM   12  C   UNL     1       7.659  33.132  64.243  1.00  0.00     0.001 A 
HETATM   13  C   UNL     1       8.128  32.261  63.252  1.00  0.00     0.014 A 
HETATM   14  C   UNL     1       6.702  31.481  58.525  1.00  0.00     0.291 A 
HETATM   15  O   UNL     1       5.865  31.871  57.719  1.00  0.00    -0.264 OA
ENDROOT
BRANCH   1  16
HETATM   16  C   UNL     1       7.525  29.708  57.032  1.00  0.00     0.258 C 
BRANCH  16  17
HETATM   17  C   UNL     1       7.978  28.240  56.953  1.00  0.00     0.244 C 
HETATM   18  N   UNL     1       7.047  27.222  56.723  1.00  0.00    -0.320 N 
HETATM   19  C   UNL     1       5.626  27.343  57.017  1.00  0.00     0.159 C 
HETATM   20  O   UNL     1       9.201  28.030  56.921  1.00  0.00    -0.271 OA
BRANCH  18  21
HETATM   21  C   UNL     1       7.512  25.919  56.354  1.00  0.00     0.042 A 
HETATM   22  C   UNL     1       7.565  25.503  55.007  1.00  0.00    -0.035 A 
HETATM   23  C   UNL     1       7.108  26.361  53.857  1.00  0.00     0.050 C 
HETATM   24  C   UNL     1       8.052  24.217  54.707  1.00  0.00     0.009 A 
HETATM   25  C   UNL     1       8.442  23.342  55.720  1.00  0.00     0.001 A 
HETATM   26  C   UNL     1       8.354  23.740  57.050  1.00  0.00     0.002 A 
HETATM   27  C   UNL     1       7.889  25.018  57.364  1.00  0.00     0.030 A 
ENDBRANCH  18  21
ENDBRANCH  16  17
ENDBRANCH   1  16
TORSDOF 3
ENDMDL
MODEL 5
REMARK VINA RESULT:      -9.5      1.516      8.519
REMARK  3 active torsions:
REMARK  status: ('A' for Active; 'I' for Inactive)
REMARK    1  A    between atoms: C_3  and  N_4 
REMARK       I    between atoms: N_4  and  C_5 
REMARK    2  A    between atoms: C_5  and  C_6 
REMARK    3  A    between atoms: C_6  and  N_7 
ROOT
HETATM    1  N   UNL     1       6.306  27.361  56.548  1.00  0.00    -0.224 N 
HETATM    2  N   UNL     1       6.246  26.309  57.487  1.00  0.00    -0.180 NA
HETATM    3  C   UNL     1       6.546  25.096  57.121  1.00  0.00     0.153 A 
HETATM    4  C   UNL     1       6.961  24.816  55.778  1.00  0.00     0.028 A 
HETATM    5  C   UNL     1       7.040  25.850  54.879  1.00  0.00     0.116 A 
HETATM    6  N   UNL     1       7.467  25.348  53.684  1.00  0.00    -0.350 N 
HETATM    7  H   UNL     1       7.622  25.897  52.848  1.00  0.00     0.166 HD
HETATM    8  C   UNL     1       7.677  23.988  53.802  1.00  0.00     0.044 A 
HETATM    9  C   UNL     1       7.361  23.627  55.117  1.00  0.00     0.005 A 
HETATM   10  C   UNL     1       8.123  23.060  52.854  1.00  0.00     0.030 A 
HETATM   11  C   UNL     1       8.254  21.729  53.261  1.00  0.00     0.002 A 
HETATM   12  C   UNL     1       7.949  21.341  54.564  1.00  0.00     0.001 A 
HETATM   13  C   UNL     1       7.500  22.279  55.503  1.00  0.00     0.014 A 
HETATM   14  C   UNL     1       6.736  27.210  55.215  1.00  0.00     0.291 A 
HETATM   15  O   UNL     1       6.839  28.132  54.413  1.00  0.00    -0.264 OA
ENDROOT
BRANCH   1  16
HETATM   16  C   UNL     1       6.169  28.705  57.083  1.00  0.00     0.258 C 
BRANCH  16  17
HETATM   17  C   UNL     1       7.243  29.322  57.996  1.00  0.00     0.244 C 
HETATM   18  N   UNL     1       7.114  30.636  58.456  1.00  0.00    -0.320 N 
HETATM   19  C   UNL     1       6.308  31.651  57.792  1.00  0.00     0.159 C 
HETATM   20  O   UNL     1       8.114  28.555  58.436  1.00  0.00    -0.271 OA
BRANCH  18  21
HETATM   21  C   UNL     1       7.948  31.087  59.529  1.00  0.00     0.042 A 
HETATM   22  C   UNL     1       9.308  31.403  59.331  1.00  0.00    -0.035 A 
HETATM   23  C   UNL     1      10.006  31.260  58.004  1.00  0.00     0.050 C 
HETATM   24  C   UNL     1      10.070  31.861  60.421  1.00  0.00     0.009 A 
HETATM   25  C   UNL     1       9.511  31.967  61.695  1.00  0.00     0.001 A 
HETATM   26  C   UNL     1       8.180  31.619  61.896  1.00  0.00     0.002 A 
HETATM   27  C   UNL     1       7.405  31.179  60.822  1.00  0.00     0.030 A 
ENDBRANCH  18  21
ENDBRANCH  16  17
ENDBRANCH   1  16
TORSDOF 3
ENDMDL
MODEL 6
REMARK VINA RESULT:      -9.4      1.906      8.788
REMARK  3 active torsions:
REMARK  status: ('A' for Active; 'I' for Inactive)
REMARK    1  A    between atoms: C_3  and  N_4 
REMARK       I    between atoms: N_4  and  C_5 
REMARK    2  A    between atoms: C_5  and  C_6 
REMARK    3  A    between atoms: C_6  and  N_7 
ROOT
HETATM    1  N   UNL     1       6.886  26.210  56.110  1.00  0.00    -0.224 N 
HETATM    2  N   UNL     1       6.699  26.198  54.711  1.00  0.00    -0.180 NA
HETATM    3  C   UNL     1       6.985  25.125  54.030  1.00  0.00     0.153 A 
HETATM    4  C   UNL     1       7.467  23.945  54.685  1.00  0.00     0.028 A 
HETATM    5  C   UNL     1       7.621  23.960  56.049  1.00  0.00     0.116 A 
HETATM    6  N   UNL     1       8.072  22.733  56.442  1.00  0.00    -0.350 N 
HETATM    7  H   UNL     1       8.260  22.467  57.400  1.00  0.00     0.166 HD
HETATM    8  C   UNL     1       8.204  21.913  55.339  1.00  0.00     0.044 A 
HETATM    9  C   UNL     1       7.829  22.657  54.214  1.00  0.00     0.005 A 
HETATM   10  C   UNL     1       8.617  20.578  55.254  1.00  0.00     0.030 A 
HETATM   11  C   UNL     1       8.644  19.987  53.987  1.00  0.00     0.002 A 
HETATM   12  C   UNL     1       8.275  20.704  52.850  1.00  0.00     0.001 A 
HETATM   13  C   UNL     1       7.867  22.040  52.949  1.00  0.00     0.014 A 
HETATM   14  C   UNL     1       7.316  25.099  56.863  1.00  0.00     0.291 A 
HETATM   15  O   UNL     1       7.428  25.093  58.083  1.00  0.00    -0.264 OA
ENDROOT
BRANCH   1  16
HETATM   16  C   UNL     1       6.343  27.357  56.817  1.00  0.00     0.258 C 
BRANCH  16  17
HETATM   17  C   UNL     1       7.253  28.351  57.559  1.00  0.00     0.244 C 
HETATM   18  N   UNL     1       7.091  29.729  57.384  1.00  0.00    -0.320 N 
HETATM   19  C   UNL     1       6.461  30.328  56.215  1.00  0.00     0.159 C 
HETATM   20  O   UNL     1       7.997  27.885  58.435  1.00  0.00    -0.271 OA
BRANCH  18  21
HETATM   21  C   UNL     1       7.729  30.630  58.295  1.00  0.00     0.042 A 
HETATM   22  C   UNL     1       9.116  30.883  58.241  1.00  0.00    -0.035 A 
HETATM   23  C   UNL     1      10.043  30.209  57.264  1.00  0.00     0.050 C 
HETATM   24  C   UNL     1       9.681  31.796  59.151  1.00  0.00     0.009 A 
HETATM   25  C   UNL     1       8.899  32.418  60.124  1.00  0.00     0.001 A 
HETATM   26  C   UNL     1       7.538  32.140  60.199  1.00  0.00     0.002 A 
HETATM   27  C   UNL     1       6.959  31.250  59.293  1.00  0.00     0.030 A 
ENDBRANCH  18  21
ENDBRANCH  16  17
ENDBRANCH   1  16
TORSDOF 3
ENDMDL
MODEL 7
REMARK VINA RESULT:      -9.3      1.490      8.665
REMARK  3 active torsions:
REMARK  status: ('A' for Active; 'I' for Inactive)
REMARK    1  A    between atoms: C_3  and  N_4 
REMARK       I    between atoms: N_4  and  C_5 
REMARK    2  A    between atoms: C_5  and  C_6 
REMARK    3  A    between atoms: C_6  and  N_7 
ROOT
HETATM    1  N   UNL     1       6.590  26.385  55.338  1.00  0.00    -0.224 N 
HETATM    2  N   UNL     1       6.802  25.695  56.550  1.00  0.00    -0.180 NA
HETATM    3  C   UNL     1       7.156  24.441  56.528  1.00  0.00     0.153 A 
HETATM    4  C   UNL     1       7.354  23.756  55.285  1.00  0.00     0.028 A 
HETATM    5  C   UNL     1       7.169  24.444  54.111  1.00  0.00     0.116 A 
HETATM    6  N   UNL     1       7.429  23.597  53.073  1.00  0.00    -0.350 N 
HETATM    7  H   UNL     1       7.378  23.850  52.094  1.00  0.00     0.166 HD
HETATM    8  C   UNL     1       7.792  22.359  53.565  1.00  0.00     0.044 A 
HETATM    9  C   UNL     1       7.751  22.433  54.962  1.00  0.00     0.005 A 
HETATM   10  C   UNL     1       8.157  21.191  52.884  1.00  0.00     0.030 A 
HETATM   11  C   UNL     1       8.492  20.072  53.652  1.00  0.00     0.002 A 
HETATM   12  C   UNL     1       8.461  20.117  55.044  1.00  0.00     0.001 A 
HETATM   13  C   UNL     1       8.091  21.291  55.713  1.00  0.00     0.014 A 
HETATM   14  C   UNL     1       6.793  25.826  54.060  1.00  0.00     0.291 A 
HETATM   15  O   UNL     1       6.659  26.440  53.008  1.00  0.00    -0.264 OA
ENDROOT
BRANCH   1  16
HETATM   16  C   UNL     1       6.413  27.824  55.443  1.00  0.00     0.258 C 
BRANCH  16  17
HETATM   17  C   UNL     1       6.481  28.546  56.801  1.00  0.00     0.244 C 
HETATM   18  N   UNL     1       7.460  29.515  57.040  1.00  0.00    -0.320 N 
HETATM   19  C   UNL     1       8.721  29.589  56.315  1.00  0.00     0.159 C 
HETATM   20  O   UNL     1       5.537  28.359  57.583  1.00  0.00    -0.271 OA
BRANCH  18  21
HETATM   21  C   UNL     1       7.326  30.380  58.173  1.00  0.00     0.042 A 
HETATM   22  C   UNL     1       6.402  31.446  58.190  1.00  0.00    -0.035 A 
HETATM   23  C   UNL     1       5.516  31.790  57.022  1.00  0.00     0.050 C 
HETATM   24  C   UNL     1       6.302  32.247  59.342  1.00  0.00     0.009 A 
HETATM   25  C   UNL     1       7.128  32.027  60.444  1.00  0.00     0.001 A 
HETATM   26  C   UNL     1       8.064  30.999  60.412  1.00  0.00     0.002 A 
HETATM   27  C   UNL     1       8.164  30.184  59.283  1.00  0.00     0.030 A 
ENDBRANCH  18  21
ENDBRANCH  16  17
ENDBRANCH   1  16
TORSDOF 3
ENDMDL
MODEL 8
REMARK VINA RESULT:      -8.8      5.087      8.474
REMARK  3 active torsions:
REMARK  status: ('A' for Active; 'I' for Inactive)
REMARK    1  A    between atoms: C_3  and  N_4 
REMARK       I    between atoms: N_4  and  C_5 
REMARK    2  A    between atoms: C_5  and  C_6 
REMARK    3  A    between atoms: C_6  and  N_7 
ROOT
HETATM    1  N   UNL     1       6.291  26.519  53.499  1.00  0.00    -0.224 N 
HETATM    2  N   UNL     1       6.471  26.490  54.899  1.00  0.00    -0.180 NA
HETATM    3  C   UNL     1       6.888  25.398  55.475  1.00  0.00     0.153 A 
HETATM    4  C   UNL     1       7.188  24.229  54.703  1.00  0.00     0.028 A 
HETATM    5  C   UNL     1       7.033  24.276  53.340  1.00  0.00     0.116 A 
HETATM    6  N   UNL     1       7.390  23.063  52.825  1.00  0.00    -0.350 N 
HETATM    7  H   UNL     1       7.381  22.827  51.842  1.00  0.00     0.166 HD
HETATM    8  C   UNL     1       7.788  22.226  53.849  1.00  0.00     0.044 A 
HETATM    9  C   UNL     1       7.667  22.939  55.047  1.00  0.00     0.005 A 
HETATM   10  C   UNL     1       8.248  20.904  53.804  1.00  0.00     0.030 A 
HETATM   11  C   UNL     1       8.597  20.297  55.015  1.00  0.00     0.002 A 
HETATM   12  C   UNL     1       8.488  20.984  56.222  1.00  0.00     0.001 A 
HETATM   13  C   UNL     1       8.023  22.305  56.254  1.00  0.00     0.014 A 
HETATM   14  C   UNL     1       6.591  25.445  52.638  1.00  0.00     0.291 A 
HETATM   15  O   UNL     1       6.484  25.487  51.418  1.00  0.00    -0.264 OA
ENDROOT
BRANCH   1  16
HETATM   16  C   UNL     1       6.037  27.825  52.915  1.00  0.00     0.258 C 
BRANCH  16  17
HETATM   17  C   UNL     1       4.724  28.134  52.173  1.00  0.00     0.244 C 
HETATM   18  N   UNL     1       4.748  28.638  50.869  1.00  0.00    -0.320 N 
HETATM   19  C   UNL     1       5.883  29.348  50.296  1.00  0.00     0.159 C 
HETATM   20  O   UNL     1       3.673  27.752  52.710  1.00  0.00    -0.271 OA
BRANCH  18  21
HETATM   21  C   UNL     1       3.543  28.633  50.095  1.00  0.00     0.042 A 
HETATM   22  C   UNL     1       3.239  27.586  49.200  1.00  0.00    -0.035 A 
HETATM   23  C   UNL     1       4.157  26.418  48.950  1.00  0.00     0.050 C 
HETATM   24  C   UNL     1       2.029  27.628  48.484  1.00  0.00     0.009 A 
HETATM   25  C   UNL     1       1.152  28.704  48.617  1.00  0.00     0.001 A 
HETATM   26  C   UNL     1       1.471  29.754  49.473  1.00  0.00     0.002 A 
HETATM   27  C   UNL     1       2.659  29.719  50.203  1.00  0.00     0.030 A 
ENDBRANCH  18  21
ENDBRANCH  16  17
ENDBRANCH   1  16
TORSDOF 3
ENDMDL
MODEL 9
REMARK VINA RESULT:      -8.7      1.883      8.200
REMARK  3 active torsions:
REMARK  status: ('A' for Active; 'I' for Inactive)
REMARK    1  A    between atoms: C_3  and  N_4 
REMARK       I    between atoms: N_4  and  C_5 
REMARK    2  A    between atoms: C_5  and  C_6 
REMARK    3  A    between atoms: C_6  and  N_7 
ROOT
HETATM    1  N   UNL     1       5.881  26.249  55.479  1.00  0.00    -0.224 N 
HETATM    2  N   UNL     1       5.917  25.387  56.596  1.00  0.00    -0.180 NA
HETATM    3  C   UNL     1       6.395  24.182  56.469  1.00  0.00     0.153 A 
HETATM    4  C   UNL     1       6.909  23.725  55.211  1.00  0.00     0.028 A 
HETATM    5  C   UNL     1       6.893  24.580  54.138  1.00  0.00     0.116 A 
HETATM    6  N   UNL     1       7.441  23.935  53.067  1.00  0.00    -0.350 N 
HETATM    7  H   UNL     1       7.562  24.340  52.148  1.00  0.00     0.166 HD
HETATM    8  C   UNL     1       7.825  22.662  53.441  1.00  0.00     0.044 A 
HETATM    9  C   UNL     1       7.497  22.504  54.793  1.00  0.00     0.005 A 
HETATM   10  C   UNL     1       8.438  21.650  52.692  1.00  0.00     0.030 A 
HETATM   11  C   UNL     1       8.727  20.447  53.344  1.00  0.00     0.002 A 
HETATM   12  C   UNL     1       8.413  20.262  54.689  1.00  0.00     0.001 A 
HETATM   13  C   UNL     1       7.797  21.282  55.425  1.00  0.00     0.014 A 
HETATM   14  C   UNL     1       6.393  25.922  54.208  1.00  0.00     0.291 A 
HETATM   15  O   UNL     1       6.409  26.688  53.252  1.00  0.00    -0.264 OA
ENDROOT
BRANCH   1  16
HETATM   16  C   UNL     1       5.539  27.635  55.752  1.00  0.00     0.258 C 
BRANCH  16  17
HETATM   17  C   UNL     1       6.605  28.658  56.182  1.00  0.00     0.244 C 
HETATM   18  N   UNL     1       7.537  28.338  57.174  1.00  0.00    -0.320 N 
HETATM   19  C   UNL     1       7.324  27.310  58.183  1.00  0.00     0.159 C 
HETATM   20  O   UNL     1       6.706  29.685  55.493  1.00  0.00    -0.271 OA
BRANCH  18  21
HETATM   21  C   UNL     1       8.690  29.169  57.344  1.00  0.00     0.042 A 
HETATM   22  C   UNL     1       8.659  30.327  58.150  1.00  0.00    -0.035 A 
HETATM   23  C   UNL     1       7.422  30.808  58.860  1.00  0.00     0.050 C 
HETATM   24  C   UNL     1       9.832  31.090  58.295  1.00  0.00     0.009 A 
HETATM   25  C   UNL     1      11.004  30.742  57.625  1.00  0.00     0.001 A 
HETATM   26  C   UNL     1      11.022  29.621  56.801  1.00  0.00     0.002 A 
HETATM   27  C   UNL     1       9.873  28.843  56.660  1.00  0.00     0.030 A 
ENDBRANCH  18  21
ENDBRANCH  16  17
ENDBRANCH   1  16
TORSDOF 3
ENDMDL
MODEL 10
REMARK VINA RESULT:      -8.4      4.161     10.382
REMARK  3 active torsions:
REMARK  status: ('A' for Active; 'I' for Inactive)
REMARK    1  A    between atoms: C_3  and  N_4 
REMARK       I    between atoms: N_4  and  C_5 
REMARK    2  A    between atoms: C_5  and  C_6 
REMARK    3  A    between atoms: C_6  and  N_7 
ROOT
HETATM    1  N   UNL     1       6.149  32.451  60.450  1.00  0.00    -0.224 N 
HETATM    2  N   UNL     1       7.489  32.665  60.836  1.00  0.00    -0.180 NA
HETATM    3  C   UNL     1       8.455  32.133  60.143  1.00  0.00     0.153 A 
HETATM    4  C   UNL     1       8.176  31.347  58.977  1.00  0.00     0.028 A 
HETATM    5  C   UNL     1       6.870  31.166  58.597  1.00  0.00     0.116 A 
HETATM    6  N   UNL     1       6.855  30.405  57.463  1.00  0.00    -0.350 N 
HETATM    7  H   UNL     1       6.019  30.130  56.963  1.00  0.00     0.166 HD
HETATM    8  C   UNL     1       8.150  30.098  57.095  1.00  0.00     0.044 A 
HETATM    9  C   UNL     1       9.005  30.680  58.039  1.00  0.00     0.005 A 
HETATM   10  C   UNL     1       8.625  29.359  56.005  1.00  0.00     0.030 A 
HETATM   11  C   UNL     1      10.010  29.215  55.874  1.00  0.00     0.002 A 
HETATM   12  C   UNL     1      10.884  29.785  56.797  1.00  0.00     0.001 A 
HETATM   13  C   UNL     1      10.395  30.520  57.885  1.00  0.00     0.014 A 
HETATM   14  C   UNL     1       5.758  31.731  59.304  1.00  0.00     0.291 A 
HETATM   15  O   UNL     1       4.597  31.588  58.940  1.00  0.00    -0.264 OA
ENDROOT
BRANCH   1  16
HETATM   16  C   UNL     1       5.150  33.250  61.139  1.00  0.00     0.258 C 
BRANCH  16  17
HETATM   17  C   UNL     1       5.085  33.310  62.675  1.00  0.00     0.244 C 
HETATM   18  N   UNL     1       5.229  34.530  63.344  1.00  0.00    -0.320 N 
HETATM   19  C   UNL     1       5.901  35.690  62.778  1.00  0.00     0.159 C 
HETATM   20  O   UNL     1       4.727  32.277  63.263  1.00  0.00    -0.271 OA
BRANCH  18  21
HETATM   21  C   UNL     1       4.869  34.615  64.728  1.00  0.00     0.042 A 
HETATM   22  C   UNL     1       5.759  34.230  65.753  1.00  0.00    -0.035 A 
HETATM   23  C   UNL     1       7.130  33.667  65.489  1.00  0.00     0.050 C 
HETATM   24  C   UNL     1       5.353  34.358  67.094  1.00  0.00     0.009 A 
HETATM   25  C   UNL     1       4.077  34.819  67.419  1.00  0.00     0.001 A 
HETATM   26  C   UNL     1       3.188  35.162  66.406  1.00  0.00     0.002 A 
HETATM   27  C   UNL     1       3.580  35.058  65.070  1.00  0.00     0.030 A 
ENDBRANCH  18  21
ENDBRANCH  16  17
ENDBRANCH   1  16
TORSDOF 3
ENDMDL
