MODEL 1
REMARK VINA RESULT:     -10.9      0.000      0.000
REMARK  7 active torsions:
REMARK  status: ('A' for Active; 'I' for Inactive)
REMARK    1  A    between atoms: N_5  and  C_6 
REMARK    2  A    between atoms: C_14  and  N_15 
REMARK       I    between atoms: N_15  and  C_16 
REMARK    3  A    between atoms: C_16  and  C_17 
REMARK    4  A    between atoms: C_17  and  C_18 
REMARK    5  A    between atoms: C_18  and  C_19 
REMARK    6  A    between atoms: C_19  and  C_20 
REMARK       I    between atoms: C_20  and  N_21 
REMARK    7  A    between atoms: N_24  and  C_25 
ROOT
HETATM    1  C   UNL     1       4.762  30.315  57.579  1.00  0.00     0.112 C 
ENDROOT
BRANCH   1   2
HETATM    2  C   UNL     1       5.330  31.703  57.457  1.00  0.00     0.223 C 
HETATM    3  N   UNL     1       6.200  32.256  58.328  1.00  0.00    -0.321 N 
HETATM    4  H   UNL     1       6.413  33.200  57.993  1.00  0.00     0.169 HD
HETATM    5  O   UNL     1       4.985  32.411  56.502  1.00  0.00    -0.273 OA
BRANCH   3   6
HETATM    6  C   UNL     1       6.832  32.013  59.517  1.00  0.00     0.129 C 
HETATM    7  C   UNL     1       8.000  31.557  60.006  1.00  0.00     0.057 C 
HETATM    8  C   UNL     1       9.249  31.139  59.303  1.00  0.00     0.072 C 
HETATM    9  N   UNL     1       8.010  31.524  61.420  1.00  0.00    -0.289 N 
HETATM   10  C   UNL     1       8.690  30.478  62.182  1.00  0.00     0.178 C 
HETATM   11  N   UNL     1       6.704  31.889  61.867  1.00  0.00    -0.217 N 
HETATM   12  C   UNL     1       6.006  32.323  60.741  1.00  0.00     0.295 C 
HETATM   13  O   UNL     1       4.912  32.868  60.663  1.00  0.00    -0.264 OA
BRANCH  11  14
HETATM   14  C   UNL     1       6.572  32.531  63.126  1.00  0.00     0.060 A 
HETATM   15  C   UNL     1       5.306  32.656  63.712  1.00  0.00     0.031 A 
HETATM   16  C   UNL     1       5.143  33.328  64.926  1.00  0.00     0.002 A 
HETATM   17  C   UNL     1       6.246  33.887  65.567  1.00  0.00     0.000 A 
HETATM   18  C   UNL     1       7.509  33.785  64.988  1.00  0.00     0.002 A 
HETATM   19  C   UNL     1       7.671  33.119  63.768  1.00  0.00     0.031 A 
ENDBRANCH  11  14
ENDBRANCH   3   6
ENDBRANCH   1   2
BRANCH   1  20
HETATM   20  C   UNL     1       5.594  29.210  56.857  1.00  0.00    -0.031 C 
HETATM   21  C   UNL     1       6.232  29.867  55.617  1.00  0.00     0.016 C 
HETATM   22  C   UNL     1       6.747  28.742  57.776  1.00  0.00     0.016 C 
BRANCH  20  23
HETATM   23  C   UNL     1       4.704  27.999  56.476  1.00  0.00     0.112 C 
BRANCH  23  24
HETATM   24  C   UNL     1       5.006  27.331  55.138  1.00  0.00     0.220 C 
HETATM   25  N   UNL     1       5.971  26.336  55.081  1.00  0.00    -0.349 N 
HETATM   26  C   UNL     1       6.274  25.754  53.766  1.00  0.00     0.145 C 
HETATM   27  C   UNL     1       6.417  25.510  56.215  1.00  0.00     0.145 C 
HETATM   28  C   UNL     1       7.754  25.349  53.639  1.00  0.00     0.143 C 
HETATM   29  N   UNL     1       8.161  24.457  54.751  1.00  0.00    -0.375 N 
HETATM   30  C   UNL     1       7.879  25.040  56.077  1.00  0.00     0.143 C 
HETATM   31  O   UNL     1       4.432  27.732  54.122  1.00  0.00    -0.273 OA
BRANCH  29  32
HETATM   32  C   UNL     1       8.052  23.080  54.529  1.00  0.00     0.069 A 
HETATM   33  C   UNL     1       7.999  22.097  55.536  1.00  0.00     0.142 A 
HETATM   34  F   UNL     1       8.013  22.437  56.836  1.00  0.00    -0.204 F 
HETATM   35  C   UNL     1       7.902  20.733  55.245  1.00  0.00     0.044 A 
HETATM   36  C   UNL     1       7.876  20.299  53.925  1.00  0.00     0.003 A 
HETATM   37  C   UNL     1       7.953  21.235  52.902  1.00  0.00     0.002 A 
HETATM   38  C   UNL     1       8.044  22.600  53.204  1.00  0.00     0.032 A 
ENDBRANCH  29  32
ENDBRANCH  23  24
ENDBRANCH  20  23
ENDBRANCH   1  20
TORSDOF 7
ENDMDL
MODEL 2
REMARK VINA RESULT:     -10.4      2.029      2.713
REMARK  7 active torsions:
REMARK  status: ('A' for Active; 'I' for Inactive)
REMARK    1  A    between atoms: N_5  and  C_6 
REMARK    2  A    between atoms: C_14  and  N_15 
REMARK       I    between atoms: N_15  and  C_16 
REMARK    3  A    between atoms: C_16  and  C_17 
REMARK    4  A    between atoms: C_17  and  C_18 
REMARK    5  A    between atoms: C_18  and  C_19 
REMARK    6  A    between atoms: C_19  and  C_20 
REMARK       I    between atoms: C_20  and  N_21 
REMARK    7  A    between atoms: N_24  and  C_25 
ROOT
HETATM    1  C   UNL     1       5.350  31.639  56.747  1.00  0.00     0.112 C 
ENDROOT
BRANCH   1   2
HETATM    2  C   UNL     1       4.062  31.967  57.453  1.00  0.00     0.223 C 
HETATM    3  N   UNL     1       3.974  32.376  58.737  1.00  0.00    -0.321 N 
HETATM    4  H   UNL     1       2.982  32.526  58.944  1.00  0.00     0.169 HD
HETATM    5  O   UNL     1       2.994  31.858  56.838  1.00  0.00    -0.273 OA
BRANCH   3   6
HETATM    6  C   UNL     1       4.738  32.590  59.852  1.00  0.00     0.129 C 
HETATM    7  C   UNL     1       5.970  32.349  60.337  1.00  0.00     0.057 C 
HETATM    8  C   UNL     1       7.155  31.704  59.698  1.00  0.00     0.072 C 
HETATM    9  N   UNL     1       6.130  32.840  61.654  1.00  0.00    -0.289 N 
HETATM   10  C   UNL     1       6.933  32.150  62.663  1.00  0.00     0.178 C 
HETATM   11  N   UNL     1       4.864  33.340  62.083  1.00  0.00    -0.217 N 
HETATM   12  C   UNL     1       4.033  33.328  60.964  1.00  0.00     0.295 C 
HETATM   13  O   UNL     1       2.913  33.803  60.817  1.00  0.00    -0.264 OA
BRANCH  11  14
HETATM   14  C   UNL     1       4.838  34.401  63.026  1.00  0.00     0.060 A 
HETATM   15  C   UNL     1       4.023  34.300  64.160  1.00  0.00     0.031 A 
HETATM   16  C   UNL     1       3.942  35.351  65.077  1.00  0.00     0.002 A 
HETATM   17  C   UNL     1       4.672  36.519  64.867  1.00  0.00     0.000 A 
HETATM   18  C   UNL     1       5.473  36.639  63.734  1.00  0.00     0.002 A 
HETATM   19  C   UNL     1       5.549  35.590  62.812  1.00  0.00     0.031 A 
ENDBRANCH  11  14
ENDBRANCH   3   6
ENDBRANCH   1   2
BRANCH   1  20
HETATM   20  C   UNL     1       5.549  30.124  56.436  1.00  0.00    -0.031 C 
HETATM   21  C   UNL     1       4.837  29.338  57.554  1.00  0.00     0.016 C 
HETATM   22  C   UNL     1       4.848  29.769  55.104  1.00  0.00     0.016 C 
BRANCH  20  23
HETATM   23  C   UNL     1       7.055  29.764  56.347  1.00  0.00     0.112 C 
BRANCH  23  24
HETATM   24  C   UNL     1       7.488  28.482  57.051  1.00  0.00     0.220 C 
HETATM   25  N   UNL     1       7.201  27.258  56.464  1.00  0.00    -0.349 N 
HETATM   26  C   UNL     1       7.584  26.043  57.198  1.00  0.00     0.145 C 
HETATM   27  C   UNL     1       6.947  27.033  55.032  1.00  0.00     0.145 C 
HETATM   28  C   UNL     1       6.596  24.887  56.961  1.00  0.00     0.143 C 
HETATM   29  N   UNL     1       6.413  24.630  55.512  1.00  0.00    -0.375 N 
HETATM   30  C   UNL     1       6.008  25.838  54.769  1.00  0.00     0.143 C 
HETATM   31  O   UNL     1       8.028  28.556  58.157  1.00  0.00    -0.273 OA
BRANCH  29  32
HETATM   32  C   UNL     1       7.247  23.669  54.930  1.00  0.00     0.069 A 
HETATM   33  C   UNL     1       7.198  23.259  53.584  1.00  0.00     0.142 A 
HETATM   34  F   UNL     1       6.331  23.818  52.722  1.00  0.00    -0.204 F 
HETATM   35  C   UNL     1       8.054  22.282  53.068  1.00  0.00     0.044 A 
HETATM   36  C   UNL     1       8.984  21.660  53.893  1.00  0.00     0.003 A 
HETATM   37  C   UNL     1       9.046  22.016  55.234  1.00  0.00     0.002 A 
HETATM   38  C   UNL     1       8.187  23.001  55.740  1.00  0.00     0.032 A 
ENDBRANCH  29  32
ENDBRANCH  23  24
ENDBRANCH  20  23
ENDBRANCH   1  20
TORSDOF 7
ENDMDL
MODEL 3
REMARK VINA RESULT:     -10.4      2.022      2.789
REMARK  7 active torsions:
REMARK  status: ('A' for Active; 'I' for Inactive)
REMARK    1  A    between atoms: N_5  and  C_6 
REMARK    2  A    between atoms: C_14  and  N_15 
REMARK       I    between atoms: N_15  and  C_16 
REMARK    3  A    between atoms: C_16  and  C_17 
REMARK    4  A    between atoms: C_17  and  C_18 
REMARK    5  A    between atoms: C_18  and  C_19 
REMARK    6  A    between atoms: C_19  and  C_20 
REMARK       I    between atoms: C_20  and  N_21 
REMARK    7  A    between atoms: N_24  and  C_25 
ROOT
HETATM    1  C   UNL     1       7.272  30.648  57.907  1.00  0.00     0.112 C 
ENDROOT
BRANCH   1   2
HETATM    2  C   UNL     1       7.768  30.670  59.328  1.00  0.00     0.223 C 
HETATM    3  N   UNL     1       7.193  31.368  60.330  1.00  0.00    -0.321 N 
HETATM    4  H   UNL     1       7.739  31.194  61.179  1.00  0.00     0.169 HD
HETATM    5  O   UNL     1       8.776  30.016  59.622  1.00  0.00    -0.273 OA
BRANCH   3   6
HETATM    6  C   UNL     1       6.188  32.262  60.579  1.00  0.00     0.129 C 
HETATM    7  C   UNL     1       4.973  32.624  60.123  1.00  0.00     0.057 C 
HETATM    8  C   UNL     1       4.130  32.038  59.039  1.00  0.00     0.072 C 
HETATM    9  N   UNL     1       4.435  33.713  60.847  1.00  0.00    -0.289 N 
HETATM   10  C   UNL     1       3.626  34.757  60.219  1.00  0.00     0.178 C 
HETATM   11  N   UNL     1       5.432  34.151  61.770  1.00  0.00    -0.217 N 
HETATM   12  C   UNL     1       6.455  33.205  61.726  1.00  0.00     0.295 C 
HETATM   13  O   UNL     1       7.438  33.083  62.448  1.00  0.00    -0.264 OA
BRANCH  11  14
HETATM   14  C   UNL     1       5.014  34.749  62.988  1.00  0.00     0.060 A 
HETATM   15  C   UNL     1       4.234  34.013  63.889  1.00  0.00     0.031 A 
HETATM   16  C   UNL     1       3.769  34.595  65.071  1.00  0.00     0.002 A 
HETATM   17  C   UNL     1       4.075  35.923  65.363  1.00  0.00     0.000 A 
HETATM   18  C   UNL     1       4.835  36.670  64.468  1.00  0.00     0.002 A 
HETATM   19  C   UNL     1       5.295  36.090  63.281  1.00  0.00     0.031 A 
ENDBRANCH  11  14
ENDBRANCH   3   6
ENDBRANCH   1   2
BRANCH   1  20
HETATM   20  C   UNL     1       7.652  29.363  57.109  1.00  0.00    -0.031 C 
HETATM   21  C   UNL     1       9.142  29.490  56.737  1.00  0.00     0.016 C 
HETATM   22  C   UNL     1       7.508  28.122  58.021  1.00  0.00     0.016 C 
BRANCH  20  23
HETATM   23  C   UNL     1       6.756  29.197  55.855  1.00  0.00     0.112 C 
BRANCH  23  24
HETATM   24  C   UNL     1       5.854  27.967  55.823  1.00  0.00     0.220 C 
HETATM   25  N   UNL     1       6.264  26.846  55.118  1.00  0.00    -0.349 N 
HETATM   26  C   UNL     1       5.344  25.700  55.063  1.00  0.00     0.145 C 
HETATM   27  C   UNL     1       7.657  26.508  54.780  1.00  0.00     0.145 C 
HETATM   28  C   UNL     1       5.447  24.938  53.729  1.00  0.00     0.143 C 
HETATM   29  N   UNL     1       6.848  24.543  53.446  1.00  0.00    -0.375 N 
HETATM   30  C   UNL     1       7.777  25.690  53.479  1.00  0.00     0.143 C 
HETATM   31  O   UNL     1       4.750  28.017  56.372  1.00  0.00    -0.273 OA
BRANCH  29  32
HETATM   32  C   UNL     1       7.249  23.276  53.883  1.00  0.00     0.069 A 
HETATM   33  C   UNL     1       7.376  22.883  55.229  1.00  0.00     0.142 A 
HETATM   34  F   UNL     1       7.071  23.728  56.228  1.00  0.00    -0.204 F 
HETATM   35  C   UNL     1       7.795  21.601  55.598  1.00  0.00     0.044 A 
HETATM   36  C   UNL     1       8.124  20.666  54.624  1.00  0.00     0.003 A 
HETATM   37  C   UNL     1       8.037  21.022  53.284  1.00  0.00     0.002 A 
HETATM   38  C   UNL     1       7.611  22.308  52.925  1.00  0.00     0.032 A 
ENDBRANCH  29  32
ENDBRANCH  23  24
ENDBRANCH  20  23
ENDBRANCH   1  20
TORSDOF 7
ENDMDL
MODEL 4
REMARK VINA RESULT:     -10.4      3.211     11.509
REMARK  7 active torsions:
REMARK  status: ('A' for Active; 'I' for Inactive)
REMARK    1  A    between atoms: N_5  and  C_6 
REMARK    2  A    between atoms: C_14  and  N_15 
REMARK       I    between atoms: N_15  and  C_16 
REMARK    3  A    between atoms: C_16  and  C_17 
REMARK    4  A    between atoms: C_17  and  C_18 
REMARK    5  A    between atoms: C_18  and  C_19 
REMARK    6  A    between atoms: C_19  and  C_20 
REMARK       I    between atoms: C_20  and  N_21 
REMARK    7  A    between atoms: N_24  and  C_25 
ROOT
HETATM    1  C   UNL     1       7.384  29.656  56.430  1.00  0.00     0.112 C 
ENDROOT
BRANCH   1   2
HETATM    2  C   UNL     1       7.936  28.548  57.286  1.00  0.00     0.223 C 
HETATM    3  N   UNL     1       7.945  27.243  56.940  1.00  0.00    -0.321 N 
HETATM    4  H   UNL     1       8.380  26.724  57.709  1.00  0.00     0.169 HD
HETATM    5  O   UNL     1       8.416  28.826  58.392  1.00  0.00    -0.273 OA
BRANCH   3   6
HETATM    6  C   UNL     1       7.519  26.388  55.961  1.00  0.00     0.129 C 
HETATM    7  C   UNL     1       6.921  26.394  54.754  1.00  0.00     0.057 C 
HETATM    8  C   UNL     1       6.492  27.534  53.890  1.00  0.00     0.072 C 
HETATM    9  N   UNL     1       6.726  25.087  54.250  1.00  0.00    -0.289 N 
HETATM   10  C   UNL     1       5.550  24.710  53.466  1.00  0.00     0.178 C 
HETATM   11  N   UNL     1       7.136  24.170  55.263  1.00  0.00    -0.217 N 
HETATM   12  C   UNL     1       7.749  24.927  56.260  1.00  0.00     0.295 C 
HETATM   13  O   UNL     1       8.382  24.559  57.242  1.00  0.00    -0.264 OA
BRANCH  11  14
HETATM   14  C   UNL     1       7.638  22.902  54.867  1.00  0.00     0.060 A 
HETATM   15  C   UNL     1       8.268  22.764  53.624  1.00  0.00     0.031 A 
HETATM   16  C   UNL     1       8.726  21.517  53.191  1.00  0.00     0.002 A 
HETATM   17  C   UNL     1       8.555  20.392  53.995  1.00  0.00     0.000 A 
HETATM   18  C   UNL     1       7.915  20.512  55.226  1.00  0.00     0.002 A 
HETATM   19  C   UNL     1       7.449  21.759  55.656  1.00  0.00     0.031 A 
ENDBRANCH  11  14
ENDBRANCH   3   6
ENDBRANCH   1   2
BRANCH   1  20
HETATM   20  C   UNL     1       6.043  30.264  56.945  1.00  0.00    -0.031 C 
HETATM   21  C   UNL     1       5.310  30.839  55.717  1.00  0.00     0.016 C 
HETATM   22  C   UNL     1       5.153  29.142  57.530  1.00  0.00     0.016 C 
BRANCH  20  23
HETATM   23  C   UNL     1       6.297  31.346  58.025  1.00  0.00     0.112 C 
BRANCH  23  24
HETATM   24  C   UNL     1       5.061  31.935  58.700  1.00  0.00     0.220 C 
HETATM   25  N   UNL     1       5.145  32.348  60.021  1.00  0.00    -0.349 N 
HETATM   26  C   UNL     1       3.920  32.858  60.654  1.00  0.00     0.145 C 
HETATM   27  C   UNL     1       6.381  32.729  60.723  1.00  0.00     0.145 C 
HETATM   28  C   UNL     1       3.860  32.520  62.155  1.00  0.00     0.143 C 
HETATM   29  N   UNL     1       5.084  32.979  62.855  1.00  0.00    -0.375 N 
HETATM   30  C   UNL     1       6.319  32.457  62.239  1.00  0.00     0.143 C 
HETATM   31  O   UNL     1       3.997  31.971  58.078  1.00  0.00    -0.273 OA
BRANCH  29  32
HETATM   32  C   UNL     1       5.045  34.257  63.425  1.00  0.00     0.069 A 
HETATM   33  C   UNL     1       4.584  34.554  64.722  1.00  0.00     0.142 A 
HETATM   34  F   UNL     1       4.168  33.580  65.548  1.00  0.00    -0.204 F 
HETATM   35  C   UNL     1       4.560  35.858  65.226  1.00  0.00     0.044 A 
HETATM   36  C   UNL     1       4.980  36.921  64.436  1.00  0.00     0.003 A 
HETATM   37  C   UNL     1       5.417  36.674  63.141  1.00  0.00     0.002 A 
HETATM   38  C   UNL     1       5.443  35.363  62.647  1.00  0.00     0.032 A 
ENDBRANCH  29  32
ENDBRANCH  23  24
ENDBRANCH  20  23
ENDBRANCH   1  20
TORSDOF 7
ENDMDL
MODEL 5
REMARK VINA RESULT:     -10.3      2.832     11.154
REMARK  7 active torsions:
REMARK  status: ('A' for Active; 'I' for Inactive)
REMARK    1  A    between atoms: N_5  and  C_6 
REMARK    2  A    between atoms: C_14  and  N_15 
REMARK       I    between atoms: N_15  and  C_16 
REMARK    3  A    between atoms: C_16  and  C_17 
REMARK    4  A    between atoms: C_17  and  C_18 
REMARK    5  A    between atoms: C_18  and  C_19 
REMARK    6  A    between atoms: C_19  and  C_20 
REMARK       I    between atoms: C_20  and  N_21 
REMARK    7  A    between atoms: N_24  and  C_25 
ROOT
HETATM    1  C   UNL     1       5.175  28.755  57.428  1.00  0.00     0.112 C 
ENDROOT
BRANCH   1   2
HETATM    2  C   UNL     1       4.656  28.045  56.207  1.00  0.00     0.223 C 
HETATM    3  N   UNL     1       5.155  26.887  55.723  1.00  0.00    -0.321 N 
HETATM    4  H   UNL     1       4.609  26.640  54.893  1.00  0.00     0.169 HD
HETATM    5  O   UNL     1       3.710  28.539  55.580  1.00  0.00    -0.273 OA
BRANCH   3   6
HETATM    6  C   UNL     1       6.164  25.985  55.922  1.00  0.00     0.129 C 
HETATM    7  C   UNL     1       7.100  25.647  56.829  1.00  0.00     0.057 C 
HETATM    8  C   UNL     1       7.374  26.194  58.191  1.00  0.00     0.072 C 
HETATM    9  N   UNL     1       7.902  24.568  56.390  1.00  0.00    -0.289 N 
HETATM   10  C   UNL     1       9.329  24.468  56.696  1.00  0.00     0.178 C 
HETATM   11  N   UNL     1       7.516  24.263  55.051  1.00  0.00    -0.217 N 
HETATM   12  C   UNL     1       6.372  25.014  54.787  1.00  0.00     0.295 C 
HETATM   13  O   UNL     1       5.610  24.966  53.828  1.00  0.00    -0.264 OA
BRANCH  11  14
HETATM   14  C   UNL     1       7.660  22.927  54.590  1.00  0.00     0.060 A 
HETATM   15  C   UNL     1       7.588  21.868  55.504  1.00  0.00     0.031 A 
HETATM   16  C   UNL     1       7.776  20.549  55.084  1.00  0.00     0.002 A 
HETATM   17  C   UNL     1       8.043  20.274  53.745  1.00  0.00     0.000 A 
HETATM   18  C   UNL     1       8.133  21.319  52.828  1.00  0.00     0.002 A 
HETATM   19  C   UNL     1       7.953  22.640  53.250  1.00  0.00     0.031 A 
ENDBRANCH  11  14
ENDBRANCH   3   6
ENDBRANCH   1   2
BRANCH   1  20
HETATM   20  C   UNL     1       6.196  29.896  57.127  1.00  0.00    -0.031 C 
HETATM   21  C   UNL     1       7.254  29.858  58.246  1.00  0.00     0.016 C 
HETATM   22  C   UNL     1       6.923  29.606  55.794  1.00  0.00     0.016 C 
BRANCH  20  23
HETATM   23  C   UNL     1       5.489  31.274  57.048  1.00  0.00     0.112 C 
BRANCH  23  24
HETATM   24  C   UNL     1       4.388  31.531  58.073  1.00  0.00     0.220 C 
HETATM   25  N   UNL     1       4.732  32.001  59.331  1.00  0.00    -0.349 N 
HETATM   26  C   UNL     1       3.650  32.184  60.310  1.00  0.00     0.145 C 
HETATM   27  C   UNL     1       5.967  32.730  59.665  1.00  0.00     0.145 C 
HETATM   28  C   UNL     1       4.118  31.900  61.749  1.00  0.00     0.143 C 
HETATM   29  N   UNL     1       5.319  32.700  62.088  1.00  0.00    -0.375 N 
HETATM   30  C   UNL     1       6.419  32.509  61.123  1.00  0.00     0.143 C 
HETATM   31  O   UNL     1       3.221  31.254  57.784  1.00  0.00    -0.273 OA
BRANCH  29  32
HETATM   32  C   UNL     1       5.102  33.940  62.699  1.00  0.00     0.069 A 
HETATM   33  C   UNL     1       4.790  34.132  64.059  1.00  0.00     0.142 A 
HETATM   34  F   UNL     1       4.714  33.091  64.904  1.00  0.00    -0.204 F 
HETATM   35  C   UNL     1       4.571  35.401  64.604  1.00  0.00     0.044 A 
HETATM   36  C   UNL     1       4.637  36.530  63.796  1.00  0.00     0.003 A 
HETATM   37  C   UNL     1       4.916  36.382  62.444  1.00  0.00     0.002 A 
HETATM   38  C   UNL     1       5.139  35.106  61.908  1.00  0.00     0.032 A 
ENDBRANCH  29  32
ENDBRANCH  23  24
ENDBRANCH  20  23
ENDBRANCH   1  20
TORSDOF 7
ENDMDL
MODEL 6
REMARK VINA RESULT:     -10.2      4.759      9.288
REMARK  7 active torsions:
REMARK  status: ('A' for Active; 'I' for Inactive)
REMARK    1  A    between atoms: N_5  and  C_6 
REMARK    2  A    between atoms: C_14  and  N_15 
REMARK       I    between atoms: N_15  and  C_16 
REMARK    3  A    between atoms: C_16  and  C_17 
REMARK    4  A    between atoms: C_17  and  C_18 
REMARK    5  A    between atoms: C_18  and  C_19 
REMARK    6  A    between atoms: C_19  and  C_20 
REMARK       I    between atoms: C_20  and  N_21 
REMARK    7  A    between atoms: N_24  and  C_25 
ROOT
HETATM    1  C   UNL     1       5.623  28.034  57.471  1.00  0.00     0.112 C 
ENDROOT
BRANCH   1   2
HETATM    2  C   UNL     1       7.111  27.832  57.558  1.00  0.00     0.223 C 
HETATM    3  N   UNL     1       7.827  27.037  56.735  1.00  0.00    -0.321 N 
HETATM    4  H   UNL     1       8.808  27.095  57.027  1.00  0.00     0.169 HD
HETATM    5  O   UNL     1       7.747  28.420  58.443  1.00  0.00    -0.273 OA
BRANCH   3   6
HETATM    6  C   UNL     1       7.683  26.147  55.706  1.00  0.00     0.129 C 
HETATM    7  C   UNL     1       7.539  26.110  54.368  1.00  0.00     0.057 C 
HETATM    8  C   UNL     1       7.546  27.213  53.361  1.00  0.00     0.072 C 
HETATM    9  N   UNL     1       7.404  24.789  53.882  1.00  0.00    -0.289 N 
HETATM   10  C   UNL     1       6.538  24.446  52.754  1.00  0.00     0.178 C 
HETATM   11  N   UNL     1       7.349  23.919  55.012  1.00  0.00    -0.217 N 
HETATM   12  C   UNL     1       7.653  24.698  56.127  1.00  0.00     0.295 C 
HETATM   13  O   UNL     1       7.871  24.356  57.284  1.00  0.00    -0.264 OA
BRANCH  11  14
HETATM   14  C   UNL     1       7.831  22.591  54.871  1.00  0.00     0.060 A 
HETATM   15  C   UNL     1       8.492  22.216  53.694  1.00  0.00     0.031 A 
HETATM   16  C   UNL     1       8.931  20.902  53.509  1.00  0.00     0.002 A 
HETATM   17  C   UNL     1       8.711  19.947  54.499  1.00  0.00     0.000 A 
HETATM   18  C   UNL     1       8.041  20.303  55.667  1.00  0.00     0.002 A 
HETATM   19  C   UNL     1       7.594  21.616  55.848  1.00  0.00     0.031 A 
ENDBRANCH  11  14
ENDBRANCH   3   6
ENDBRANCH   1   2
BRANCH   1  20
HETATM   20  C   UNL     1       5.171  29.034  56.362  1.00  0.00    -0.031 C 
HETATM   21  C   UNL     1       4.233  30.056  57.034  1.00  0.00     0.016 C 
HETATM   22  C   UNL     1       6.397  29.813  55.831  1.00  0.00     0.016 C 
BRANCH  20  23
HETATM   23  C   UNL     1       4.474  28.294  55.191  1.00  0.00     0.112 C 
BRANCH  23  24
HETATM   24  C   UNL     1       3.887  29.170  54.089  1.00  0.00     0.220 C 
HETATM   25  N   UNL     1       4.011  28.768  52.767  1.00  0.00    -0.349 N 
HETATM   26  C   UNL     1       3.482  29.665  51.729  1.00  0.00     0.145 C 
HETATM   27  C   UNL     1       4.222  27.386  52.309  1.00  0.00     0.145 C 
HETATM   28  C   UNL     1       4.314  29.606  50.435  1.00  0.00     0.143 C 
HETATM   29  N   UNL     1       4.451  28.211  49.951  1.00  0.00    -0.375 N 
HETATM   30  C   UNL     1       4.999  27.306  50.979  1.00  0.00     0.143 C 
HETATM   31  O   UNL     1       3.370  30.249  54.390  1.00  0.00    -0.273 OA
BRANCH  29  32
HETATM   32  C   UNL     1       3.496  27.765  49.030  1.00  0.00     0.069 A 
HETATM   33  C   UNL     1       3.733  26.829  48.005  1.00  0.00     0.142 A 
HETATM   34  F   UNL     1       4.936  26.250  47.861  1.00  0.00    -0.204 F 
HETATM   35  C   UNL     1       2.735  26.434  47.108  1.00  0.00     0.044 A 
HETATM   36  C   UNL     1       1.461  26.983  47.194  1.00  0.00     0.003 A 
HETATM   37  C   UNL     1       1.194  27.929  48.175  1.00  0.00     0.002 A 
HETATM   38  C   UNL     1       2.199  28.313  49.072  1.00  0.00     0.032 A 
ENDBRANCH  29  32
ENDBRANCH  23  24
ENDBRANCH  20  23
ENDBRANCH   1  20
TORSDOF 7
ENDMDL
MODEL 7
REMARK VINA RESULT:     -10.1      2.099      2.988
REMARK  7 active torsions:
REMARK  status: ('A' for Active; 'I' for Inactive)
REMARK    1  A    between atoms: N_5  and  C_6 
REMARK    2  A    between atoms: C_14  and  N_15 
REMARK       I    between atoms: N_15  and  C_16 
REMARK    3  A    between atoms: C_16  and  C_17 
REMARK    4  A    between atoms: C_17  and  C_18 
REMARK    5  A    between atoms: C_18  and  C_19 
REMARK    6  A    between atoms: C_19  and  C_20 
REMARK       I    between atoms: C_20  and  N_21 
REMARK    7  A    between atoms: N_24  and  C_25 
ROOT
HETATM    1  C   UNL     1       5.265  32.020  58.170  1.00  0.00     0.112 C 
ENDROOT
BRANCH   1   2
HETATM    2  C   UNL     1       4.116  31.748  59.102  1.00  0.00     0.223 C 
HETATM    3  N   UNL     1       4.118  32.025  60.424  1.00  0.00    -0.321 N 
HETATM    4  H   UNL     1       3.209  31.737  60.799  1.00  0.00     0.169 HD
HETATM    5  O   UNL     1       3.086  31.229  58.652  1.00  0.00    -0.273 OA
BRANCH   3   6
HETATM    6  C   UNL     1       4.928  32.489  61.424  1.00  0.00     0.129 C 
HETATM    7  C   UNL     1       6.228  32.706  61.700  1.00  0.00     0.057 C 
HETATM    8  C   UNL     1       7.442  32.543  60.846  1.00  0.00     0.072 C 
HETATM    9  N   UNL     1       6.418  33.207  63.009  1.00  0.00    -0.289 N 
HETATM   10  C   UNL     1       7.569  32.844  63.835  1.00  0.00     0.178 C 
HETATM   11  N   UNL     1       5.146  33.208  63.657  1.00  0.00    -0.217 N 
HETATM   12  C   UNL     1       4.202  32.907  62.678  1.00  0.00     0.295 C 
HETATM   13  O   UNL     1       2.978  32.945  62.735  1.00  0.00    -0.264 OA
BRANCH  11  14
HETATM   14  C   UNL     1       4.900  34.177  64.666  1.00  0.00     0.060 A 
HETATM   15  C   UNL     1       4.919  35.538  64.338  1.00  0.00     0.031 A 
HETATM   16  C   UNL     1       4.729  36.512  65.322  1.00  0.00     0.002 A 
HETATM   17  C   UNL     1       4.522  36.135  66.647  1.00  0.00     0.000 A 
HETATM   18  C   UNL     1       4.518  34.785  66.989  1.00  0.00     0.002 A 
HETATM   19  C   UNL     1       4.716  33.810  66.006  1.00  0.00     0.031 A 
ENDBRANCH  11  14
ENDBRANCH   3   6
ENDBRANCH   1   2
BRANCH   1  20
HETATM   20  C   UNL     1       5.799  30.762  57.418  1.00  0.00    -0.031 C 
HETATM   21  C   UNL     1       7.285  30.609  57.796  1.00  0.00     0.016 C 
HETATM   22  C   UNL     1       5.061  29.500  57.923  1.00  0.00     0.016 C 
BRANCH  20  23
HETATM   23  C   UNL     1       5.605  30.902  55.886  1.00  0.00     0.112 C 
BRANCH  23  24
HETATM   24  C   UNL     1       4.902  29.746  55.182  1.00  0.00     0.220 C 
HETATM   25  N   UNL     1       5.665  28.734  54.618  1.00  0.00    -0.349 N 
HETATM   26  C   UNL     1       4.955  27.664  53.900  1.00  0.00     0.145 C 
HETATM   27  C   UNL     1       7.040  28.379  55.006  1.00  0.00     0.145 C 
HETATM   28  C   UNL     1       5.771  27.126  52.711  1.00  0.00     0.143 C 
HETATM   29  N   UNL     1       7.127  26.706  53.140  1.00  0.00    -0.375 N 
HETATM   30  C   UNL     1       7.856  27.778  53.844  1.00  0.00     0.143 C 
HETATM   31  O   UNL     1       3.674  29.766  55.073  1.00  0.00    -0.273 OA
BRANCH  29  32
HETATM   32  C   UNL     1       7.289  25.364  53.502  1.00  0.00     0.069 A 
HETATM   33  C   UNL     1       7.622  24.319  52.619  1.00  0.00     0.142 A 
HETATM   34  F   UNL     1       7.853  24.561  51.318  1.00  0.00    -0.204 F 
HETATM   35  C   UNL     1       7.757  22.994  53.045  1.00  0.00     0.044 A 
HETATM   36  C   UNL     1       7.540  22.663  54.377  1.00  0.00     0.003 A 
HETATM   37  C   UNL     1       7.183  23.660  55.275  1.00  0.00     0.002 A 
HETATM   38  C   UNL     1       7.056  24.985  54.839  1.00  0.00     0.032 A 
ENDBRANCH  29  32
ENDBRANCH  23  24
ENDBRANCH  20  23
ENDBRANCH   1  20
TORSDOF 7
ENDMDL
MODEL 8
REMARK VINA RESULT:     -10.1      1.419      1.814
REMARK  7 active torsions:
REMARK  status: ('A' for Active; 'I' for Inactive)
REMARK    1  A    between atoms: N_5  and  C_6 
REMARK    2  A    between atoms: C_14  and  N_15 
REMARK       I    between atoms: N_15  and  C_16 
REMARK    3  A    between atoms: C_16  and  C_17 
REMARK    4  A    between atoms: C_17  and  C_18 
REMARK    5  A    between atoms: C_18  and  C_19 
REMARK    6  A    between atoms: C_19  and  C_20 
REMARK       I    between atoms: C_20  and  N_21 
REMARK    7  A    between atoms: N_24  and  C_25 
ROOT
HETATM    1  C   UNL     1       6.228  30.617  56.944  1.00  0.00     0.112 C 
ENDROOT
BRANCH   1   2
HETATM    2  C   UNL     1       4.948  30.805  57.713  1.00  0.00     0.223 C 
HETATM    3  N   UNL     1       4.864  31.372  58.935  1.00  0.00    -0.321 N 
HETATM    4  H   UNL     1       3.877  31.369  59.208  1.00  0.00     0.169 HD
HETATM    5  O   UNL     1       3.884  30.416  57.214  1.00  0.00    -0.273 OA
BRANCH   3   6
HETATM    6  C   UNL     1       5.641  31.879  59.941  1.00  0.00     0.129 C 
HETATM    7  C   UNL     1       6.926  32.156  60.231  1.00  0.00     0.057 C 
HETATM    8  C   UNL     1       8.156  32.041  59.392  1.00  0.00     0.072 C 
HETATM    9  N   UNL     1       7.078  32.674  61.538  1.00  0.00    -0.289 N 
HETATM   10  C   UNL     1       8.234  32.369  62.380  1.00  0.00     0.178 C 
HETATM   11  N   UNL     1       5.800  32.624  62.171  1.00  0.00    -0.217 N 
HETATM   12  C   UNL     1       4.881  32.274  61.183  1.00  0.00     0.295 C 
HETATM   13  O   UNL     1       3.657  32.258  61.226  1.00  0.00    -0.264 OA
BRANCH  11  14
HETATM   14  C   UNL     1       5.499  33.588  63.169  1.00  0.00     0.060 A 
HETATM   15  C   UNL     1       5.696  34.948  62.900  1.00  0.00     0.031 A 
HETATM   16  C   UNL     1       5.454  35.913  63.882  1.00  0.00     0.002 A 
HETATM   17  C   UNL     1       5.016  35.527  65.147  1.00  0.00     0.000 A 
HETATM   18  C   UNL     1       4.832  34.176  65.433  1.00  0.00     0.002 A 
HETATM   19  C   UNL     1       5.082  33.210  64.453  1.00  0.00     0.031 A 
ENDBRANCH  11  14
ENDBRANCH   3   6
ENDBRANCH   1   2
BRANCH   1  20
HETATM   20  C   UNL     1       6.781  29.158  56.957  1.00  0.00    -0.031 C 
HETATM   21  C   UNL     1       7.699  29.015  55.728  1.00  0.00     0.016 C 
HETATM   22  C   UNL     1       7.656  28.943  58.214  1.00  0.00     0.016 C 
BRANCH  20  23
HETATM   23  C   UNL     1       5.628  28.122  56.939  1.00  0.00     0.112 C 
BRANCH  23  24
HETATM   24  C   UNL     1       5.553  27.210  55.719  1.00  0.00     0.220 C 
HETATM   25  N   UNL     1       6.463  26.170  55.595  1.00  0.00    -0.349 N 
HETATM   26  C   UNL     1       6.397  25.347  54.378  1.00  0.00     0.145 C 
HETATM   27  C   UNL     1       7.195  25.537  56.704  1.00  0.00     0.145 C 
HETATM   28  C   UNL     1       7.785  24.846  53.942  1.00  0.00     0.143 C 
HETATM   29  N   UNL     1       8.474  24.146  55.053  1.00  0.00    -0.375 N 
HETATM   30  C   UNL     1       8.563  24.971  56.274  1.00  0.00     0.143 C 
HETATM   31  O   UNL     1       4.728  27.455  54.835  1.00  0.00    -0.273 OA
BRANCH  29  32
HETATM   32  C   UNL     1       8.303  22.759  55.129  1.00  0.00     0.069 A 
HETATM   33  C   UNL     1       8.037  21.913  54.036  1.00  0.00     0.142 A 
HETATM   34  F   UNL     1       7.962  22.400  52.786  1.00  0.00    -0.204 F 
HETATM   35  C   UNL     1       7.864  20.533  54.184  1.00  0.00     0.044 A 
HETATM   36  C   UNL     1       7.932  19.951  55.444  1.00  0.00     0.003 A 
HETATM   37  C   UNL     1       8.167  20.755  56.551  1.00  0.00     0.002 A 
HETATM   38  C   UNL     1       8.344  22.135  56.392  1.00  0.00     0.032 A 
ENDBRANCH  29  32
ENDBRANCH  23  24
ENDBRANCH  20  23
ENDBRANCH   1  20
TORSDOF 7
ENDMDL
MODEL 9
REMARK VINA RESULT:      -9.6      2.370      3.302
REMARK  7 active torsions:
REMARK  status: ('A' for Active; 'I' for Inactive)
REMARK    1  A    between atoms: N_5  and  C_6 
REMARK    2  A    between atoms: C_14  and  N_15 
REMARK       I    between atoms: N_15  and  C_16 
REMARK    3  A    between atoms: C_16  and  C_17 
REMARK    4  A    between atoms: C_17  and  C_18 
REMARK    5  A    between atoms: C_18  and  C_19 
REMARK    6  A    between atoms: C_19  and  C_20 
REMARK       I    between atoms: C_20  and  N_21 
REMARK    7  A    between atoms: N_24  and  C_25 
ROOT
HETATM    1  C   UNL     1       3.734  32.457  58.894  1.00  0.00     0.112 C 
ENDROOT
BRANCH   1   2
HETATM    2  C   UNL     1       3.420  31.537  60.043  1.00  0.00     0.223 C 
HETATM    3  N   UNL     1       3.953  31.644  61.279  1.00  0.00    -0.321 N 
HETATM    4  H   UNL     1       3.557  30.890  61.849  1.00  0.00     0.169 HD
HETATM    5  O   UNL     1       2.624  30.606  59.866  1.00  0.00    -0.273 OA
BRANCH   3   6
HETATM    6  C   UNL     1       4.872  32.360  61.995  1.00  0.00     0.129 C 
HETATM    7  C   UNL     1       6.152  32.302  62.407  1.00  0.00     0.057 C 
HETATM    8  C   UNL     1       7.215  31.291  62.130  1.00  0.00     0.072 C 
HETATM    9  N   UNL     1       6.511  33.422  63.192  1.00  0.00    -0.289 N 
HETATM   10  C   UNL     1       7.427  33.331  64.328  1.00  0.00     0.178 C 
HETATM   11  N   UNL     1       5.334  34.206  63.386  1.00  0.00    -0.217 N 
HETATM   12  C   UNL     1       4.354  33.660  62.559  1.00  0.00     0.295 C 
HETATM   13  O   UNL     1       3.239  34.088  62.281  1.00  0.00    -0.264 OA
BRANCH  11  14
HETATM   14  C   UNL     1       5.474  35.608  63.561  1.00  0.00     0.060 A 
HETATM   15  C   UNL     1       5.024  36.206  64.745  1.00  0.00     0.031 A 
HETATM   16  C   UNL     1       5.104  37.590  64.921  1.00  0.00     0.002 A 
HETATM   17  C   UNL     1       5.632  38.393  63.911  1.00  0.00     0.000 A 
HETATM   18  C   UNL     1       6.067  37.813  62.723  1.00  0.00     0.002 A 
HETATM   19  C   UNL     1       5.979  36.428  62.543  1.00  0.00     0.031 A 
ENDBRANCH  11  14
ENDBRANCH   3   6
ENDBRANCH   1   2
BRANCH   1  20
HETATM   20  C   UNL     1       4.668  31.840  57.808  1.00  0.00    -0.031 C 
HETATM   21  C   UNL     1       4.980  32.958  56.795  1.00  0.00     0.016 C 
HETATM   22  C   UNL     1       6.007  31.413  58.452  1.00  0.00     0.016 C 
BRANCH  20  23
HETATM   23  C   UNL     1       4.001  30.616  57.128  1.00  0.00     0.112 C 
BRANCH  23  24
HETATM   24  C   UNL     1       4.714  30.048  55.905  1.00  0.00     0.220 C 
HETATM   25  N   UNL     1       5.603  28.996  56.068  1.00  0.00    -0.349 N 
HETATM   26  C   UNL     1       6.313  28.511  54.875  1.00  0.00     0.145 C 
HETATM   27  C   UNL     1       5.606  28.043  57.190  1.00  0.00     0.145 C 
HETATM   28  C   UNL     1       7.732  28.014  55.208  1.00  0.00     0.143 C 
HETATM   29  N   UNL     1       7.702  27.001  56.290  1.00  0.00    -0.375 N 
HETATM   30  C   UNL     1       7.009  27.484  57.500  1.00  0.00     0.143 C 
HETATM   31  O   UNL     1       4.535  30.577  54.805  1.00  0.00    -0.273 OA
BRANCH  29  32
HETATM   32  C   UNL     1       7.624  25.660  55.899  1.00  0.00     0.069 A 
HETATM   33  C   UNL     1       8.257  24.585  56.552  1.00  0.00     0.142 A 
HETATM   34  F   UNL     1       8.982  24.783  57.665  1.00  0.00    -0.204 F 
HETATM   35  C   UNL     1       8.147  23.267  56.100  1.00  0.00     0.044 A 
HETATM   36  C   UNL     1       7.410  22.978  54.958  1.00  0.00     0.003 A 
HETATM   37  C   UNL     1       6.792  24.013  54.269  1.00  0.00     0.002 A 
HETATM   38  C   UNL     1       6.903  25.330  54.734  1.00  0.00     0.032 A 
ENDBRANCH  29  32
ENDBRANCH  23  24
ENDBRANCH  20  23
ENDBRANCH   1  20
TORSDOF 7
ENDMDL
MODEL 10
REMARK VINA RESULT:      -9.6      4.265      8.734
REMARK  7 active torsions:
REMARK  status: ('A' for Active; 'I' for Inactive)
REMARK    1  A    between atoms: N_5  and  C_6 
REMARK    2  A    between atoms: C_14  and  N_15 
REMARK       I    between atoms: N_15  and  C_16 
REMARK    3  A    between atoms: C_16  and  C_17 
REMARK    4  A    between atoms: C_17  and  C_18 
REMARK    5  A    between atoms: C_18  and  C_19 
REMARK    6  A    between atoms: C_19  and  C_20 
REMARK       I    between atoms: C_20  and  N_21 
REMARK    7  A    between atoms: N_24  and  C_25 
ROOT
HETATM    1  C   UNL     1       4.440  29.068  56.138  1.00  0.00     0.112 C 
ENDROOT
BRANCH   1   2
HETATM    2  C   UNL     1       3.661  30.098  55.366  1.00  0.00     0.223 C 
HETATM    3  N   UNL     1       3.402  30.030  54.043  1.00  0.00    -0.321 N 
HETATM    4  H   UNL     1       2.856  30.861  53.794  1.00  0.00     0.169 HD
HETATM    5  O   UNL     1       3.221  31.090  55.961  1.00  0.00    -0.273 OA
BRANCH   3   6
HETATM    6  C   UNL     1       3.672  29.279  52.931  1.00  0.00     0.129 C 
HETATM    7  C   UNL     1       4.211  28.099  52.573  1.00  0.00     0.057 C 
HETATM    8  C   UNL     1       4.741  26.981  53.409  1.00  0.00     0.072 C 
HETATM    9  N   UNL     1       4.217  27.919  51.170  1.00  0.00    -0.289 N 
HETATM   10  C   UNL     1       5.299  27.233  50.465  1.00  0.00     0.178 C 
HETATM   11  N   UNL     1       3.740  29.128  50.581  1.00  0.00    -0.217 N 
HETATM   12  C   UNL     1       3.273  29.922  51.626  1.00  0.00     0.295 C 
HETATM   13  O   UNL     1       2.644  30.973  51.588  1.00  0.00    -0.264 OA
BRANCH  11  14
HETATM   14  C   UNL     1       3.065  29.055  49.334  1.00  0.00     0.060 A 
HETATM   15  C   UNL     1       1.877  28.319  49.232  1.00  0.00     0.031 A 
HETATM   16  C   UNL     1       1.221  28.190  48.005  1.00  0.00     0.002 A 
HETATM   17  C   UNL     1       1.747  28.793  46.865  1.00  0.00     0.000 A 
HETATM   18  C   UNL     1       2.935  29.514  46.949  1.00  0.00     0.002 A 
HETATM   19  C   UNL     1       3.597  29.636  48.175  1.00  0.00     0.031 A 
ENDBRANCH  11  14
ENDBRANCH   3   6
ENDBRANCH   1   2
BRANCH   1  20
HETATM   20  C   UNL     1       5.882  29.512  56.536  1.00  0.00    -0.031 C 
HETATM   21  C   UNL     1       6.768  29.330  55.289  1.00  0.00     0.016 C 
HETATM   22  C   UNL     1       5.885  31.017  56.890  1.00  0.00     0.016 C 
BRANCH  20  23
HETATM   23  C   UNL     1       6.407  28.690  57.742  1.00  0.00     0.112 C 
BRANCH  23  24
HETATM   24  C   UNL     1       7.633  27.820  57.487  1.00  0.00     0.220 C 
HETATM   25  N   UNL     1       7.457  26.493  57.123  1.00  0.00    -0.349 N 
HETATM   26  C   UNL     1       8.661  25.670  56.940  1.00  0.00     0.145 C 
HETATM   27  C   UNL     1       6.250  25.930  56.496  1.00  0.00     0.145 C 
HETATM   28  C   UNL     1       8.428  24.204  57.347  1.00  0.00     0.143 C 
HETATM   29  N   UNL     1       7.252  23.635  56.646  1.00  0.00    -0.375 N 
HETATM   30  C   UNL     1       6.032  24.443  56.840  1.00  0.00     0.143 C 
HETATM   31  O   UNL     1       8.757  28.295  57.672  1.00  0.00    -0.273 OA
BRANCH  29  32
HETATM   32  C   UNL     1       7.494  22.971  55.439  1.00  0.00     0.069 A 
HETATM   33  C   UNL     1       7.700  21.585  55.302  1.00  0.00     0.142 A 
HETATM   34  F   UNL     1       7.637  20.768  56.366  1.00  0.00    -0.204 F 
HETATM   35  C   UNL     1       7.951  20.986  54.063  1.00  0.00     0.044 A 
HETATM   36  C   UNL     1       8.026  21.762  52.913  1.00  0.00     0.003 A 
HETATM   37  C   UNL     1       7.855  23.137  53.009  1.00  0.00     0.002 A 
HETATM   38  C   UNL     1       7.599  23.727  54.254  1.00  0.00     0.032 A 
ENDBRANCH  29  32
ENDBRANCH  23  24
ENDBRANCH  20  23
ENDBRANCH   1  20
TORSDOF 7
ENDMDL
