MODEL 1
REMARK VINA RESULT:     -10.2      0.000      0.000
REMARK  3 active torsions:
REMARK  status: ('A' for Active; 'I' for Inactive)
REMARK    1  A    between atoms: C_3  and  C_4 
REMARK       I    between atoms: C_4  and  N_5 
REMARK    2  A    between atoms: N_5  and  C_6 
REMARK    3  A    between atoms: C_13  and  C_14 
REMARK       I    between atoms: C_14  and  N_15 
ROOT
HETATM    1  C   UNL     1       8.455  28.269  57.325  1.00  0.00     0.035 A 
HETATM    2  C   UNL     1       7.908  29.151  58.267  1.00  0.00     0.046 A 
HETATM    3  C   UNL     1       8.595  30.341  58.588  1.00  0.00     0.030 A 
HETATM    4  C   UNL     1       9.814  30.599  57.974  1.00  0.00     0.063 A 
HETATM    5  N   UNL     1      10.228  31.798  58.481  1.00  0.00    -0.277 N 
HETATM    6  H   UNL     1      11.082  32.296  58.258  1.00  0.00     0.189 HD
HETATM    7  N   UNL     1       9.378  32.355  59.359  1.00  0.00    -0.168 NA
HETATM    8  C   UNL     1       8.360  31.466  59.434  1.00  0.00     0.156 A 
HETATM    9  C   UNL     1      10.394  29.738  57.040  1.00  0.00     0.034 A 
HETATM   10  C   UNL     1       9.684  28.573  56.722  1.00  0.00     0.032 A 
ENDROOT
BRANCH   1  11
HETATM   11  N   UNL     1       7.810  27.095  56.898  1.00  0.00    -0.325 N 
HETATM   12  C   UNL     1       6.722  26.983  56.050  1.00  0.00     0.252 C 
HETATM   13  O   UNL     1       6.020  27.900  55.636  1.00  0.00    -0.270 OA
HETATM   14  H   UNL     1       8.170  26.210  57.246  1.00  0.00     0.169 HD
BRANCH  12  15
HETATM   15  C   UNL     1       6.487  25.546  55.581  1.00  0.00     0.229 C 
HETATM   16  C   UNL     1       6.737  25.374  54.066  1.00  0.00     0.056 C 
HETATM   17  C   UNL     1       7.822  26.267  53.466  1.00  0.00     0.018 C 
HETATM   18  C   UNL     1       7.183  23.953  54.087  1.00  0.00    -0.018 A 
HETATM   19  C   UNL     1       7.511  23.591  55.385  1.00  0.00     0.076 A 
HETATM   20  C   UNL     1       7.343  23.063  53.039  1.00  0.00     0.010 A 
HETATM   21  O   UNL     1       7.313  24.591  56.301  1.00  0.00    -0.335 OA
HETATM   22  C   UNL     1       8.019  22.345  55.689  1.00  0.00     0.037 A 
HETATM   23  C   UNL     1       8.180  21.434  54.644  1.00  0.00     0.003 A 
HETATM   24  C   UNL     1       7.844  21.790  53.327  1.00  0.00     0.001 A 
ENDBRANCH  12  15
ENDBRANCH   1  11
BRANCH   8  25
HETATM   25  C   UNL     1       7.191  31.716  60.290  1.00  0.00     0.270 C 
HETATM   26  N   UNL     1       7.257  31.107  61.514  1.00  0.00    -0.365 N 
HETATM   27  H   UNL     1       8.079  30.560  61.741  1.00  0.00     0.159 HD
HETATM   28  H   UNL     1       6.509  31.237  62.177  1.00  0.00     0.159 HD
HETATM   29  O   UNL     1       6.229  32.409  59.978  1.00  0.00    -0.266 OA
ENDBRANCH   8  25
TORSDOF 3
ENDMDL
MODEL 2
REMARK VINA RESULT:      -9.7      1.921      2.151
REMARK  3 active torsions:
REMARK  status: ('A' for Active; 'I' for Inactive)
REMARK    1  A    between atoms: C_3  and  C_4 
REMARK       I    between atoms: C_4  and  N_5 
REMARK    2  A    between atoms: N_5  and  C_6 
REMARK    3  A    between atoms: C_13  and  C_14 
REMARK       I    between atoms: C_14  and  N_15 
ROOT
HETATM    1  C   UNL     1       6.969  27.477  56.900  1.00  0.00     0.035 A 
HETATM    2  C   UNL     1       6.016  28.458  57.207  1.00  0.00     0.046 A 
HETATM    3  C   UNL     1       6.441  29.714  57.690  1.00  0.00     0.030 A 
HETATM    4  C   UNL     1       7.799  29.940  57.869  1.00  0.00     0.063 A 
HETATM    5  N   UNL     1       7.895  31.219  58.341  1.00  0.00    -0.277 N 
HETATM    6  H   UNL     1       8.741  31.720  58.586  1.00  0.00     0.189 HD
HETATM    7  N   UNL     1       6.719  31.854  58.468  1.00  0.00    -0.168 NA
HETATM    8  C   UNL     1       5.808  30.937  58.066  1.00  0.00     0.156 A 
HETATM    9  C   UNL     1       8.775  28.982  57.584  1.00  0.00     0.034 A 
HETATM   10  C   UNL     1       8.331  27.750  57.087  1.00  0.00     0.032 A 
ENDROOT
BRANCH   1  11
HETATM   11  N   UNL     1       6.640  26.223  56.354  1.00  0.00    -0.325 N 
HETATM   12  C   UNL     1       6.121  25.952  55.100  1.00  0.00     0.252 C 
HETATM   13  O   UNL     1       5.705  26.771  54.287  1.00  0.00    -0.270 OA
HETATM   14  H   UNL     1       6.793  25.405  56.937  1.00  0.00     0.169 HD
BRANCH  12  15
HETATM   15  C   UNL     1       6.174  24.462  54.752  1.00  0.00     0.229 C 
HETATM   16  C   UNL     1       6.865  24.201  53.394  1.00  0.00     0.056 C 
HETATM   17  C   UNL     1       7.983  25.172  53.019  1.00  0.00     0.018 C 
HETATM   18  C   UNL     1       7.422  22.854  53.700  1.00  0.00    -0.018 A 
HETATM   19  C   UNL     1       7.398  22.644  55.070  1.00  0.00     0.076 A 
HETATM   20  C   UNL     1       7.964  21.909  52.846  1.00  0.00     0.010 A 
HETATM   21  O   UNL     1       6.847  23.682  55.776  1.00  0.00    -0.335 OA
HETATM   22  C   UNL     1       7.916  21.502  55.644  1.00  0.00     0.037 A 
HETATM   23  C   UNL     1       8.460  20.536  54.795  1.00  0.00     0.003 A 
HETATM   24  C   UNL     1       8.483  20.738  53.404  1.00  0.00     0.001 A 
ENDBRANCH  12  15
ENDBRANCH   1  11
BRANCH   8  25
HETATM   25  C   UNL     1       4.372  31.250  58.036  1.00  0.00     0.270 C 
HETATM   26  N   UNL     1       3.609  30.439  58.832  1.00  0.00    -0.365 N 
HETATM   27  H   UNL     1       4.069  29.718  59.374  1.00  0.00     0.159 HD
HETATM   28  H   UNL     1       2.614  30.592  58.890  1.00  0.00     0.159 HD
HETATM   29  O   UNL     1       3.866  32.153  57.380  1.00  0.00    -0.266 OA
ENDBRANCH   8  25
TORSDOF 3
ENDMDL
MODEL 3
REMARK VINA RESULT:      -9.7      3.347      8.352
REMARK  3 active torsions:
REMARK  status: ('A' for Active; 'I' for Inactive)
REMARK    1  A    between atoms: C_3  and  C_4 
REMARK       I    between atoms: C_4  and  N_5 
REMARK    2  A    between atoms: N_5  and  C_6 
REMARK    3  A    between atoms: C_13  and  C_14 
REMARK       I    between atoms: C_14  and  N_15 
ROOT
HETATM    1  C   UNL     1       7.800  24.864  54.064  1.00  0.00     0.035 A 
HETATM    2  C   UNL     1       8.097  23.786  54.907  1.00  0.00     0.046 A 
HETATM    3  C   UNL     1       8.101  22.475  54.385  1.00  0.00     0.030 A 
HETATM    4  C   UNL     1       7.789  22.285  53.045  1.00  0.00     0.063 A 
HETATM    5  N   UNL     1       7.872  20.936  52.842  1.00  0.00    -0.277 N 
HETATM    6  H   UNL     1       7.705  20.435  51.976  1.00  0.00     0.189 HD
HETATM    7  N   UNL     1       8.230  20.230  53.926  1.00  0.00    -0.168 NA
HETATM    8  C   UNL     1       8.378  21.168  54.890  1.00  0.00     0.156 A 
HETATM    9  C   UNL     1       7.477  23.335  52.180  1.00  0.00     0.034 A 
HETATM   10  C   UNL     1       7.499  24.629  52.716  1.00  0.00     0.032 A 
ENDROOT
BRANCH   1  11
HETATM   11  N   UNL     1       7.835  26.206  54.483  1.00  0.00    -0.325 N 
HETATM   12  C   UNL     1       6.778  26.992  54.909  1.00  0.00     0.252 C 
HETATM   13  O   UNL     1       5.585  26.708  54.851  1.00  0.00    -0.270 OA
HETATM   14  H   UNL     1       8.737  26.675  54.477  1.00  0.00     0.169 HD
BRANCH  12  15
HETATM   15  C   UNL     1       7.240  28.296  55.564  1.00  0.00     0.229 C 
HETATM   16  C   UNL     1       7.108  28.258  57.103  1.00  0.00     0.056 C 
HETATM   17  C   UNL     1       7.315  26.893  57.755  1.00  0.00     0.018 C 
HETATM   18  C   UNL     1       8.238  29.172  57.432  1.00  0.00    -0.018 A 
HETATM   19  C   UNL     1       9.057  29.311  56.322  1.00  0.00     0.076 A 
HETATM   20  C   UNL     1       8.555  29.787  58.631  1.00  0.00     0.010 A 
HETATM   21  O   UNL     1       8.613  28.625  55.222  1.00  0.00    -0.335 OA
HETATM   22  C   UNL     1      10.220  30.052  56.361  1.00  0.00     0.037 A 
HETATM   23  C   UNL     1      10.550  30.684  57.561  1.00  0.00     0.003 A 
HETATM   24  C   UNL     1       9.722  30.553  58.689  1.00  0.00     0.001 A 
ENDBRANCH  12  15
ENDBRANCH   1  11
BRANCH   8  25
HETATM   25  C   UNL     1       8.791  20.803  56.253  1.00  0.00     0.270 C 
HETATM   26  N   UNL     1       9.813  19.894  56.301  1.00  0.00    -0.365 N 
HETATM   27  H   UNL     1      10.207  19.560  55.430  1.00  0.00     0.159 HD
HETATM   28  H   UNL     1      10.177  19.599  57.194  1.00  0.00     0.159 HD
HETATM   29  O   UNL     1       8.299  21.258  57.280  1.00  0.00    -0.266 OA
ENDBRANCH   8  25
TORSDOF 3
ENDMDL
MODEL 4
REMARK VINA RESULT:      -9.4      3.639      4.370
REMARK  3 active torsions:
REMARK  status: ('A' for Active; 'I' for Inactive)
REMARK    1  A    between atoms: C_3  and  C_4 
REMARK       I    between atoms: C_4  and  N_5 
REMARK    2  A    between atoms: N_5  and  C_6 
REMARK    3  A    between atoms: C_13  and  C_14 
REMARK       I    between atoms: C_14  and  N_15 
ROOT
HETATM    1  C   UNL     1       4.605  27.636  54.169  1.00  0.00     0.035 A 
HETATM    2  C   UNL     1       4.681  28.383  55.351  1.00  0.00     0.046 A 
HETATM    3  C   UNL     1       4.111  29.674  55.397  1.00  0.00     0.030 A 
HETATM    4  C   UNL     1       3.503  30.180  54.256  1.00  0.00     0.063 A 
HETATM    5  N   UNL     1       3.058  31.424  54.604  1.00  0.00    -0.277 N 
HETATM    6  H   UNL     1       2.566  32.087  54.016  1.00  0.00     0.189 HD
HETATM    7  N   UNL     1       3.305  31.768  55.879  1.00  0.00    -0.168 NA
HETATM    8  C   UNL     1       3.955  30.693  56.385  1.00  0.00     0.156 A 
HETATM    9  C   UNL     1       3.419  29.468  53.058  1.00  0.00     0.034 A 
HETATM   10  C   UNL     1       3.974  28.182  53.042  1.00  0.00     0.032 A 
ENDROOT
BRANCH   1  11
HETATM   11  N   UNL     1       5.088  26.321  54.052  1.00  0.00    -0.325 N 
HETATM   12  C   UNL     1       6.296  25.816  54.501  1.00  0.00     0.252 C 
HETATM   13  O   UNL     1       7.239  26.462  54.947  1.00  0.00    -0.270 OA
HETATM   14  H   UNL     1       4.493  25.643  53.582  1.00  0.00     0.169 HD
BRANCH  12  15
HETATM   15  C   UNL     1       6.346  24.287  54.463  1.00  0.00     0.229 C 
HETATM   16  C   UNL     1       6.901  23.751  53.124  1.00  0.00     0.056 C 
HETATM   17  C   UNL     1       7.954  24.625  52.444  1.00  0.00     0.018 C 
HETATM   18  C   UNL     1       7.517  22.497  53.639  1.00  0.00    -0.018 A 
HETATM   19  C   UNL     1       7.636  22.575  55.019  1.00  0.00     0.076 A 
HETATM   20  C   UNL     1       7.991  21.397  52.947  1.00  0.00     0.010 A 
HETATM   21  O   UNL     1       7.137  23.735  55.550  1.00  0.00    -0.335 OA
HETATM   22  C   UNL     1       8.235  21.575  55.758  1.00  0.00     0.037 A 
HETATM   23  C   UNL     1       8.712  20.456  55.073  1.00  0.00     0.003 A 
HETATM   24  C   UNL     1       8.589  20.366  53.676  1.00  0.00     0.001 A 
ENDBRANCH  12  15
ENDBRANCH   1  11
BRANCH   8  25
HETATM   25  C   UNL     1       4.393  30.657  57.787  1.00  0.00     0.270 C 
HETATM   26  N   UNL     1       3.400  30.343  58.674  1.00  0.00    -0.365 N 
HETATM   27  H   UNL     1       2.472  30.151  58.316  1.00  0.00     0.159 HD
HETATM   28  H   UNL     1       3.612  30.275  59.657  1.00  0.00     0.159 HD
HETATM   29  O   UNL     1       5.538  30.873  58.169  1.00  0.00    -0.266 OA
ENDBRANCH   8  25
TORSDOF 3
ENDMDL
MODEL 5
REMARK VINA RESULT:      -9.3      3.077      8.510
REMARK  3 active torsions:
REMARK  status: ('A' for Active; 'I' for Inactive)
REMARK    1  A    between atoms: C_3  and  C_4 
REMARK       I    between atoms: C_4  and  N_5 
REMARK    2  A    between atoms: N_5  and  C_6 
REMARK    3  A    between atoms: C_13  and  C_14 
REMARK       I    between atoms: C_14  and  N_15 
ROOT
HETATM    1  C   UNL     1       7.603  25.098  54.695  1.00  0.00     0.035 A 
HETATM    2  C   UNL     1       7.927  23.911  55.366  1.00  0.00     0.046 A 
HETATM    3  C   UNL     1       8.027  22.706  54.639  1.00  0.00     0.030 A 
HETATM    4  C   UNL     1       7.782  22.723  53.272  1.00  0.00     0.063 A 
HETATM    5  N   UNL     1       7.950  21.432  52.857  1.00  0.00    -0.277 N 
HETATM    6  H   UNL     1       7.848  21.073  51.915  1.00  0.00     0.189 HD
HETATM    7  N   UNL     1       8.302  20.576  53.829  1.00  0.00    -0.168 NA
HETATM    8  C   UNL     1       8.357  21.350  54.939  1.00  0.00     0.156 A 
HETATM    9  C   UNL     1       7.446  23.885  52.573  1.00  0.00     0.034 A 
HETATM   10  C   UNL     1       7.372  25.072  53.313  1.00  0.00     0.032 A 
ENDROOT
BRANCH   1  11
HETATM   11  N   UNL     1       7.544  26.353  55.327  1.00  0.00    -0.325 N 
HETATM   12  C   UNL     1       7.782  26.645  56.659  1.00  0.00     0.252 C 
HETATM   13  O   UNL     1       7.936  25.837  57.570  1.00  0.00    -0.270 OA
HETATM   14  H   UNL     1       7.296  27.155  54.754  1.00  0.00     0.169 HD
BRANCH  12  15
HETATM   15  C   UNL     1       7.916  28.148  56.916  1.00  0.00     0.229 C 
HETATM   16  C   UNL     1       6.574  28.895  56.743  1.00  0.00     0.056 C 
HETATM   17  C   UNL     1       5.321  28.106  57.116  1.00  0.00     0.018 C 
HETATM   18  C   UNL     1       6.815  29.989  57.724  1.00  0.00    -0.018 A 
HETATM   19  C   UNL     1       7.874  29.642  58.551  1.00  0.00     0.076 A 
HETATM   20  C   UNL     1       6.122  31.171  57.916  1.00  0.00     0.010 A 
HETATM   21  O   UNL     1       8.441  28.434  58.241  1.00  0.00    -0.335 OA
HETATM   22  C   UNL     1       8.275  30.445  59.599  1.00  0.00     0.037 A 
HETATM   23  C   UNL     1       7.590  31.644  59.801  1.00  0.00     0.003 A 
HETATM   24  C   UNL     1       6.520  32.006  58.964  1.00  0.00     0.001 A 
ENDBRANCH  12  15
ENDBRANCH   1  11
BRANCH   8  25
HETATM   25  C   UNL     1       8.734  20.786  56.243  1.00  0.00     0.270 C 
HETATM   26  N   UNL     1       9.781  19.907  56.190  1.00  0.00    -0.365 N 
HETATM   27  H   UNL     1      10.215  19.723  55.293  1.00  0.00     0.159 HD
HETATM   28  H   UNL     1      10.122  19.485  57.039  1.00  0.00     0.159 HD
HETATM   29  O   UNL     1       8.192  21.061  57.308  1.00  0.00    -0.266 OA
ENDBRANCH   8  25
TORSDOF 3
ENDMDL
MODEL 6
REMARK VINA RESULT:      -9.2      1.980      2.858
REMARK  3 active torsions:
REMARK  status: ('A' for Active; 'I' for Inactive)
REMARK    1  A    between atoms: C_3  and  C_4 
REMARK       I    between atoms: C_4  and  N_5 
REMARK    2  A    between atoms: N_5  and  C_6 
REMARK    3  A    between atoms: C_13  and  C_14 
REMARK       I    between atoms: C_14  and  N_15 
ROOT
HETATM    1  C   UNL     1       6.033  27.516  56.420  1.00  0.00     0.035 A 
HETATM    2  C   UNL     1       6.943  28.218  57.221  1.00  0.00     0.046 A 
HETATM    3  C   UNL     1       6.594  29.491  57.720  1.00  0.00     0.030 A 
HETATM    4  C   UNL     1       5.358  30.027  57.385  1.00  0.00     0.063 A 
HETATM    5  N   UNL     1       5.312  31.246  58.002  1.00  0.00    -0.277 N 
HETATM    6  H   UNL     1       4.555  31.919  57.975  1.00  0.00     0.189 HD
HETATM    7  N   UNL     1       6.403  31.545  58.726  1.00  0.00    -0.168 NA
HETATM    8  C   UNL     1       7.205  30.467  58.564  1.00  0.00     0.156 A 
HETATM    9  C   UNL     1       4.431  29.361  56.580  1.00  0.00     0.034 A 
HETATM   10  C   UNL     1       4.791  28.091  56.114  1.00  0.00     0.032 A 
ENDROOT
BRANCH   1  11
HETATM   11  N   UNL     1       6.271  26.218  55.934  1.00  0.00    -0.325 N 
HETATM   12  C   UNL     1       7.334  25.383  56.226  1.00  0.00     0.252 C 
HETATM   13  O   UNL     1       8.351  25.681  56.846  1.00  0.00    -0.270 OA
HETATM   14  H   UNL     1       5.591  25.830  55.285  1.00  0.00     0.169 HD
BRANCH  12  15
HETATM   15  C   UNL     1       7.103  23.947  55.750  1.00  0.00     0.229 C 
HETATM   16  C   UNL     1       7.106  23.832  54.209  1.00  0.00     0.056 C 
HETATM   17  C   UNL     1       8.026  24.804  53.472  1.00  0.00     0.018 C 
HETATM   18  C   UNL     1       7.626  22.440  54.104  1.00  0.00    -0.018 A 
HETATM   19  C   UNL     1       8.185  22.063  55.316  1.00  0.00     0.076 A 
HETATM   20  C   UNL     1       7.658  21.590  53.012  1.00  0.00     0.010 A 
HETATM   21  O   UNL     1       8.088  23.024  56.288  1.00  0.00    -0.335 OA
HETATM   22  C   UNL     1       8.804  20.842  55.487  1.00  0.00     0.037 A 
HETATM   23  C   UNL     1       8.838  19.971  54.396  1.00  0.00     0.003 A 
HETATM   24  C   UNL     1       8.268  20.342  53.166  1.00  0.00     0.001 A 
ENDBRANCH  12  15
ENDBRANCH   1  11
BRANCH   8  25
HETATM   25  C   UNL     1       8.517  30.386  59.223  1.00  0.00     0.270 C 
HETATM   26  N   UNL     1       8.455  30.388  60.590  1.00  0.00    -0.365 N 
HETATM   27  H   UNL     1       7.546  30.428  61.035  1.00  0.00     0.159 HD
HETATM   28  H   UNL     1       9.304  30.315  61.128  1.00  0.00     0.159 HD
HETATM   29  O   UNL     1       9.592  30.312  58.637  1.00  0.00    -0.266 OA
ENDBRANCH   8  25
TORSDOF 3
ENDMDL
MODEL 7
REMARK VINA RESULT:      -9.2      3.640      9.194
REMARK  3 active torsions:
REMARK  status: ('A' for Active; 'I' for Inactive)
REMARK    1  A    between atoms: C_3  and  C_4 
REMARK       I    between atoms: C_4  and  N_5 
REMARK    2  A    between atoms: N_5  and  C_6 
REMARK    3  A    between atoms: C_13  and  C_14 
REMARK       I    between atoms: C_14  and  N_15 
ROOT
HETATM    1  C   UNL     1       7.667  29.889  57.753  1.00  0.00     0.035 A 
HETATM    2  C   UNL     1       6.647  29.439  56.904  1.00  0.00     0.046 A 
HETATM    3  C   UNL     1       6.978  28.907  55.639  1.00  0.00     0.030 A 
HETATM    4  C   UNL     1       8.312  28.861  55.259  1.00  0.00     0.063 A 
HETATM    5  N   UNL     1       8.314  28.309  54.009  1.00  0.00    -0.277 N 
HETATM    6  H   UNL     1       9.119  28.126  53.421  1.00  0.00     0.189 HD
HETATM    7  N   UNL     1       7.099  27.973  53.547  1.00  0.00    -0.168 NA
HETATM    8  C   UNL     1       6.261  28.334  54.546  1.00  0.00     0.156 A 
HETATM    9  C   UNL     1       9.353  29.311  56.075  1.00  0.00     0.034 A 
HETATM   10  C   UNL     1       9.002  29.816  57.333  1.00  0.00     0.032 A 
ENDROOT
BRANCH   1  11
HETATM   11  N   UNL     1       7.434  30.373  59.053  1.00  0.00    -0.325 N 
HETATM   12  C   UNL     1       7.780  31.607  59.574  1.00  0.00     0.252 C 
HETATM   13  O   UNL     1       8.496  32.452  59.044  1.00  0.00    -0.270 OA
HETATM   14  H   UNL     1       6.956  29.756  59.704  1.00  0.00     0.169 HD
BRANCH  12  15
HETATM   15  C   UNL     1       7.104  31.889  60.919  1.00  0.00     0.229 C 
HETATM   16  C   UNL     1       8.062  31.675  62.113  1.00  0.00     0.056 C 
HETATM   17  C   UNL     1       9.533  31.991  61.851  1.00  0.00     0.018 C 
HETATM   18  C   UNL     1       7.468  32.678  63.039  1.00  0.00    -0.018 A 
HETATM   19  C   UNL     1       6.649  33.539  62.324  1.00  0.00     0.076 A 
HETATM   20  C   UNL     1       7.676  32.859  64.395  1.00  0.00     0.010 A 
HETATM   21  O   UNL     1       6.563  33.235  60.990  1.00  0.00    -0.335 OA
HETATM   22  C   UNL     1       6.018  34.611  62.920  1.00  0.00     0.037 A 
HETATM   23  C   UNL     1       6.213  34.803  64.290  1.00  0.00     0.003 A 
HETATM   24  C   UNL     1       7.036  33.931  65.023  1.00  0.00     0.001 A 
ENDBRANCH  12  15
ENDBRANCH   1  11
BRANCH   8  25
HETATM   25  C   UNL     1       4.811  28.113  54.443  1.00  0.00     0.270 C 
HETATM   26  N   UNL     1       4.466  26.842  54.070  1.00  0.00    -0.365 N 
HETATM   27  H   UNL     1       5.203  26.166  53.912  1.00  0.00     0.159 HD
HETATM   28  H   UNL     1       3.493  26.592  53.993  1.00  0.00     0.159 HD
HETATM   29  O   UNL     1       3.955  28.961  54.671  1.00  0.00    -0.266 OA
ENDBRANCH   8  25
TORSDOF 3
ENDMDL
MODEL 8
REMARK VINA RESULT:      -9.0      4.001      6.838
REMARK  3 active torsions:
REMARK  status: ('A' for Active; 'I' for Inactive)
REMARK    1  A    between atoms: C_3  and  C_4 
REMARK       I    between atoms: C_4  and  N_5 
REMARK    2  A    between atoms: N_5  and  C_6 
REMARK    3  A    between atoms: C_13  and  C_14 
REMARK       I    between atoms: C_14  and  N_15 
ROOT
HETATM    1  C   UNL     1       6.959  32.098  62.126  1.00  0.00     0.035 A 
HETATM    2  C   UNL     1       5.724  32.702  62.397  1.00  0.00     0.046 A 
HETATM    3  C   UNL     1       5.576  33.496  63.555  1.00  0.00     0.030 A 
HETATM    4  C   UNL     1       6.659  33.641  64.411  1.00  0.00     0.063 A 
HETATM    5  N   UNL     1       6.216  34.446  65.423  1.00  0.00    -0.277 N 
HETATM    6  H   UNL     1       6.741  34.762  66.230  1.00  0.00     0.189 HD
HETATM    7  N   UNL     1       4.943  34.854  65.293  1.00  0.00    -0.168 NA
HETATM    8  C   UNL     1       4.534  34.276  64.139  1.00  0.00     0.156 A 
HETATM    9  C   UNL     1       7.900  33.045  64.178  1.00  0.00     0.034 A 
HETATM   10  C   UNL     1       8.029  32.279  63.013  1.00  0.00     0.032 A 
ENDROOT
BRANCH   1  11
HETATM   11  N   UNL     1       7.213  31.346  60.966  1.00  0.00    -0.325 N 
HETATM   12  C   UNL     1       8.092  31.640  59.938  1.00  0.00     0.252 C 
HETATM   13  O   UNL     1       8.700  32.693  59.773  1.00  0.00    -0.270 OA
HETATM   14  H   UNL     1       6.697  30.478  60.848  1.00  0.00     0.169 HD
BRANCH  12  15
HETATM   15  C   UNL     1       8.319  30.452  58.999  1.00  0.00     0.229 C 
HETATM   16  C   UNL     1       7.070  30.131  58.148  1.00  0.00     0.056 C 
HETATM   17  C   UNL     1       6.201  31.327  57.764  1.00  0.00     0.018 C 
HETATM   18  C   UNL     1       7.768  29.586  56.950  1.00  0.00    -0.018 A 
HETATM   19  C   UNL     1       9.106  29.948  56.991  1.00  0.00     0.076 A 
HETATM   20  C   UNL     1       7.257  28.877  55.877  1.00  0.00     0.010 A 
HETATM   21  O   UNL     1       9.448  30.662  58.110  1.00  0.00    -0.335 OA
HETATM   22  C   UNL     1       9.980  29.633  55.971  1.00  0.00     0.037 A 
HETATM   23  C   UNL     1       9.480  28.912  54.885  1.00  0.00     0.003 A 
HETATM   24  C   UNL     1       8.127  28.536  54.839  1.00  0.00     0.001 A 
ENDBRANCH  12  15
ENDBRANCH   1  11
BRANCH   8  25
HETATM   25  C   UNL     1       3.176  34.492  63.618  1.00  0.00     0.270 C 
HETATM   26  N   UNL     1       2.912  35.789  63.270  1.00  0.00    -0.365 N 
HETATM   27  H   UNL     1       3.646  36.480  63.377  1.00  0.00     0.159 HD
HETATM   28  H   UNL     1       2.013  36.029  62.884  1.00  0.00     0.159 HD
HETATM   29  O   UNL     1       2.330  33.615  63.483  1.00  0.00    -0.266 OA
ENDBRANCH   8  25
TORSDOF 3
ENDMDL
MODEL 9
REMARK VINA RESULT:      -8.9      5.556      7.721
REMARK  3 active torsions:
REMARK  status: ('A' for Active; 'I' for Inactive)
REMARK    1  A    between atoms: C_3  and  C_4 
REMARK       I    between atoms: C_4  and  N_5 
REMARK    2  A    between atoms: N_5  and  C_6 
REMARK    3  A    between atoms: C_13  and  C_14 
REMARK       I    between atoms: C_14  and  N_15 
ROOT
HETATM    1  C   UNL     1       5.146  26.867  52.061  1.00  0.00     0.035 A 
HETATM    2  C   UNL     1       4.864  27.240  50.740  1.00  0.00     0.046 A 
HETATM    3  C   UNL     1       3.861  28.200  50.487  1.00  0.00     0.030 A 
HETATM    4  C   UNL     1       3.162  28.739  51.559  1.00  0.00     0.063 A 
HETATM    5  N   UNL     1       2.274  29.619  51.006  1.00  0.00    -0.277 N 
HETATM    6  H   UNL     1       1.597  30.194  51.494  1.00  0.00     0.189 HD
HETATM    7  N   UNL     1       2.344  29.716  49.669  1.00  0.00    -0.168 NA
HETATM    8  C   UNL     1       3.325  28.845  49.332  1.00  0.00     0.156 A 
HETATM    9  C   UNL     1       3.409  28.383  52.886  1.00  0.00     0.034 A 
HETATM   10  C   UNL     1       4.422  27.443  53.114  1.00  0.00     0.032 A 
ENDROOT
BRANCH   1  11
HETATM   11  N   UNL     1       6.170  25.968  52.409  1.00  0.00    -0.325 N 
HETATM   12  C   UNL     1       7.255  26.195  53.237  1.00  0.00     0.252 C 
HETATM   13  O   UNL     1       7.611  27.275  53.699  1.00  0.00    -0.270 OA
HETATM   14  H   UNL     1       6.126  25.033  52.012  1.00  0.00     0.169 HD
BRANCH  12  15
HETATM   15  C   UNL     1       7.986  24.904  53.616  1.00  0.00     0.229 C 
HETATM   16  C   UNL     1       7.592  24.397  55.022  1.00  0.00     0.056 C 
HETATM   17  C   UNL     1       6.155  24.685  55.453  1.00  0.00     0.018 C 
HETATM   18  C   UNL     1       7.784  22.940  54.780  1.00  0.00    -0.018 A 
HETATM   19  C   UNL     1       7.844  22.703  53.415  1.00  0.00     0.076 A 
HETATM   20  C   UNL     1       7.841  21.895  55.685  1.00  0.00     0.010 A 
HETATM   21  O   UNL     1       7.754  23.840  52.654  1.00  0.00    -0.335 OA
HETATM   22  C   UNL     1       7.953  21.428  52.899  1.00  0.00     0.037 A 
HETATM   23  C   UNL     1       8.019  20.364  53.801  1.00  0.00     0.003 A 
HETATM   24  C   UNL     1       7.965  20.597  55.186  1.00  0.00     0.001 A 
ENDBRANCH  12  15
ENDBRANCH   1  11
BRANCH   8  25
HETATM   25  C   UNL     1       3.734  28.662  47.932  1.00  0.00     0.270 C 
HETATM   26  N   UNL     1       3.056  27.669  47.279  1.00  0.00    -0.365 N 
HETATM   27  H   UNL     1       2.338  27.159  47.781  1.00  0.00     0.159 HD
HETATM   28  H   UNL     1       3.255  27.484  46.308  1.00  0.00     0.159 HD
HETATM   29  O   UNL     1       4.592  29.325  47.360  1.00  0.00    -0.266 OA
ENDBRANCH   8  25
TORSDOF 3
ENDMDL
MODEL 10
REMARK VINA RESULT:      -8.8      3.761     10.000
REMARK  3 active torsions:
REMARK  status: ('A' for Active; 'I' for Inactive)
REMARK    1  A    between atoms: C_3  and  C_4 
REMARK       I    between atoms: C_4  and  N_5 
REMARK    2  A    between atoms: N_5  and  C_6 
REMARK    3  A    between atoms: C_13  and  C_14 
REMARK       I    between atoms: C_14  and  N_15 
ROOT
HETATM    1  C   UNL     1       8.377  31.564  59.895  1.00  0.00     0.035 A 
HETATM    2  C   UNL     1       7.910  30.365  59.341  1.00  0.00     0.046 A 
HETATM    3  C   UNL     1       8.650  29.737  58.316  1.00  0.00     0.030 A 
HETATM    4  C   UNL     1       9.818  30.339  57.866  1.00  0.00     0.063 A 
HETATM    5  N   UNL     1      10.297  29.513  56.888  1.00  0.00    -0.277 N 
HETATM    6  H   UNL     1      11.137  29.641  56.336  1.00  0.00     0.189 HD
HETATM    7  N   UNL     1       9.555  28.415  56.673  1.00  0.00    -0.168 NA
HETATM    8  C   UNL     1       8.532  28.537  57.551  1.00  0.00     0.156 A 
HETATM    9  C   UNL     1      10.306  31.539  58.387  1.00  0.00     0.034 A 
HETATM   10  C   UNL     1       9.566  32.132  59.418  1.00  0.00     0.032 A 
ENDROOT
BRANCH   1  11
HETATM   11  N   UNL     1       7.740  32.223  60.961  1.00  0.00    -0.325 N 
HETATM   12  C   UNL     1       7.925  32.021  62.318  1.00  0.00     0.252 C 
HETATM   13  O   UNL     1       8.569  31.118  62.843  1.00  0.00    -0.270 OA
HETATM   14  H   UNL     1       7.054  32.936  60.728  1.00  0.00     0.169 HD
BRANCH  12  15
HETATM   15  C   UNL     1       7.284  33.120  63.169  1.00  0.00     0.229 C 
HETATM   16  C   UNL     1       5.741  33.039  63.168  1.00  0.00     0.056 C 
HETATM   17  C   UNL     1       5.150  31.635  63.057  1.00  0.00     0.018 C 
HETATM   18  C   UNL     1       5.501  33.602  64.525  1.00  0.00    -0.018 A 
HETATM   19  C   UNL     1       6.682  33.578  65.251  1.00  0.00     0.076 A 
HETATM   20  C   UNL     1       4.323  34.047  65.100  1.00  0.00     0.010 A 
HETATM   21  O   UNL     1       7.751  33.092  64.545  1.00  0.00    -0.335 OA
HETATM   22  C   UNL     1       6.738  33.981  66.569  1.00  0.00     0.037 A 
HETATM   23  C   UNL     1       5.559  34.439  67.161  1.00  0.00     0.003 A 
HETATM   24  C   UNL     1       4.359  34.473  66.430  1.00  0.00     0.001 A 
ENDBRANCH  12  15
ENDBRANCH   1  11
BRANCH   8  25
HETATM   25  C   UNL     1       7.485  27.510  57.651  1.00  0.00     0.270 C 
HETATM   26  N   UNL     1       6.257  27.922  57.212  1.00  0.00    -0.365 N 
HETATM   27  H   UNL     1       6.160  28.864  56.851  1.00  0.00     0.159 HD
HETATM   28  H   UNL     1       5.481  27.279  57.224  1.00  0.00     0.159 HD
HETATM   29  O   UNL     1       7.659  26.372  58.072  1.00  0.00    -0.266 OA
ENDBRANCH   8  25
TORSDOF 3
ENDMDL
