MODEL 1
REMARK VINA RESULT:      -8.4      0.000      0.000
REMARK  7 active torsions:
REMARK  status: ('A' for Active; 'I' for Inactive)
REMARK    1  A    between atoms: O_2  and  C_3 
REMARK    2  A    between atoms: C_6  and  C_7 
REMARK       I    between atoms: C_7  and  N_8 
REMARK    3  A    between atoms: C_14  and  C_15 
REMARK       I    between atoms: C_15  and  N_16 
REMARK    4  A    between atoms: N_16  and  C_17 
REMARK    5  A    between atoms: C_17  and  C_18 
REMARK       I    between atoms: N_25  and  C_26 
REMARK    6  A    between atoms: C_26  and  C_27 
REMARK    7  A    between atoms: C_30  and  O_31 
ROOT
HETATM    1  C   UNL     1       7.946  31.099  61.744  1.00  0.00     0.253 C 
HETATM    2  N   UNL     1       6.764  31.837  61.917  1.00  0.00    -0.348 N 
HETATM    3  C   UNL     1       6.136  32.589  60.834  1.00  0.00     0.131 C 
HETATM    4  C   UNL     1       4.664  32.847  61.070  1.00  0.00     0.081 C 
HETATM    5  C   UNL     1       4.344  33.447  62.441  1.00  0.00     0.142 C 
HETATM    6  O   UNL     1       2.907  33.225  62.587  1.00  0.00    -0.358 OA
HETATM    7  C   UNL     1       2.296  34.424  63.078  1.00  0.00     0.206 C 
HETATM    8  C   UNL     1       3.178  35.539  62.579  1.00  0.00     0.206 C 
HETATM    9  N   UNL     1       4.497  34.907  62.556  1.00  0.00    -0.300 N 
HETATM   10  C   UNL     1       5.705  35.579  62.608  1.00  0.00     0.257 C 
HETATM   11  O   UNL     1       6.796  35.046  62.439  1.00  0.00    -0.267 OA
HETATM   12  C   UNL     1       5.011  32.624  63.550  1.00  0.00     0.081 C 
HETATM   13  C   UNL     1       6.463  32.242  63.290  1.00  0.00     0.131 C 
HETATM   14  O   UNL     1       8.500  30.483  62.654  1.00  0.00    -0.267 OA
ENDROOT
BRANCH   8  15
HETATM   15  C   UNL     1       2.678  36.040  61.208  1.00  0.00     0.243 C 
HETATM   16  N   UNL     1       2.176  35.067  60.378  1.00  0.00    -0.355 N 
HETATM   17  H   UNL     1       2.010  34.146  60.761  1.00  0.00     0.162 HD
HETATM   18  O   UNL     1       2.803  37.210  60.853  1.00  0.00    -0.271 OA
BRANCH  16  19
HETATM   19  C   UNL     1       1.658  35.354  59.064  1.00  0.00     0.161 C 
BRANCH  19  20
HETATM   20  C   UNL     1       2.758  35.204  58.045  1.00  0.00    -0.041 A 
HETATM   21  C   UNL     1       3.342  33.952  57.811  1.00  0.00     0.009 A 
HETATM   22  C   UNL     1       4.412  33.826  56.922  1.00  0.00     0.001 A 
HETATM   23  C   UNL     1       4.913  34.951  56.270  1.00  0.00     0.000 A 
HETATM   24  C   UNL     1       4.343  36.201  56.499  1.00  0.00     0.001 A 
HETATM   25  C   UNL     1       3.269  36.328  57.382  1.00  0.00     0.009 A 
ENDBRANCH  19  20
ENDBRANCH  16  19
ENDBRANCH   8  15
BRANCH  10  26
HETATM   26  C   UNL     1       5.732  37.046  62.798  1.00  0.00     0.032 A 
HETATM   27  C   UNL     1       5.633  37.627  64.062  1.00  0.00     0.020 A 
HETATM   28  C   UNL     1       5.693  39.018  64.185  1.00  0.00     0.038 A 
HETATM   29  C   UNL     1       5.890  39.829  63.061  1.00  0.00     0.068 A 
HETATM   30  C   UNL     1       6.032  39.238  61.805  1.00  0.00     0.038 A 
HETATM   31  C   UNL     1       5.961  37.848  61.675  1.00  0.00     0.020 A 
BRANCH  29  32
HETATM   32  O   UNL     1       5.935  41.170  63.326  1.00  0.00    -0.356 OA
HETATM   33  C   UNL     1       7.214  41.792  63.288  1.00  0.00     0.210 C 
ENDBRANCH  29  32
ENDBRANCH  10  26
BRANCH   1  34
HETATM   34  C   UNL     1       8.578  31.030  60.405  1.00  0.00     0.032 A 
HETATM   35  C   UNL     1       9.606  31.908  60.047  1.00  0.00     0.020 A 
HETATM   36  C   UNL     1      10.199  31.801  58.787  1.00  0.00     0.038 A 
HETATM   37  C   UNL     1       9.808  30.793  57.901  1.00  0.00     0.068 A 
HETATM   38  C   UNL     1       8.799  29.901  58.273  1.00  0.00     0.038 A 
HETATM   39  C   UNL     1       8.188  30.016  59.527  1.00  0.00     0.020 A 
BRANCH  37  40
HETATM   40  O   UNL     1      10.476  30.789  56.707  1.00  0.00    -0.356 OA
HETATM   41  C   UNL     1      10.220  29.684  55.847  1.00  0.00     0.210 C 
ENDBRANCH  37  40
ENDBRANCH   1  34
TORSDOF 7
ENDMDL
MODEL 2
REMARK VINA RESULT:      -8.4      7.228     12.878
REMARK  7 active torsions:
REMARK  status: ('A' for Active; 'I' for Inactive)
REMARK    1  A    between atoms: O_2  and  C_3 
REMARK    2  A    between atoms: C_6  and  C_7 
REMARK       I    between atoms: C_7  and  N_8 
REMARK    3  A    between atoms: C_14  and  C_15 
REMARK       I    between atoms: C_15  and  N_16 
REMARK    4  A    between atoms: N_16  and  C_17 
REMARK    5  A    between atoms: C_17  and  C_18 
REMARK       I    between atoms: N_25  and  C_26 
REMARK    6  A    between atoms: C_26  and  C_27 
REMARK    7  A    between atoms: C_30  and  O_31 
ROOT
HETATM    1  C   UNL     1       2.662  29.829  50.043  1.00  0.00     0.253 C 
HETATM    2  N   UNL     1       3.295  29.550  51.266  1.00  0.00    -0.348 N 
HETATM    3  C   UNL     1       4.704  29.846  51.510  1.00  0.00     0.131 C 
HETATM    4  C   UNL     1       5.034  29.973  52.981  1.00  0.00     0.081 C 
HETATM    5  C   UNL     1       4.540  28.804  53.838  1.00  0.00     0.142 C 
HETATM    6  O   UNL     1       4.603  29.326  55.202  1.00  0.00    -0.358 OA
HETATM    7  C   UNL     1       5.197  28.339  56.053  1.00  0.00     0.206 C 
HETATM    8  C   UNL     1       6.106  27.547  55.149  1.00  0.00     0.206 C 
HETATM    9  N   UNL     1       5.407  27.615  53.867  1.00  0.00    -0.300 N 
HETATM   10  C   UNL     1       5.557  26.714  52.828  1.00  0.00     0.257 C 
HETATM   11  O   UNL     1       5.079  26.868  51.710  1.00  0.00    -0.267 OA
HETATM   12  C   UNL     1       3.056  28.533  53.560  1.00  0.00     0.081 C 
HETATM   13  C   UNL     1       2.664  28.518  52.087  1.00  0.00     0.131 C 
HETATM   14  O   UNL     1       1.483  29.560  49.815  1.00  0.00    -0.267 OA
ENDROOT
BRANCH   8  15
HETATM   15  C   UNL     1       7.522  28.161  55.148  1.00  0.00     0.243 C 
HETATM   16  N   UNL     1       7.999  28.530  56.382  1.00  0.00    -0.355 N 
HETATM   17  H   UNL     1       7.491  28.233  57.205  1.00  0.00     0.162 HD
HETATM   18  O   UNL     1       8.137  28.385  54.108  1.00  0.00    -0.271 OA
BRANCH  16  19
HETATM   19  C   UNL     1       9.304  29.113  56.571  1.00  0.00     0.161 C 
BRANCH  19  20
HETATM   20  C   UNL     1       9.279  30.028  57.767  1.00  0.00    -0.041 A 
HETATM   21  C   UNL     1      10.228  31.050  57.899  1.00  0.00     0.009 A 
HETATM   22  C   UNL     1      10.252  31.850  59.043  1.00  0.00     0.001 A 
HETATM   23  C   UNL     1       9.334  31.628  60.069  1.00  0.00     0.000 A 
HETATM   24  C   UNL     1       8.389  30.610  59.950  1.00  0.00     0.001 A 
HETATM   25  C   UNL     1       8.360  29.814  58.804  1.00  0.00     0.009 A 
ENDBRANCH  19  20
ENDBRANCH  16  19
ENDBRANCH   8  15
BRANCH  10  26
HETATM   26  C   UNL     1       6.404  25.514  53.001  1.00  0.00     0.032 A 
HETATM   27  C   UNL     1       6.114  24.539  53.955  1.00  0.00     0.020 A 
HETATM   28  C   UNL     1       6.932  23.411  54.056  1.00  0.00     0.038 A 
HETATM   29  C   UNL     1       8.015  23.231  53.186  1.00  0.00     0.068 A 
HETATM   30  C   UNL     1       8.274  24.189  52.206  1.00  0.00     0.038 A 
HETATM   31  C   UNL     1       7.464  25.324  52.108  1.00  0.00     0.020 A 
BRANCH  29  32
HETATM   32  O   UNL     1       8.728  22.081  53.392  1.00  0.00    -0.356 OA
HETATM   33  C   UNL     1       8.028  20.853  53.234  1.00  0.00     0.210 C 
ENDBRANCH  29  32
ENDBRANCH  10  26
BRANCH   1  34
HETATM   34  C   UNL     1       3.422  30.490  48.957  1.00  0.00     0.032 A 
HETATM   35  C   UNL     1       3.737  31.851  49.022  1.00  0.00     0.020 A 
HETATM   36  C   UNL     1       4.477  32.439  47.993  1.00  0.00     0.038 A 
HETATM   37  C   UNL     1       4.947  31.668  46.926  1.00  0.00     0.068 A 
HETATM   38  C   UNL     1       4.652  30.304  46.878  1.00  0.00     0.038 A 
HETATM   39  C   UNL     1       3.895  29.713  47.895  1.00  0.00     0.020 A 
BRANCH  37  40
HETATM   40  O   UNL     1       5.670  32.362  45.994  1.00  0.00    -0.356 OA
HETATM   41  C   UNL     1       6.193  33.618  46.412  1.00  0.00     0.210 C 
ENDBRANCH  37  40
ENDBRANCH   1  34
TORSDOF 7
ENDMDL
MODEL 3
REMARK VINA RESULT:      -8.3      1.428      1.929
REMARK  7 active torsions:
REMARK  status: ('A' for Active; 'I' for Inactive)
REMARK    1  A    between atoms: O_2  and  C_3 
REMARK    2  A    between atoms: C_6  and  C_7 
REMARK       I    between atoms: C_7  and  N_8 
REMARK    3  A    between atoms: C_14  and  C_15 
REMARK       I    between atoms: C_15  and  N_16 
REMARK    4  A    between atoms: N_16  and  C_17 
REMARK    5  A    between atoms: C_17  and  C_18 
REMARK       I    between atoms: N_25  and  C_26 
REMARK    6  A    between atoms: C_26  and  C_27 
REMARK    7  A    between atoms: C_30  and  O_31 
ROOT
HETATM    1  C   UNL     1       8.004  31.066  61.703  1.00  0.00     0.253 C 
HETATM    2  N   UNL     1       6.811  31.786  61.880  1.00  0.00    -0.348 N 
HETATM    3  C   UNL     1       6.156  32.509  60.793  1.00  0.00     0.131 C 
HETATM    4  C   UNL     1       4.683  32.745  61.044  1.00  0.00     0.081 C 
HETATM    5  C   UNL     1       4.370  33.363  62.410  1.00  0.00     0.142 C 
HETATM    6  O   UNL     1       2.939  33.118  62.579  1.00  0.00    -0.358 OA
HETATM    7  C   UNL     1       2.314  34.315  63.058  1.00  0.00     0.206 C 
HETATM    8  C   UNL     1       3.170  35.436  62.528  1.00  0.00     0.206 C 
HETATM    9  N   UNL     1       4.499  34.827  62.499  1.00  0.00    -0.300 N 
HETATM   10  C   UNL     1       5.695  35.520  62.523  1.00  0.00     0.257 C 
HETATM   11  O   UNL     1       6.793  35.004  62.348  1.00  0.00    -0.267 OA
HETATM   12  C   UNL     1       5.066  32.570  63.523  1.00  0.00     0.081 C 
HETATM   13  C   UNL     1       6.521  32.209  63.250  1.00  0.00     0.131 C 
HETATM   14  O   UNL     1       8.580  30.475  62.616  1.00  0.00    -0.267 OA
ENDROOT
BRANCH   8  15
HETATM   15  C   UNL     1       2.643  35.905  61.156  1.00  0.00     0.243 C 
HETATM   16  N   UNL     1       2.686  37.263  60.948  1.00  0.00    -0.355 N 
HETATM   17  H   UNL     1       3.197  37.835  61.606  1.00  0.00     0.162 HD
HETATM   18  O   UNL     1       2.140  35.129  60.347  1.00  0.00    -0.271 OA
BRANCH  16  19
HETATM   19  C   UNL     1       2.241  37.877  59.722  1.00  0.00     0.161 C 
BRANCH  19  20
HETATM   20  C   UNL     1       3.423  38.466  58.997  1.00  0.00    -0.041 A 
HETATM   21  C   UNL     1       3.636  39.851  58.993  1.00  0.00     0.009 A 
HETATM   22  C   UNL     1       4.687  40.404  58.259  1.00  0.00     0.001 A 
HETATM   23  C   UNL     1       5.527  39.578  57.514  1.00  0.00     0.000 A 
HETATM   24  C   UNL     1       5.321  38.200  57.506  1.00  0.00     0.001 A 
HETATM   25  C   UNL     1       4.275  37.645  58.244  1.00  0.00     0.009 A 
ENDBRANCH  19  20
ENDBRANCH  16  19
ENDBRANCH   8  15
BRANCH  10  26
HETATM   26  C   UNL     1       5.699  36.990  62.688  1.00  0.00     0.032 A 
HETATM   27  C   UNL     1       5.547  37.591  63.937  1.00  0.00     0.020 A 
HETATM   28  C   UNL     1       5.587  38.985  64.038  1.00  0.00     0.038 A 
HETATM   29  C   UNL     1       5.817  39.779  62.908  1.00  0.00     0.068 A 
HETATM   30  C   UNL     1       6.011  39.169  61.669  1.00  0.00     0.038 A 
HETATM   31  C   UNL     1       5.961  37.776  61.560  1.00  0.00     0.020 A 
BRANCH  29  32
HETATM   32  O   UNL     1       5.837  41.125  63.150  1.00  0.00    -0.356 OA
HETATM   33  C   UNL     1       5.420  41.976  62.090  1.00  0.00     0.210 C 
ENDBRANCH  29  32
ENDBRANCH  10  26
BRANCH   1  34
HETATM   34  C   UNL     1       8.619  30.985  60.357  1.00  0.00     0.032 A 
HETATM   35  C   UNL     1       9.642  31.861  59.979  1.00  0.00     0.020 A 
HETATM   36  C   UNL     1      10.219  31.743  58.713  1.00  0.00     0.038 A 
HETATM   37  C   UNL     1       9.818  30.726  57.841  1.00  0.00     0.068 A 
HETATM   38  C   UNL     1       8.815  29.837  58.233  1.00  0.00     0.038 A 
HETATM   39  C   UNL     1       8.219  29.963  59.493  1.00  0.00     0.020 A 
BRANCH  37  40
HETATM   40  O   UNL     1      10.471  30.712  56.638  1.00  0.00    -0.356 OA
HETATM   41  C   UNL     1      10.152  29.636  55.763  1.00  0.00     0.210 C 
ENDBRANCH  37  40
ENDBRANCH   1  34
TORSDOF 7
ENDMDL
MODEL 4
REMARK VINA RESULT:      -7.8      4.465      9.615
REMARK  7 active torsions:
REMARK  status: ('A' for Active; 'I' for Inactive)
REMARK    1  A    between atoms: O_2  and  C_3 
REMARK    2  A    between atoms: C_6  and  C_7 
REMARK       I    between atoms: C_7  and  N_8 
REMARK    3  A    between atoms: C_14  and  C_15 
REMARK       I    between atoms: C_15  and  N_16 
REMARK    4  A    between atoms: N_16  and  C_17 
REMARK    5  A    between atoms: C_17  and  C_18 
REMARK       I    between atoms: N_25  and  C_26 
REMARK    6  A    between atoms: C_26  and  C_27 
REMARK    7  A    between atoms: C_30  and  O_31 
ROOT
HETATM    1  C   UNL     1       3.157  33.271  52.636  1.00  0.00     0.253 C 
HETATM    2  N   UNL     1       3.370  32.976  53.993  1.00  0.00    -0.348 N 
HETATM    3  C   UNL     1       4.584  33.367  54.705  1.00  0.00     0.131 C 
HETATM    4  C   UNL     1       4.391  33.438  56.204  1.00  0.00     0.081 C 
HETATM    5  C   UNL     1       3.751  32.188  56.814  1.00  0.00     0.142 C 
HETATM    6  O   UNL     1       3.306  32.637  58.132  1.00  0.00    -0.358 OA
HETATM    7  C   UNL     1       3.672  31.655  59.108  1.00  0.00     0.206 C 
HETATM    8  C   UNL     1       4.899  30.988  58.543  1.00  0.00     0.206 C 
HETATM    9  N   UNL     1       4.665  31.071  57.103  1.00  0.00    -0.300 N 
HETATM   10  C   UNL     1       5.235  30.244  56.152  1.00  0.00     0.257 C 
HETATM   11  O   UNL     1       5.144  30.422  54.943  1.00  0.00    -0.267 OA
HETATM   12  C   UNL     1       2.476  31.817  56.046  1.00  0.00     0.081 C 
HETATM   13  C   UNL     1       2.600  31.854  54.527  1.00  0.00     0.131 C 
HETATM   14  O   UNL     1       2.152  32.924  52.017  1.00  0.00    -0.267 OA
ENDROOT
BRANCH   8  15
HETATM   15  C   UNL     1       6.171  31.710  59.035  1.00  0.00     0.243 C 
HETATM   16  N   UNL     1       6.360  31.699  60.396  1.00  0.00    -0.355 N 
HETATM   17  H   UNL     1       5.773  31.098  60.959  1.00  0.00     0.162 HD
HETATM   18  O   UNL     1       6.911  32.325  58.271  1.00  0.00    -0.271 OA
BRANCH  16  19
HETATM   19  C   UNL     1       7.497  32.318  61.030  1.00  0.00     0.161 C 
BRANCH  19  20
HETATM   20  C   UNL     1       7.065  32.957  62.323  1.00  0.00    -0.041 A 
HETATM   21  C   UNL     1       5.956  33.813  62.358  1.00  0.00     0.009 A 
HETATM   22  C   UNL     1       5.601  34.465  63.541  1.00  0.00     0.001 A 
HETATM   23  C   UNL     1       6.358  34.274  64.696  1.00  0.00     0.000 A 
HETATM   24  C   UNL     1       7.466  33.430  64.672  1.00  0.00     0.001 A 
HETATM   25  C   UNL     1       7.818  32.773  63.492  1.00  0.00     0.009 A 
ENDBRANCH  19  20
ENDBRANCH  16  19
ENDBRANCH   8  15
BRANCH  10  26
HETATM   26  C   UNL     1       6.083  29.106  56.570  1.00  0.00     0.032 A 
HETATM   27  C   UNL     1       5.552  27.837  56.798  1.00  0.00     0.020 A 
HETATM   28  C   UNL     1       6.405  26.791  57.163  1.00  0.00     0.038 A 
HETATM   29  C   UNL     1       7.786  26.995  57.263  1.00  0.00     0.068 A 
HETATM   30  C   UNL     1       8.315  28.257  56.991  1.00  0.00     0.038 A 
HETATM   31  C   UNL     1       7.466  29.309  56.636  1.00  0.00     0.020 A 
BRANCH  29  32
HETATM   32  O   UNL     1       8.502  25.886  57.623  1.00  0.00    -0.356 OA
HETATM   33  C   UNL     1       8.059  24.638  57.106  1.00  0.00     0.210 C 
ENDBRANCH  29  32
ENDBRANCH  10  26
BRANCH   1  34
HETATM   34  C   UNL     1       4.172  34.049  51.887  1.00  0.00     0.032 A 
HETATM   35  C   UNL     1       5.224  33.411  51.223  1.00  0.00     0.020 A 
HETATM   36  C   UNL     1       6.150  34.171  50.504  1.00  0.00     0.038 A 
HETATM   37  C   UNL     1       6.004  35.557  50.401  1.00  0.00     0.068 A 
HETATM   38  C   UNL     1       4.936  36.188  51.043  1.00  0.00     0.038 A 
HETATM   39  C   UNL     1       4.017  35.434  51.782  1.00  0.00     0.020 A 
BRANCH  37  40
HETATM   40  O   UNL     1       6.969  36.181  49.657  1.00  0.00    -0.356 OA
HETATM   41  C   UNL     1       6.528  36.812  48.460  1.00  0.00     0.210 C 
ENDBRANCH  37  40
ENDBRANCH   1  34
TORSDOF 7
ENDMDL
MODEL 5
REMARK VINA RESULT:      -7.8      9.564     12.314
REMARK  7 active torsions:
REMARK  status: ('A' for Active; 'I' for Inactive)
REMARK    1  A    between atoms: O_2  and  C_3 
REMARK    2  A    between atoms: C_6  and  C_7 
REMARK       I    between atoms: C_7  and  N_8 
REMARK    3  A    between atoms: C_14  and  C_15 
REMARK       I    between atoms: C_15  and  N_16 
REMARK    4  A    between atoms: N_16  and  C_17 
REMARK    5  A    between atoms: C_17  and  C_18 
REMARK       I    between atoms: N_25  and  C_26 
REMARK    6  A    between atoms: C_26  and  C_27 
REMARK    7  A    between atoms: C_30  and  O_31 
ROOT
HETATM    1  C   UNL     1       4.997  28.200  54.075  1.00  0.00     0.253 C 
HETATM    2  N   UNL     1       4.319  28.988  53.131  1.00  0.00    -0.348 N 
HETATM    3  C   UNL     1       4.317  28.682  51.703  1.00  0.00     0.131 C 
HETATM    4  C   UNL     1       3.145  29.296  50.970  1.00  0.00     0.081 C 
HETATM    5  C   UNL     1       2.955  30.792  51.233  1.00  0.00     0.142 C 
HETATM    6  O   UNL     1       1.591  31.052  50.776  1.00  0.00    -0.358 OA
HETATM    7  C   UNL     1       1.580  32.250  49.992  1.00  0.00     0.206 C 
HETATM    8  C   UNL     1       2.961  32.332  49.394  1.00  0.00     0.206 C 
HETATM    9  N   UNL     1       3.785  31.700  50.423  1.00  0.00    -0.300 N 
HETATM   10  C   UNL     1       5.142  31.901  50.594  1.00  0.00     0.257 C 
HETATM   11  O   UNL     1       5.842  31.252  51.363  1.00  0.00    -0.267 OA
HETATM   12  C   UNL     1       2.952  31.070  52.741  1.00  0.00     0.081 C 
HETATM   13  C   UNL     1       4.050  30.368  53.532  1.00  0.00     0.131 C 
HETATM   14  O   UNL     1       5.030  28.461  55.277  1.00  0.00    -0.267 OA
ENDROOT
BRANCH   8  15
HETATM   15  C   UNL     1       2.988  31.629  48.020  1.00  0.00     0.243 C 
HETATM   16  N   UNL     1       2.399  30.388  47.988  1.00  0.00    -0.355 N 
HETATM   17  H   UNL     1       1.853  30.093  48.786  1.00  0.00     0.162 HD
HETATM   18  O   UNL     1       3.573  32.107  47.051  1.00  0.00    -0.271 OA
BRANCH  16  19
HETATM   19  C   UNL     1       2.327  29.591  46.789  1.00  0.00     0.161 C 
BRANCH  19  20
HETATM   20  C   UNL     1       2.806  28.194  47.084  1.00  0.00    -0.041 A 
HETATM   21  C   UNL     1       1.920  27.110  47.018  1.00  0.00     0.009 A 
HETATM   22  C   UNL     1       2.346  25.826  47.364  1.00  0.00     0.001 A 
HETATM   23  C   UNL     1       3.656  25.617  47.789  1.00  0.00     0.000 A 
HETATM   24  C   UNL     1       4.545  26.688  47.863  1.00  0.00     0.001 A 
HETATM   25  C   UNL     1       4.123  27.971  47.512  1.00  0.00     0.009 A 
ENDBRANCH  19  20
ENDBRANCH  16  19
ENDBRANCH   8  15
BRANCH  10  26
HETATM   26  C   UNL     1       5.856  32.895  49.763  1.00  0.00     0.032 A 
HETATM   27  C   UNL     1       6.508  32.536  48.583  1.00  0.00     0.020 A 
HETATM   28  C   UNL     1       7.143  33.522  47.822  1.00  0.00     0.038 A 
HETATM   29  C   UNL     1       7.098  34.866  48.210  1.00  0.00     0.068 A 
HETATM   30  C   UNL     1       6.408  35.223  49.369  1.00  0.00     0.038 A 
HETATM   31  C   UNL     1       5.780  34.240  50.139  1.00  0.00     0.020 A 
BRANCH  29  32
HETATM   32  O   UNL     1       7.756  35.725  47.372  1.00  0.00    -0.356 OA
HETATM   33  C   UNL     1       8.335  35.163  46.200  1.00  0.00     0.210 C 
ENDBRANCH  29  32
ENDBRANCH  10  26
BRANCH   1  34
HETATM   34  C   UNL     1       5.711  26.978  53.634  1.00  0.00     0.032 A 
HETATM   35  C   UNL     1       5.012  25.811  53.313  1.00  0.00     0.020 A 
HETATM   36  C   UNL     1       5.712  24.684  52.876  1.00  0.00     0.038 A 
HETATM   37  C   UNL     1       7.099  24.729  52.711  1.00  0.00     0.068 A 
HETATM   38  C   UNL     1       7.791  25.905  53.008  1.00  0.00     0.038 A 
HETATM   39  C   UNL     1       7.097  27.031  53.464  1.00  0.00     0.020 A 
BRANCH  37  40
HETATM   40  O   UNL     1       7.661  23.564  52.264  1.00  0.00    -0.356 OA
HETATM   41  C   UNL     1       7.911  22.568  53.250  1.00  0.00     0.210 C 
ENDBRANCH  37  40
ENDBRANCH   1  34
TORSDOF 7
ENDMDL
MODEL 6
REMARK VINA RESULT:      -7.6      6.358     11.725
REMARK  7 active torsions:
REMARK  status: ('A' for Active; 'I' for Inactive)
REMARK    1  A    between atoms: O_2  and  C_3 
REMARK    2  A    between atoms: C_6  and  C_7 
REMARK       I    between atoms: C_7  and  N_8 
REMARK    3  A    between atoms: C_14  and  C_15 
REMARK       I    between atoms: C_15  and  N_16 
REMARK    4  A    between atoms: N_16  and  C_17 
REMARK    5  A    between atoms: C_17  and  C_18 
REMARK       I    between atoms: N_25  and  C_26 
REMARK    6  A    between atoms: C_26  and  C_27 
REMARK    7  A    between atoms: C_30  and  O_31 
ROOT
HETATM    1  C   UNL     1       3.497  35.297  55.013  1.00  0.00     0.253 C 
HETATM    2  N   UNL     1       3.651  33.910  55.168  1.00  0.00    -0.348 N 
HETATM    3  C   UNL     1       4.947  33.243  55.067  1.00  0.00     0.131 C 
HETATM    4  C   UNL     1       4.978  31.904  55.770  1.00  0.00     0.081 C 
HETATM    5  C   UNL     1       3.826  30.970  55.392  1.00  0.00     0.142 C 
HETATM    6  O   UNL     1       3.836  29.964  56.452  1.00  0.00    -0.358 OA
HETATM    7  C   UNL     1       3.704  28.664  55.865  1.00  0.00     0.206 C 
HETATM    8  C   UNL     1       4.304  28.800  54.490  1.00  0.00     0.206 C 
HETATM    9  N   UNL     1       4.007  30.192  54.155  1.00  0.00    -0.300 N 
HETATM   10  C   UNL     1       3.934  30.707  52.874  1.00  0.00     0.257 C 
HETATM   11  O   UNL     1       3.832  31.901  52.617  1.00  0.00    -0.267 OA
HETATM   12  C   UNL     1       2.485  31.702  55.521  1.00  0.00     0.081 C 
HETATM   13  C   UNL     1       2.453  33.106  54.928  1.00  0.00     0.131 C 
HETATM   14  O   UNL     1       2.408  35.867  55.069  1.00  0.00    -0.267 OA
ENDROOT
BRANCH   8  15
HETATM   15  C   UNL     1       5.807  28.450  54.528  1.00  0.00     0.243 C 
HETATM   16  N   UNL     1       6.174  27.371  53.759  1.00  0.00    -0.355 N 
HETATM   17  H   UNL     1       5.501  26.992  53.107  1.00  0.00     0.162 HD
HETATM   18  O   UNL     1       6.598  29.038  55.261  1.00  0.00    -0.271 OA
BRANCH  16  19
HETATM   19  C   UNL     1       7.536  26.907  53.669  1.00  0.00     0.161 C 
BRANCH  19  20
HETATM   20  C   UNL     1       7.560  25.402  53.739  1.00  0.00    -0.041 A 
HETATM   21  C   UNL     1       7.353  24.744  54.958  1.00  0.00     0.009 A 
HETATM   22  C   UNL     1       7.450  23.354  55.038  1.00  0.00     0.001 A 
HETATM   23  C   UNL     1       7.765  22.611  53.901  1.00  0.00     0.000 A 
HETATM   24  C   UNL     1       7.979  23.255  52.684  1.00  0.00     0.001 A 
HETATM   25  C   UNL     1       7.876  24.645  52.602  1.00  0.00     0.009 A 
ENDBRANCH  19  20
ENDBRANCH  16  19
ENDBRANCH   8  15
BRANCH  10  26
HETATM   26  C   UNL     1       4.062  29.810  51.704  1.00  0.00     0.032 A 
HETATM   27  C   UNL     1       5.298  29.532  51.121  1.00  0.00     0.020 A 
HETATM   28  C   UNL     1       5.364  28.655  50.035  1.00  0.00     0.038 A 
HETATM   29  C   UNL     1       4.211  28.023  49.553  1.00  0.00     0.068 A 
HETATM   30  C   UNL     1       2.985  28.272  50.169  1.00  0.00     0.038 A 
HETATM   31  C   UNL     1       2.912  29.157  51.249  1.00  0.00     0.020 A 
BRANCH  29  32
HETATM   32  O   UNL     1       4.420  27.186  48.491  1.00  0.00    -0.356 OA
HETATM   33  C   UNL     1       3.580  26.043  48.399  1.00  0.00     0.210 C 
ENDBRANCH  29  32
ENDBRANCH  10  26
BRANCH   1  34
HETATM   34  C   UNL     1       4.688  36.147  54.781  1.00  0.00     0.032 A 
HETATM   35  C   UNL     1       5.357  36.757  55.846  1.00  0.00     0.020 A 
HETATM   36  C   UNL     1       6.492  37.532  55.597  1.00  0.00     0.038 A 
HETATM   37  C   UNL     1       6.993  37.661  54.298  1.00  0.00     0.068 A 
HETATM   38  C   UNL     1       6.337  37.028  53.241  1.00  0.00     0.038 A 
HETATM   39  C   UNL     1       5.188  36.267  53.482  1.00  0.00     0.020 A 
BRANCH  37  40
HETATM   40  O   UNL     1       8.118  38.434  54.193  1.00  0.00    -0.356 OA
HETATM   41  C   UNL     1       8.610  38.994  55.405  1.00  0.00     0.210 C 
ENDBRANCH  37  40
ENDBRANCH   1  34
TORSDOF 7
ENDMDL
MODEL 7
REMARK VINA RESULT:      -7.5      8.539     12.829
REMARK  7 active torsions:
REMARK  status: ('A' for Active; 'I' for Inactive)
REMARK    1  A    between atoms: O_2  and  C_3 
REMARK    2  A    between atoms: C_6  and  C_7 
REMARK       I    between atoms: C_7  and  N_8 
REMARK    3  A    between atoms: C_14  and  C_15 
REMARK       I    between atoms: C_15  and  N_16 
REMARK    4  A    between atoms: N_16  and  C_17 
REMARK    5  A    between atoms: C_17  and  C_18 
REMARK       I    between atoms: N_25  and  C_26 
REMARK    6  A    between atoms: C_26  and  C_27 
REMARK    7  A    between atoms: C_30  and  O_31 
ROOT
HETATM    1  C   UNL     1       5.564  32.683  47.711  1.00  0.00     0.253 C 
HETATM    2  N   UNL     1       4.857  31.910  48.647  1.00  0.00    -0.348 N 
HETATM    3  C   UNL     1       4.946  32.138  50.087  1.00  0.00     0.131 C 
HETATM    4  C   UNL     1       3.755  31.594  50.845  1.00  0.00     0.081 C 
HETATM    5  C   UNL     1       3.416  30.137  50.518  1.00  0.00     0.142 C 
HETATM    6  O   UNL     1       2.055  29.979  51.027  1.00  0.00    -0.358 OA
HETATM    7  C   UNL     1       1.967  28.746  51.751  1.00  0.00     0.206 C 
HETATM    8  C   UNL     1       3.359  28.507  52.276  1.00  0.00     0.206 C 
HETATM    9  N   UNL     1       4.192  29.117  51.241  1.00  0.00    -0.300 N 
HETATM   10  C   UNL     1       5.516  28.802  50.994  1.00  0.00     0.257 C 
HETATM   11  O   UNL     1       6.239  29.425  50.225  1.00  0.00    -0.267 OA
HETATM   12  C   UNL     1       3.321  29.943  49.000  1.00  0.00     0.081 C 
HETATM   13  C   UNL     1       4.443  30.584  48.193  1.00  0.00     0.131 C 
HETATM   14  O   UNL     1       5.519  32.485  46.498  1.00  0.00    -0.267 OA
ENDROOT
BRANCH   8  15
HETATM   15  C   UNL     1       3.512  29.130  53.680  1.00  0.00     0.243 C 
HETATM   16  N   UNL     1       3.912  28.259  54.664  1.00  0.00    -0.355 N 
HETATM   17  H   UNL     1       4.235  27.340  54.393  1.00  0.00     0.162 HD
HETATM   18  O   UNL     1       3.212  30.298  53.914  1.00  0.00    -0.271 OA
BRANCH  16  19
HETATM   19  C   UNL     1       4.113  28.668  56.032  1.00  0.00     0.161 C 
BRANCH  19  20
HETATM   20  C   UNL     1       5.255  27.887  56.628  1.00  0.00    -0.041 A 
HETATM   21  C   UNL     1       6.364  28.552  57.168  1.00  0.00     0.009 A 
HETATM   22  C   UNL     1       7.456  27.829  57.652  1.00  0.00     0.001 A 
HETATM   23  C   UNL     1       7.452  26.436  57.591  1.00  0.00     0.000 A 
HETATM   24  C   UNL     1       6.356  25.765  57.052  1.00  0.00     0.001 A 
HETATM   25  C   UNL     1       5.262  26.486  56.573  1.00  0.00     0.009 A 
ENDBRANCH  19  20
ENDBRANCH  16  19
ENDBRANCH   8  15
BRANCH  10  26
HETATM   26  C   UNL     1       6.170  27.705  51.739  1.00  0.00     0.032 A 
HETATM   27  C   UNL     1       6.870  27.933  52.924  1.00  0.00     0.020 A 
HETATM   28  C   UNL     1       7.444  26.854  53.602  1.00  0.00     0.038 A 
HETATM   29  C   UNL     1       7.292  25.546  53.126  1.00  0.00     0.068 A 
HETATM   30  C   UNL     1       6.554  25.320  51.964  1.00  0.00     0.038 A 
HETATM   31  C   UNL     1       5.987  26.397  51.276  1.00  0.00     0.020 A 
BRANCH  29  32
HETATM   32  O   UNL     1       7.900  24.586  53.889  1.00  0.00    -0.356 OA
HETATM   33  C   UNL     1       8.056  23.301  53.301  1.00  0.00     0.210 C 
ENDBRANCH  29  32
ENDBRANCH  10  26
BRANCH   1  34
HETATM   34  C   UNL     1       6.407  33.810  48.177  1.00  0.00     0.032 A 
HETATM   35  C   UNL     1       5.927  34.731  49.112  1.00  0.00     0.020 A 
HETATM   36  C   UNL     1       6.755  35.767  49.549  1.00  0.00     0.038 A 
HETATM   37  C   UNL     1       8.075  35.860  49.099  1.00  0.00     0.068 A 
HETATM   38  C   UNL     1       8.560  34.922  48.185  1.00  0.00     0.038 A 
HETATM   39  C   UNL     1       7.728  33.893  47.728  1.00  0.00     0.020 A 
BRANCH  37  40
HETATM   40  O   UNL     1       8.784  36.911  49.615  1.00  0.00    -0.356 OA
HETATM   41  C   UNL     1       8.312  37.442  50.849  1.00  0.00     0.210 C 
ENDBRANCH  37  40
ENDBRANCH   1  34
TORSDOF 7
ENDMDL
MODEL 8
REMARK VINA RESULT:      -7.2      8.792     13.465
REMARK  7 active torsions:
REMARK  status: ('A' for Active; 'I' for Inactive)
REMARK    1  A    between atoms: O_2  and  C_3 
REMARK    2  A    between atoms: C_6  and  C_7 
REMARK       I    between atoms: C_7  and  N_8 
REMARK    3  A    between atoms: C_14  and  C_15 
REMARK       I    between atoms: C_15  and  N_16 
REMARK    4  A    between atoms: N_16  and  C_17 
REMARK    5  A    between atoms: C_17  and  C_18 
REMARK       I    between atoms: N_25  and  C_26 
REMARK    6  A    between atoms: C_26  and  C_27 
REMARK    7  A    between atoms: C_30  and  O_31 
ROOT
HETATM    1  C   UNL     1       2.512  33.656  52.754  1.00  0.00     0.253 C 
HETATM    2  N   UNL     1       3.117  32.681  51.945  1.00  0.00    -0.348 N 
HETATM    3  C   UNL     1       2.429  31.462  51.528  1.00  0.00     0.131 C 
HETATM    4  C   UNL     1       3.024  30.844  50.282  1.00  0.00     0.081 C 
HETATM    5  C   UNL     1       4.541  30.650  50.341  1.00  0.00     0.142 C 
HETATM    6  O   UNL     1       4.917  30.443  48.944  1.00  0.00    -0.358 OA
HETATM    7  C   UNL     1       5.825  29.339  48.863  1.00  0.00     0.206 C 
HETATM    8  C   UNL     1       5.471  28.461  50.035  1.00  0.00     0.206 C 
HETATM    9  N   UNL     1       5.008  29.433  51.025  1.00  0.00    -0.300 N 
HETATM   10  C   UNL     1       4.987  29.231  52.392  1.00  0.00     0.257 C 
HETATM   11  O   UNL     1       4.460  29.995  53.193  1.00  0.00    -0.267 OA
HETATM   12  C   UNL     1       5.227  31.953  50.771  1.00  0.00     0.081 C 
HETATM   13  C   UNL     1       4.579  32.668  51.951  1.00  0.00     0.131 C 
HETATM   14  O   UNL     1       3.089  34.674  53.135  1.00  0.00    -0.267 OA
ENDROOT
BRANCH   8  15
HETATM   15  C   UNL     1       4.419  27.413  49.616  1.00  0.00     0.243 C 
HETATM   16  N   UNL     1       3.397  27.893  48.833  1.00  0.00    -0.355 N 
HETATM   17  H   UNL     1       3.480  28.825  48.449  1.00  0.00     0.162 HD
HETATM   18  O   UNL     1       4.447  26.256  50.028  1.00  0.00    -0.271 OA
BRANCH  16  19
HETATM   19  C   UNL     1       2.330  27.055  48.344  1.00  0.00     0.161 C 
BRANCH  19  20
HETATM   20  C   UNL     1       1.457  27.848  47.407  1.00  0.00    -0.041 A 
HETATM   21  C   UNL     1       1.414  29.246  47.488  1.00  0.00     0.009 A 
HETATM   22  C   UNL     1       0.548  29.976  46.671  1.00  0.00     0.001 A 
HETATM   23  C   UNL     1      -0.288  29.314  45.775  1.00  0.00     0.000 A 
HETATM   24  C   UNL     1      -0.258  27.923  45.689  1.00  0.00     0.001 A 
HETATM   25  C   UNL     1       0.611  27.193  46.501  1.00  0.00     0.009 A 
ENDBRANCH  19  20
ENDBRANCH  16  19
ENDBRANCH   8  15
BRANCH  10  26
HETATM   26  C   UNL     1       5.553  27.992  52.969  1.00  0.00     0.032 A 
HETATM   27  C   UNL     1       6.904  27.881  53.296  1.00  0.00     0.020 A 
HETATM   28  C   UNL     1       7.378  26.696  53.866  1.00  0.00     0.038 A 
HETATM   29  C   UNL     1       6.507  25.637  54.147  1.00  0.00     0.068 A 
HETATM   30  C   UNL     1       5.149  25.771  53.857  1.00  0.00     0.038 A 
HETATM   31  C   UNL     1       4.671  26.950  53.278  1.00  0.00     0.020 A 
BRANCH  29  32
HETATM   32  O   UNL     1       7.102  24.541  54.708  1.00  0.00    -0.356 OA
HETATM   33  C   UNL     1       8.056  23.848  53.912  1.00  0.00     0.210 C 
ENDBRANCH  29  32
ENDBRANCH  10  26
BRANCH   1  34
HETATM   34  C   UNL     1       1.103  33.485  53.181  1.00  0.00     0.032 A 
HETATM   35  C   UNL     1       0.782  33.206  54.513  1.00  0.00     0.020 A 
HETATM   36  C   UNL     1      -0.557  33.076  54.888  1.00  0.00     0.038 A 
HETATM   37  C   UNL     1      -1.579  33.270  53.954  1.00  0.00     0.068 A 
HETATM   38  C   UNL     1      -1.255  33.573  52.630  1.00  0.00     0.038 A 
HETATM   39  C   UNL     1       0.086  33.686  52.244  1.00  0.00     0.020 A 
BRANCH  37  40
HETATM   40  O   UNL     1      -2.846  33.127  54.453  1.00  0.00    -0.356 OA
HETATM   41  C   UNL     1      -2.944  32.834  55.842  1.00  0.00     0.210 C 
ENDBRANCH  37  40
ENDBRANCH   1  34
TORSDOF 7
ENDMDL
MODEL 9
REMARK VINA RESULT:      -7.2      7.492     12.462
REMARK  7 active torsions:
REMARK  status: ('A' for Active; 'I' for Inactive)
REMARK    1  A    between atoms: O_2  and  C_3 
REMARK    2  A    between atoms: C_6  and  C_7 
REMARK       I    between atoms: C_7  and  N_8 
REMARK    3  A    between atoms: C_14  and  C_15 
REMARK       I    between atoms: C_15  and  N_16 
REMARK    4  A    between atoms: N_16  and  C_17 
REMARK    5  A    between atoms: C_17  and  C_18 
REMARK       I    between atoms: N_25  and  C_26 
REMARK    6  A    between atoms: C_26  and  C_27 
REMARK    7  A    between atoms: C_30  and  O_31 
ROOT
HETATM    1  C   UNL     1      -0.184  34.606  55.658  1.00  0.00     0.253 C 
HETATM    2  N   UNL     1       0.844  34.312  54.748  1.00  0.00    -0.348 N 
HETATM    3  C   UNL     1       0.613  33.584  53.503  1.00  0.00     0.131 C 
HETATM    4  C   UNL     1       1.683  33.838  52.464  1.00  0.00     0.081 C 
HETATM    5  C   UNL     1       3.113  33.650  52.977  1.00  0.00     0.142 C 
HETATM    6  O   UNL     1       3.932  34.322  51.970  1.00  0.00    -0.358 OA
HETATM    7  C   UNL     1       5.050  33.488  51.644  1.00  0.00     0.206 C 
HETATM    8  C   UNL     1       4.568  32.082  51.891  1.00  0.00     0.206 C 
HETATM    9  N   UNL     1       3.617  32.266  52.986  1.00  0.00    -0.300 N 
HETATM   10  C   UNL     1       3.229  31.285  53.880  1.00  0.00     0.257 C 
HETATM   11  O   UNL     1       2.323  31.416  54.695  1.00  0.00    -0.267 OA
HETATM   12  C   UNL     1       3.319  34.436  54.278  1.00  0.00     0.081 C 
HETATM   13  C   UNL     1       2.198  34.300  55.302  1.00  0.00     0.131 C 
HETATM   14  O   UNL     1       0.001  35.193  56.724  1.00  0.00    -0.267 OA
ENDROOT
BRANCH   8  15
HETATM   15  C   UNL     1       3.961  31.493  50.600  1.00  0.00     0.243 C 
HETATM   16  N   UNL     1       4.874  31.017  49.691  1.00  0.00    -0.355 N 
HETATM   17  H   UNL     1       5.839  30.925  49.979  1.00  0.00     0.162 HD
HETATM   18  O   UNL     1       2.755  31.530  50.367  1.00  0.00    -0.271 OA
BRANCH  16  19
HETATM   19  C   UNL     1       4.487  30.426  48.434  1.00  0.00     0.161 C 
BRANCH  19  20
HETATM   20  C   UNL     1       4.334  28.937  48.603  1.00  0.00    -0.041 A 
HETATM   21  C   UNL     1       3.257  28.262  48.014  1.00  0.00     0.009 A 
HETATM   22  C   UNL     1       3.073  26.896  48.233  1.00  0.00     0.001 A 
HETATM   23  C   UNL     1       3.958  26.195  49.051  1.00  0.00     0.000 A 
HETATM   24  C   UNL     1       5.030  26.857  49.646  1.00  0.00     0.001 A 
HETATM   25  C   UNL     1       5.219  28.222  49.423  1.00  0.00     0.009 A 
ENDBRANCH  19  20
ENDBRANCH  16  19
ENDBRANCH   8  15
BRANCH  10  26
HETATM   26  C   UNL     1       3.860  29.948  53.835  1.00  0.00     0.032 A 
HETATM   27  C   UNL     1       4.926  29.609  54.669  1.00  0.00     0.020 A 
HETATM   28  C   UNL     1       5.466  28.321  54.604  1.00  0.00     0.038 A 
HETATM   29  C   UNL     1       4.925  27.359  53.743  1.00  0.00     0.068 A 
HETATM   30  C   UNL     1       3.831  27.693  52.943  1.00  0.00     0.038 A 
HETATM   31  C   UNL     1       3.294  28.982  52.996  1.00  0.00     0.020 A 
BRANCH  29  32
HETATM   32  O   UNL     1       5.545  26.141  53.785  1.00  0.00    -0.356 OA
HETATM   33  C   UNL     1       4.935  25.083  53.056  1.00  0.00     0.210 C 
ENDBRANCH  29  32
ENDBRANCH  10  26
BRANCH   1  34
HETATM   34  C   UNL     1      -1.577  34.211  55.344  1.00  0.00     0.032 A 
HETATM   35  C   UNL     1      -2.105  33.001  55.805  1.00  0.00     0.020 A 
HETATM   36  C   UNL     1      -3.430  32.669  55.513  1.00  0.00     0.038 A 
HETATM   37  C   UNL     1      -4.246  33.557  54.807  1.00  0.00     0.068 A 
HETATM   38  C   UNL     1      -3.723  34.776  54.370  1.00  0.00     0.038 A 
HETATM   39  C   UNL     1      -2.390  35.106  54.643  1.00  0.00     0.020 A 
BRANCH  37  40
HETATM   40  O   UNL     1      -5.526  33.118  54.599  1.00  0.00    -0.356 OA
HETATM   41  C   UNL     1      -5.731  32.300  53.453  1.00  0.00     0.210 C 
ENDBRANCH  37  40
ENDBRANCH   1  34
TORSDOF 7
ENDMDL
MODEL 10
REMARK VINA RESULT:      -7.1      8.287     13.199
REMARK  7 active torsions:
REMARK  status: ('A' for Active; 'I' for Inactive)
REMARK    1  A    between atoms: O_2  and  C_3 
REMARK    2  A    between atoms: C_6  and  C_7 
REMARK       I    between atoms: C_7  and  N_8 
REMARK    3  A    between atoms: C_14  and  C_15 
REMARK       I    between atoms: C_15  and  N_16 
REMARK    4  A    between atoms: N_16  and  C_17 
REMARK    5  A    between atoms: C_17  and  C_18 
REMARK       I    between atoms: N_25  and  C_26 
REMARK    6  A    between atoms: C_26  and  C_27 
REMARK    7  A    between atoms: C_30  and  O_31 
ROOT
HETATM    1  C   UNL     1       0.118  33.368  50.816  1.00  0.00     0.253 C 
HETATM    2  N   UNL     1       1.268  32.581  50.643  1.00  0.00    -0.348 N 
HETATM    3  C   UNL     1       1.221  31.124  50.554  1.00  0.00     0.131 C 
HETATM    4  C   UNL     1       2.429  30.537  49.856  1.00  0.00     0.081 C 
HETATM    5  C   UNL     1       3.770  31.031  50.402  1.00  0.00     0.142 C 
HETATM    6  O   UNL     1       4.723  30.670  49.353  1.00  0.00    -0.358 OA
HETATM    7  C   UNL     1       5.879  30.079  49.956  1.00  0.00     0.206 C 
HETATM    8  C   UNL     1       5.373  29.450  51.228  1.00  0.00     0.206 C 
HETATM    9  N   UNL     1       4.274  30.339  51.600  1.00  0.00    -0.300 N 
HETATM   10  C   UNL     1       3.765  30.489  52.877  1.00  0.00     0.257 C 
HETATM   11  O   UNL     1       2.751  31.124  53.143  1.00  0.00    -0.267 OA
HETATM   12  C   UNL     1       3.783  32.564  50.470  1.00  0.00     0.081 C 
HETATM   13  C   UNL     1       2.528  33.197  51.057  1.00  0.00     0.131 C 
HETATM   14  O   UNL     1       0.145  34.594  50.920  1.00  0.00    -0.267 OA
ENDROOT
BRANCH   8  15
HETATM   15  C   UNL     1       4.961  27.985  50.970  1.00  0.00     0.243 C 
HETATM   16  N   UNL     1       5.676  27.046  51.673  1.00  0.00    -0.355 N 
HETATM   17  H   UNL     1       6.287  27.360  52.415  1.00  0.00     0.162 HD
HETATM   18  O   UNL     1       4.116  27.680  50.132  1.00  0.00    -0.271 OA
BRANCH  16  19
HETATM   19  C   UNL     1       5.423  25.631  51.562  1.00  0.00     0.161 C 
BRANCH  19  20
HETATM   20  C   UNL     1       6.286  24.886  52.547  1.00  0.00    -0.041 A 
HETATM   21  C   UNL     1       5.890  24.761  53.885  1.00  0.00     0.009 A 
HETATM   22  C   UNL     1       6.725  24.137  54.815  1.00  0.00     0.001 A 
HETATM   23  C   UNL     1       7.965  23.642  54.416  1.00  0.00     0.000 A 
HETATM   24  C   UNL     1       8.371  23.766  53.089  1.00  0.00     0.001 A 
HETATM   25  C   UNL     1       7.536  24.384  52.157  1.00  0.00     0.009 A 
ENDBRANCH  19  20
ENDBRANCH  16  19
ENDBRANCH   8  15
BRANCH  10  26
HETATM   26  C   UNL     1       4.402  29.794  54.017  1.00  0.00     0.032 A 
HETATM   27  C   UNL     1       5.291  30.444  54.873  1.00  0.00     0.020 A 
HETATM   28  C   UNL     1       5.841  29.746  55.951  1.00  0.00     0.038 A 
HETATM   29  C   UNL     1       5.481  28.417  56.203  1.00  0.00     0.068 A 
HETATM   30  C   UNL     1       4.558  27.786  55.369  1.00  0.00     0.038 A 
HETATM   31  C   UNL     1       4.013  28.477  54.282  1.00  0.00     0.020 A 
BRANCH  29  32
HETATM   32  O   UNL     1       6.090  27.857  57.293  1.00  0.00    -0.356 OA
HETATM   33  C   UNL     1       7.312  28.445  57.720  1.00  0.00     0.210 C 
ENDBRANCH  29  32
ENDBRANCH  10  26
BRANCH   1  34
HETATM   34  C   UNL     1      -1.214  32.721  50.869  1.00  0.00     0.032 A 
HETATM   35  C   UNL     1      -1.807  32.390  52.091  1.00  0.00     0.020 A 
HETATM   36  C   UNL     1      -3.074  31.804  52.108  1.00  0.00     0.038 A 
HETATM   37  C   UNL     1      -3.775  31.590  50.917  1.00  0.00     0.068 A 
HETATM   38  C   UNL     1      -3.190  31.945  49.700  1.00  0.00     0.038 A 
HETATM   39  C   UNL     1      -1.912  32.516  49.675  1.00  0.00     0.020 A 
BRANCH  37  40
HETATM   40  O   UNL     1      -5.010  31.022  51.073  1.00  0.00    -0.356 OA
HETATM   41  C   UNL     1      -5.126  30.043  52.100  1.00  0.00     0.210 C 
ENDBRANCH  37  40
ENDBRANCH   1  34
TORSDOF 7
ENDMDL
