MODEL 1
REMARK VINA RESULT:      -8.6      0.000      0.000
REMARK  6 active torsions:
REMARK  status: ('A' for Active; 'I' for Inactive)
REMARK    1  A    between atoms: C_2  and  N_3 
REMARK    2  A    between atoms: C_2  and  C_16 
REMARK    3  A    between atoms: N_3  and  C_6 
REMARK    4  A    between atoms: C_16  and  C_17 
REMARK       I    between atoms: C_17  and  N_18 
REMARK    5  A    between atoms: N_18  and  C_19 
REMARK    6  A    between atoms: C_21  and  O_22 
ROOT
HETATM    1  C   UNL     1       9.517  28.974  56.987  1.00  0.00     0.040 C 
HETATM    2  C   UNL     1       8.011  28.758  56.958  1.00  0.00     0.191 C 
ENDROOT
BRANCH   2   3
HETATM    3  N   UNL     1       7.358  29.287  58.222  1.00  0.00    -0.063 N 
HETATM    4  H   UNL     1       6.383  28.930  58.167  1.00  0.00     0.278 HD
HETATM    5  H   UNL     1       7.751  28.826  59.051  1.00  0.00     0.278 HD
BRANCH   3   6
HETATM    6  C   UNL     1       7.218  30.773  58.494  1.00  0.00     0.221 C 
HETATM    7  C   UNL     1       7.687  31.224  59.859  1.00  0.00    -0.011 A 
HETATM    8  C   UNL     1       6.931  32.090  60.667  1.00  0.00     0.009 A 
HETATM    9  C   UNL     1       8.967  30.836  60.313  1.00  0.00     0.011 A 
HETATM   10  C   UNL     1       7.419  32.486  61.921  1.00  0.00     0.019 A 
HETATM   11  S   UNL     1       5.355  32.762  60.176  1.00  0.00    -0.129 SA
HETATM   12  C   UNL     1       8.669  32.063  62.366  1.00  0.00     0.001 A 
HETATM   13  C   UNL     1       9.447  31.244  61.558  1.00  0.00     0.001 A 
HETATM   14  C   UNL     1       5.521  32.650  58.380  1.00  0.00     0.082 C 
HETATM   15  C   UNL     1       5.823  31.209  58.019  1.00  0.00     0.048 C 
ENDBRANCH   3   6
ENDBRANCH   2   3
BRANCH   2  16
HETATM   16  C   UNL     1       7.696  27.250  56.818  1.00  0.00     0.135 C 
BRANCH  16  17
HETATM   17  C   UNL     1       6.279  27.025  56.353  1.00  0.00     0.224 C 
HETATM   18  N   UNL     1       5.954  26.162  55.359  1.00  0.00    -0.327 N 
HETATM   19  H   UNL     1       4.956  26.191  55.167  1.00  0.00     0.169 HD
HETATM   20  O   UNL     1       5.362  27.610  56.948  1.00  0.00    -0.273 OA
BRANCH  18  21
HETATM   21  C   UNL     1       6.665  25.217  54.590  1.00  0.00     0.037 A 
HETATM   22  C   UNL     1       6.858  23.869  54.912  1.00  0.00     0.066 A 
HETATM   23  C   UNL     1       7.550  23.019  54.037  1.00  0.00     0.070 A 
HETATM   24  C   UNL     1       8.053  23.519  52.836  1.00  0.00     0.037 A 
HETATM   25  C   UNL     1       7.875  24.857  52.505  1.00  0.00     0.005 A 
HETATM   26  C   UNL     1       7.186  25.698  53.378  1.00  0.00     0.029 A 
BRANCH  23  27
HETATM   27  O   UNL     1       7.791  21.687  54.229  1.00  0.00    -0.356 OA
HETATM   28  C   UNL     1       7.942  20.865  53.081  1.00  0.00     0.210 C 
ENDBRANCH  23  27
ENDBRANCH  18  21
ENDBRANCH  16  17
ENDBRANCH   2  16
TORSDOF 6
ENDMDL
MODEL 2
REMARK VINA RESULT:      -8.5      2.991      8.555
REMARK  6 active torsions:
REMARK  status: ('A' for Active; 'I' for Inactive)
REMARK    1  A    between atoms: C_2  and  N_3 
REMARK    2  A    between atoms: C_2  and  C_16 
REMARK    3  A    between atoms: N_3  and  C_6 
REMARK    4  A    between atoms: C_16  and  C_17 
REMARK       I    between atoms: C_17  and  N_18 
REMARK    5  A    between atoms: N_18  and  C_19 
REMARK    6  A    between atoms: C_21  and  O_22 
ROOT
HETATM    1  C   UNL     1       5.387  27.630  53.184  1.00  0.00     0.040 C 
HETATM    2  C   UNL     1       6.359  27.719  54.352  1.00  0.00     0.191 C 
ENDROOT
BRANCH   2   3
HETATM    3  N   UNL     1       6.304  26.466  55.205  1.00  0.00    -0.063 N 
HETATM    4  H   UNL     1       5.988  26.810  56.135  1.00  0.00     0.278 HD
HETATM    5  H   UNL     1       5.544  25.850  54.892  1.00  0.00     0.278 HD
BRANCH   3   6
HETATM    6  C   UNL     1       7.539  25.633  55.493  1.00  0.00     0.221 C 
HETATM    7  C   UNL     1       7.674  24.375  54.666  1.00  0.00    -0.011 A 
HETATM    8  C   UNL     1       8.011  23.133  55.232  1.00  0.00     0.009 A 
HETATM    9  C   UNL     1       7.543  24.453  53.262  1.00  0.00     0.011 A 
HETATM   10  C   UNL     1       8.134  22.000  54.415  1.00  0.00     0.019 A 
HETATM   11  S   UNL     1       8.329  22.904  56.970  1.00  0.00    -0.129 SA
HETATM   12  C   UNL     1       7.964  22.092  53.036  1.00  0.00     0.001 A 
HETATM   13  C   UNL     1       7.677  23.321  52.458  1.00  0.00     0.001 A 
HETATM   14  C   UNL     1       8.811  24.586  57.418  1.00  0.00     0.082 C 
HETATM   15  C   UNL     1       7.688  25.524  57.019  1.00  0.00     0.048 C 
ENDBRANCH   3   6
ENDBRANCH   2   3
BRANCH   2  16
HETATM   16  C   UNL     1       6.019  28.946  55.231  1.00  0.00     0.135 C 
BRANCH  16  17
HETATM   17  C   UNL     1       5.696  28.537  56.646  1.00  0.00     0.224 C 
HETATM   18  N   UNL     1       6.499  28.823  57.701  1.00  0.00    -0.327 N 
HETATM   19  H   UNL     1       6.127  28.421  58.558  1.00  0.00     0.169 HD
HETATM   20  O   UNL     1       4.617  27.966  56.865  1.00  0.00    -0.273 OA
BRANCH  18  21
HETATM   21  C   UNL     1       7.675  29.581  57.879  1.00  0.00     0.037 A 
HETATM   22  C   UNL     1       7.802  30.736  58.658  1.00  0.00     0.066 A 
HETATM   23  C   UNL     1       9.043  31.375  58.789  1.00  0.00     0.070 A 
HETATM   24  C   UNL     1      10.162  30.858  58.138  1.00  0.00     0.037 A 
HETATM   25  C   UNL     1      10.053  29.714  57.356  1.00  0.00     0.005 A 
HETATM   26  C   UNL     1       8.816  29.082  57.229  1.00  0.00     0.029 A 
BRANCH  23  27
HETATM   27  O   UNL     1       9.298  32.497  59.528  1.00  0.00    -0.356 OA
HETATM   28  C   UNL     1       9.348  32.366  60.941  1.00  0.00     0.210 C 
ENDBRANCH  23  27
ENDBRANCH  18  21
ENDBRANCH  16  17
ENDBRANCH   2  16
TORSDOF 6
ENDMDL
MODEL 3
REMARK VINA RESULT:      -8.5      4.126      8.430
REMARK  6 active torsions:
REMARK  status: ('A' for Active; 'I' for Inactive)
REMARK    1  A    between atoms: C_2  and  N_3 
REMARK    2  A    between atoms: C_2  and  C_16 
REMARK    3  A    between atoms: N_3  and  C_6 
REMARK    4  A    between atoms: C_16  and  C_17 
REMARK       I    between atoms: C_17  and  N_18 
REMARK    5  A    between atoms: N_18  and  C_19 
REMARK    6  A    between atoms: C_21  and  O_22 
ROOT
HETATM    1  C   UNL     1       5.027  24.940  51.813  1.00  0.00     0.040 C 
HETATM    2  C   UNL     1       5.689  25.663  52.977  1.00  0.00     0.191 C 
ENDROOT
BRANCH   2   3
HETATM    3  N   UNL     1       5.822  24.752  54.183  1.00  0.00    -0.063 N 
HETATM    4  H   UNL     1       5.352  25.280  54.947  1.00  0.00     0.278 HD
HETATM    5  H   UNL     1       5.245  23.911  54.064  1.00  0.00     0.278 HD
BRANCH   3   6
HETATM    6  C   UNL     1       7.172  24.358  54.750  1.00  0.00     0.221 C 
HETATM    7  C   UNL     1       7.602  22.938  54.462  1.00  0.00    -0.011 A 
HETATM    8  C   UNL     1       8.134  22.095  55.453  1.00  0.00     0.009 A 
HETATM    9  C   UNL     1       7.551  22.456  53.135  1.00  0.00     0.011 A 
HETATM   10  C   UNL     1       8.527  20.789  55.127  1.00  0.00     0.019 A 
HETATM   11  S   UNL     1       8.375  22.603  57.144  1.00  0.00    -0.129 SA
HETATM   12  C   UNL     1       8.434  20.321  53.819  1.00  0.00     0.001 A 
HETATM   13  C   UNL     1       7.954  21.158  52.821  1.00  0.00     0.001 A 
HETATM   14  C   UNL     1       8.492  24.391  56.912  1.00  0.00     0.082 C 
HETATM   15  C   UNL     1       7.239  24.862  56.201  1.00  0.00     0.048 C 
ENDBRANCH   3   6
ENDBRANCH   2   3
BRANCH   2  16
HETATM   16  C   UNL     1       4.856  26.906  53.370  1.00  0.00     0.135 C 
BRANCH  16  17
HETATM   17  C   UNL     1       5.541  28.183  52.951  1.00  0.00     0.224 C 
HETATM   18  N   UNL     1       6.333  28.905  53.780  1.00  0.00    -0.327 N 
HETATM   19  H   UNL     1       6.661  29.752  53.321  1.00  0.00     0.169 HD
HETATM   20  O   UNL     1       5.424  28.557  51.774  1.00  0.00    -0.273 OA
BRANCH  18  21
HETATM   21  C   UNL     1       6.837  28.721  55.085  1.00  0.00     0.037 A 
HETATM   22  C   UNL     1       8.168  28.880  55.485  1.00  0.00     0.066 A 
HETATM   23  C   UNL     1       8.534  28.709  56.828  1.00  0.00     0.070 A 
HETATM   24  C   UNL     1       7.566  28.377  57.775  1.00  0.00     0.037 A 
HETATM   25  C   UNL     1       6.240  28.210  57.393  1.00  0.00     0.005 A 
HETATM   26  C   UNL     1       5.881  28.381  56.056  1.00  0.00     0.029 A 
BRANCH  23  27
HETATM   27  O   UNL     1       9.793  28.850  57.345  1.00  0.00    -0.356 OA
HETATM   28  C   UNL     1      10.733  29.617  56.609  1.00  0.00     0.210 C 
ENDBRANCH  23  27
ENDBRANCH  18  21
ENDBRANCH  16  17
ENDBRANCH   2  16
TORSDOF 6
ENDMDL
MODEL 4
REMARK VINA RESULT:      -8.3      5.652      8.815
REMARK  6 active torsions:
REMARK  status: ('A' for Active; 'I' for Inactive)
REMARK    1  A    between atoms: C_2  and  N_3 
REMARK    2  A    between atoms: C_2  and  C_16 
REMARK    3  A    between atoms: N_3  and  C_6 
REMARK    4  A    between atoms: C_16  and  C_17 
REMARK       I    between atoms: C_17  and  N_18 
REMARK    5  A    between atoms: N_18  and  C_19 
REMARK    6  A    between atoms: C_21  and  O_22 
ROOT
HETATM    1  C   UNL     1       7.648  27.363  53.716  1.00  0.00     0.040 C 
HETATM    2  C   UNL     1       6.407  26.536  53.414  1.00  0.00     0.191 C 
ENDROOT
BRANCH   2   3
HETATM    3  N   UNL     1       6.328  25.319  54.317  1.00  0.00    -0.063 N 
HETATM    4  H   UNL     1       5.798  25.659  55.146  1.00  0.00     0.278 HD
HETATM    5  H   UNL     1       5.719  24.603  53.903  1.00  0.00     0.278 HD
BRANCH   3   6
HETATM    6  C   UNL     1       7.568  24.656  54.886  1.00  0.00     0.221 C 
HETATM    7  C   UNL     1       7.753  23.205  54.505  1.00  0.00    -0.011 A 
HETATM    8  C   UNL     1       8.095  22.217  55.444  1.00  0.00     0.009 A 
HETATM    9  C   UNL     1       7.668  22.831  53.146  1.00  0.00     0.011 A 
HETATM   10  C   UNL     1       8.266  20.887  55.034  1.00  0.00     0.019 A 
HETATM   11  S   UNL     1       8.359  22.559  57.173  1.00  0.00    -0.129 SA
HETATM   12  C   UNL     1       8.141  20.532  53.694  1.00  0.00     0.001 A 
HETATM   13  C   UNL     1       7.850  21.507  52.747  1.00  0.00     0.001 A 
HETATM   14  C   UNL     1       8.794  24.311  57.075  1.00  0.00     0.082 C 
HETATM   15  C   UNL     1       7.668  25.041  56.371  1.00  0.00     0.048 C 
ENDBRANCH   3   6
ENDBRANCH   2   3
BRANCH   2  16
HETATM   16  C   UNL     1       6.426  26.072  51.938  1.00  0.00     0.135 C 
BRANCH  16  17
HETATM   17  C   UNL     1       5.087  25.524  51.516  1.00  0.00     0.224 C 
HETATM   18  N   UNL     1       4.322  26.097  50.555  1.00  0.00    -0.327 N 
HETATM   19  H   UNL     1       3.439  25.602  50.452  1.00  0.00     0.169 HD
HETATM   20  O   UNL     1       4.694  24.465  52.028  1.00  0.00    -0.273 OA
BRANCH  18  21
HETATM   21  C   UNL     1       4.496  27.165  49.649  1.00  0.00     0.037 A 
HETATM   22  C   UNL     1       4.338  28.524  49.938  1.00  0.00     0.066 A 
HETATM   23  C   UNL     1       4.585  29.495  48.956  1.00  0.00     0.070 A 
HETATM   24  C   UNL     1       4.991  29.104  47.680  1.00  0.00     0.037 A 
HETATM   25  C   UNL     1       5.147  27.758  47.376  1.00  0.00     0.005 A 
HETATM   26  C   UNL     1       4.901  26.797  48.356  1.00  0.00     0.029 A 
BRANCH  23  27
HETATM   27  O   UNL     1       4.480  30.849  49.117  1.00  0.00    -0.356 OA
HETATM   28  C   UNL     1       5.675  31.590  49.320  1.00  0.00     0.210 C 
ENDBRANCH  23  27
ENDBRANCH  18  21
ENDBRANCH  16  17
ENDBRANCH   2  16
TORSDOF 6
ENDMDL
MODEL 5
REMARK VINA RESULT:      -8.2      3.538      8.783
REMARK  6 active torsions:
REMARK  status: ('A' for Active; 'I' for Inactive)
REMARK    1  A    between atoms: C_2  and  N_3 
REMARK    2  A    between atoms: C_2  and  C_16 
REMARK    3  A    between atoms: N_3  and  C_6 
REMARK    4  A    between atoms: C_16  and  C_17 
REMARK       I    between atoms: C_17  and  N_18 
REMARK    5  A    between atoms: N_18  and  C_19 
REMARK    6  A    between atoms: C_21  and  O_22 
ROOT
HETATM    1  C   UNL     1       6.539  29.140  57.529  1.00  0.00     0.040 C 
HETATM    2  C   UNL     1       7.834  29.340  56.756  1.00  0.00     0.191 C 
ENDROOT
BRANCH   2   3
HETATM    3  N   UNL     1       7.977  28.308  55.653  1.00  0.00    -0.063 N 
HETATM    4  H   UNL     1       7.888  28.864  54.778  1.00  0.00     0.278 HD
HETATM    5  H   UNL     1       8.937  27.943  55.624  1.00  0.00     0.278 HD
BRANCH   3   6
HETATM    6  C   UNL     1       6.998  27.160  55.492  1.00  0.00     0.221 C 
HETATM    7  C   UNL     1       7.551  25.792  55.820  1.00  0.00    -0.011 A 
HETATM    8  C   UNL     1       7.347  24.677  54.989  1.00  0.00     0.009 A 
HETATM    9  C   UNL     1       8.226  25.595  57.045  1.00  0.00     0.011 A 
HETATM   10  C   UNL     1       7.872  23.428  55.348  1.00  0.00     0.019 A 
HETATM   11  S   UNL     1       6.410  24.744  53.475  1.00  0.00    -0.129 SA
HETATM   12  C   UNL     1       8.567  23.263  56.544  1.00  0.00     0.001 A 
HETATM   13  C   UNL     1       8.736  24.345  57.397  1.00  0.00     0.001 A 
HETATM   14  C   UNL     1       5.366  26.177  53.823  1.00  0.00     0.082 C 
HETATM   15  C   UNL     1       6.265  27.351  54.155  1.00  0.00     0.048 C 
ENDBRANCH   3   6
ENDBRANCH   2   3
BRANCH   2  16
HETATM   16  C   UNL     1       9.045  29.231  57.713  1.00  0.00     0.135 C 
BRANCH  16  17
HETATM   17  C   UNL     1       9.924  30.453  57.630  1.00  0.00     0.224 C 
HETATM   18  N   UNL     1       9.791  31.519  58.456  1.00  0.00    -0.327 N 
HETATM   19  H   UNL     1      10.448  32.255  58.206  1.00  0.00     0.169 HD
HETATM   20  O   UNL     1      10.853  30.457  56.808  1.00  0.00    -0.273 OA
BRANCH  18  21
HETATM   21  C   UNL     1       9.003  31.807  59.590  1.00  0.00     0.037 A 
HETATM   22  C   UNL     1       7.622  32.032  59.599  1.00  0.00     0.066 A 
HETATM   23  C   UNL     1       6.946  32.266  60.805  1.00  0.00     0.070 A 
HETATM   24  C   UNL     1       7.653  32.275  62.007  1.00  0.00     0.037 A 
HETATM   25  C   UNL     1       9.026  32.059  62.014  1.00  0.00     0.005 A 
HETATM   26  C   UNL     1       9.693  31.827  60.812  1.00  0.00     0.029 A 
BRANCH  23  27
HETATM   27  O   UNL     1       5.603  32.484  60.948  1.00  0.00    -0.356 OA
HETATM   28  C   UNL     1       5.026  32.267  62.226  1.00  0.00     0.210 C 
ENDBRANCH  23  27
ENDBRANCH  18  21
ENDBRANCH  16  17
ENDBRANCH   2  16
TORSDOF 6
ENDMDL
MODEL 6
REMARK VINA RESULT:      -8.2      3.109      9.329
REMARK  6 active torsions:
REMARK  status: ('A' for Active; 'I' for Inactive)
REMARK    1  A    between atoms: C_2  and  N_3 
REMARK    2  A    between atoms: C_2  and  C_16 
REMARK    3  A    between atoms: N_3  and  C_6 
REMARK    4  A    between atoms: C_16  and  C_17 
REMARK       I    between atoms: C_17  and  N_18 
REMARK    5  A    between atoms: N_18  and  C_19 
REMARK    6  A    between atoms: C_21  and  O_22 
ROOT
HETATM    1  C   UNL     1       5.547  29.437  55.865  1.00  0.00     0.040 C 
HETATM    2  C   UNL     1       6.784  28.684  56.332  1.00  0.00     0.191 C 
ENDROOT
BRANCH   2   3
HETATM    3  N   UNL     1       6.561  27.184  56.287  1.00  0.00    -0.063 N 
HETATM    4  H   UNL     1       6.118  26.970  57.204  1.00  0.00     0.278 HD
HETATM    5  H   UNL     1       5.838  26.948  55.596  1.00  0.00     0.278 HD
BRANCH   3   6
HETATM    6  C   UNL     1       7.710  26.201  56.166  1.00  0.00     0.221 C 
HETATM    7  C   UNL     1       7.704  25.355  54.914  1.00  0.00    -0.011 A 
HETATM    8  C   UNL     1       7.924  23.967  54.941  1.00  0.00     0.009 A 
HETATM    9  C   UNL     1       7.558  25.981  53.656  1.00  0.00     0.011 A 
HETATM   10  C   UNL     1       7.919  23.232  53.747  1.00  0.00     0.019 A 
HETATM   11  S   UNL     1       8.246  23.056  56.438  1.00  0.00    -0.129 SA
HETATM   12  C   UNL     1       7.736  23.864  52.520  1.00  0.00     0.001 A 
HETATM   13  C   UNL     1       7.565  25.241  52.474  1.00  0.00     0.001 A 
HETATM   14  C   UNL     1       8.902  24.386  57.470  1.00  0.00     0.082 C 
HETATM   15  C   UNL     1       7.873  25.498  57.523  1.00  0.00     0.048 C 
ENDBRANCH   3   6
ENDBRANCH   2   3
BRANCH   2  16
HETATM   16  C   UNL     1       7.142  29.099  57.779  1.00  0.00     0.135 C 
BRANCH  16  17
HETATM   17  C   UNL     1       8.606  29.436  57.908  1.00  0.00     0.224 C 
HETATM   18  N   UNL     1       9.095  30.262  58.866  1.00  0.00    -0.327 N 
HETATM   19  H   UNL     1      10.097  30.394  58.753  1.00  0.00     0.169 HD
HETATM   20  O   UNL     1       9.410  28.883  57.142  1.00  0.00    -0.273 OA
BRANCH  18  21
HETATM   21  C   UNL     1       8.546  30.917  59.989  1.00  0.00     0.037 A 
HETATM   22  C   UNL     1       7.545  31.893  59.966  1.00  0.00     0.066 A 
HETATM   23  C   UNL     1       7.053  32.439  61.161  1.00  0.00     0.070 A 
HETATM   24  C   UNL     1       7.565  32.006  62.384  1.00  0.00     0.037 A 
HETATM   25  C   UNL     1       8.564  31.041  62.423  1.00  0.00     0.005 A 
HETATM   26  C   UNL     1       9.049  30.501  61.232  1.00  0.00     0.029 A 
BRANCH  23  27
HETATM   27  O   UNL     1       6.071  33.384  61.272  1.00  0.00    -0.356 OA
HETATM   28  C   UNL     1       6.169  34.323  62.332  1.00  0.00     0.210 C 
ENDBRANCH  23  27
ENDBRANCH  18  21
ENDBRANCH  16  17
ENDBRANCH   2  16
TORSDOF 6
ENDMDL
MODEL 7
REMARK VINA RESULT:      -8.0      5.460      8.003
REMARK  6 active torsions:
REMARK  status: ('A' for Active; 'I' for Inactive)
REMARK    1  A    between atoms: C_2  and  N_3 
REMARK    2  A    between atoms: C_2  and  C_16 
REMARK    3  A    between atoms: N_3  and  C_6 
REMARK    4  A    between atoms: C_16  and  C_17 
REMARK       I    between atoms: C_17  and  N_18 
REMARK    5  A    between atoms: N_18  and  C_19 
REMARK    6  A    between atoms: C_21  and  O_22 
ROOT
HETATM    1  C   UNL     1       4.614  24.834  52.900  1.00  0.00     0.040 C 
HETATM    2  C   UNL     1       4.688  26.276  53.381  1.00  0.00     0.191 C 
ENDROOT
BRANCH   2   3
HETATM    3  N   UNL     1       5.470  27.138  52.407  1.00  0.00    -0.063 N 
HETATM    4  H   UNL     1       6.091  27.705  53.019  1.00  0.00     0.278 HD
HETATM    5  H   UNL     1       6.116  26.562  51.855  1.00  0.00     0.278 HD
BRANCH   3   6
HETATM    6  C   UNL     1       4.790  28.143  51.496  1.00  0.00     0.221 C 
HETATM    7  C   UNL     1       4.887  27.842  50.019  1.00  0.00    -0.011 A 
HETATM    8  C   UNL     1       5.232  28.820  49.070  1.00  0.00     0.009 A 
HETATM    9  C   UNL     1       4.539  26.555  49.551  1.00  0.00     0.011 A 
HETATM   10  C   UNL     1       5.296  28.487  47.710  1.00  0.00     0.019 A 
HETATM   11  S   UNL     1       5.576  30.516  49.495  1.00  0.00    -0.129 SA
HETATM   12  C   UNL     1       4.984  27.202  47.274  1.00  0.00     0.001 A 
HETATM   13  C   UNL     1       4.596  26.238  48.195  1.00  0.00     0.001 A 
HETATM   14  C   UNL     1       4.664  30.634  51.050  1.00  0.00     0.082 C 
HETATM   15  C   UNL     1       5.172  29.551  51.982  1.00  0.00     0.048 C 
ENDBRANCH   3   6
ENDBRANCH   2   3
BRANCH   2  16
HETATM   16  C   UNL     1       5.367  26.336  54.769  1.00  0.00     0.135 C 
BRANCH  16  17
HETATM   17  C   UNL     1       6.825  26.706  54.654  1.00  0.00     0.224 C 
HETATM   18  N   UNL     1       7.814  25.788  54.532  1.00  0.00    -0.327 N 
HETATM   19  H   UNL     1       8.726  26.240  54.514  1.00  0.00     0.169 HD
HETATM   20  O   UNL     1       7.126  27.908  54.606  1.00  0.00    -0.273 OA
BRANCH  18  21
HETATM   21  C   UNL     1       7.858  24.387  54.371  1.00  0.00     0.037 A 
HETATM   22  C   UNL     1       7.723  23.437  55.388  1.00  0.00     0.066 A 
HETATM   23  C   UNL     1       7.741  22.066  55.090  1.00  0.00     0.070 A 
HETATM   24  C   UNL     1       7.895  21.645  53.769  1.00  0.00     0.037 A 
HETATM   25  C   UNL     1       8.036  22.577  52.748  1.00  0.00     0.005 A 
HETATM   26  C   UNL     1       8.017  23.938  53.050  1.00  0.00     0.029 A 
BRANCH  23  27
HETATM   27  O   UNL     1       7.606  21.043  55.988  1.00  0.00    -0.356 OA
HETATM   28  C   UNL     1       8.708  20.167  56.169  1.00  0.00     0.210 C 
ENDBRANCH  23  27
ENDBRANCH  18  21
ENDBRANCH  16  17
ENDBRANCH   2  16
TORSDOF 6
ENDMDL
MODEL 8
REMARK VINA RESULT:      -7.7      2.336      3.660
REMARK  6 active torsions:
REMARK  status: ('A' for Active; 'I' for Inactive)
REMARK    1  A    between atoms: C_2  and  N_3 
REMARK    2  A    between atoms: C_2  and  C_16 
REMARK    3  A    between atoms: N_3  and  C_6 
REMARK    4  A    between atoms: C_16  and  C_17 
REMARK       I    between atoms: C_17  and  N_18 
REMARK    5  A    between atoms: N_18  and  C_19 
REMARK    6  A    between atoms: C_21  and  O_22 
ROOT
HETATM    1  C   UNL     1       5.305  25.029  56.898  1.00  0.00     0.040 C 
HETATM    2  C   UNL     1       5.669  26.159  55.946  1.00  0.00     0.191 C 
ENDROOT
BRANCH   2   3
HETATM    3  N   UNL     1       4.673  27.299  56.044  1.00  0.00    -0.063 N 
HETATM    4  H   UNL     1       4.056  27.163  55.218  1.00  0.00     0.278 HD
HETATM    5  H   UNL     1       4.051  27.165  56.850  1.00  0.00     0.278 HD
BRANCH   3   6
HETATM    6  C   UNL     1       5.104  28.753  55.979  1.00  0.00     0.221 C 
HETATM    7  C   UNL     1       6.310  29.105  56.820  1.00  0.00    -0.011 A 
HETATM    8  C   UNL     1       6.347  30.241  57.646  1.00  0.00     0.009 A 
HETATM    9  C   UNL     1       7.479  28.319  56.715  1.00  0.00     0.011 A 
HETATM   10  C   UNL     1       7.497  30.526  58.396  1.00  0.00     0.019 A 
HETATM   11  S   UNL     1       4.996  31.394  57.786  1.00  0.00    -0.129 SA
HETATM   12  C   UNL     1       8.627  29.717  58.306  1.00  0.00     0.001 A 
HETATM   13  C   UNL     1       8.621  28.618  57.458  1.00  0.00     0.001 A 
HETATM   14  C   UNL     1       4.176  31.099  56.203  1.00  0.00     0.082 C 
HETATM   15  C   UNL     1       3.844  29.623  56.108  1.00  0.00     0.048 C 
ENDBRANCH   3   6
ENDBRANCH   2   3
BRANCH   2  16
HETATM   16  C   UNL     1       5.699  25.636  54.490  1.00  0.00     0.135 C 
BRANCH  16  17
HETATM   17  C   UNL     1       7.053  25.840  53.859  1.00  0.00     0.224 C 
HETATM   18  N   UNL     1       7.964  24.846  53.724  1.00  0.00    -0.327 N 
HETATM   19  H   UNL     1       8.827  25.199  53.317  1.00  0.00     0.169 HD
HETATM   20  O   UNL     1       7.322  26.955  53.386  1.00  0.00    -0.273 OA
BRANCH  18  21
HETATM   21  C   UNL     1       7.963  23.456  53.964  1.00  0.00     0.037 A 
HETATM   22  C   UNL     1       7.943  22.835  55.217  1.00  0.00     0.066 A 
HETATM   23  C   UNL     1       7.900  21.437  55.320  1.00  0.00     0.070 A 
HETATM   24  C   UNL     1       7.876  20.656  54.165  1.00  0.00     0.037 A 
HETATM   25  C   UNL     1       7.901  21.257  52.912  1.00  0.00     0.005 A 
HETATM   26  C   UNL     1       7.944  22.647  52.815  1.00  0.00     0.029 A 
BRANCH  23  27
HETATM   27  O   UNL     1       7.863  20.714  56.481  1.00  0.00    -0.356 OA
HETATM   28  C   UNL     1       8.358  21.327  57.662  1.00  0.00     0.210 C 
ENDBRANCH  23  27
ENDBRANCH  18  21
ENDBRANCH  16  17
ENDBRANCH   2  16
TORSDOF 6
ENDMDL
MODEL 9
REMARK VINA RESULT:      -7.7      2.973      4.668
REMARK  6 active torsions:
REMARK  status: ('A' for Active; 'I' for Inactive)
REMARK    1  A    between atoms: C_2  and  N_3 
REMARK    2  A    between atoms: C_2  and  C_16 
REMARK    3  A    between atoms: N_3  and  C_6 
REMARK    4  A    between atoms: C_16  and  C_17 
REMARK       I    between atoms: C_17  and  N_18 
REMARK    5  A    between atoms: N_18  and  C_19 
REMARK    6  A    between atoms: C_21  and  O_22 
ROOT
HETATM    1  C   UNL     1       9.550  30.529  61.911  1.00  0.00     0.040 C 
HETATM    2  C   UNL     1       8.471  31.138  61.028  1.00  0.00     0.191 C 
ENDROOT
BRANCH   2   3
HETATM    3  N   UNL     1       7.156  31.259  61.776  1.00  0.00    -0.063 N 
HETATM    4  H   UNL     1       6.515  30.623  61.258  1.00  0.00     0.278 HD
HETATM    5  H   UNL     1       7.232  30.835  62.708  1.00  0.00     0.278 HD
BRANCH   3   6
HETATM    6  C   UNL     1       6.406  32.573  61.881  1.00  0.00     0.221 C 
HETATM    7  C   UNL     1       6.173  33.070  63.289  1.00  0.00    -0.011 A 
HETATM    8  C   UNL     1       4.925  33.551  63.722  1.00  0.00     0.009 A 
HETATM    9  C   UNL     1       7.260  33.138  64.188  1.00  0.00     0.011 A 
HETATM   10  C   UNL     1       4.767  34.011  65.037  1.00  0.00     0.019 A 
HETATM   11  S   UNL     1       3.492  33.643  62.667  1.00  0.00    -0.129 SA
HETATM   12  C   UNL     1       5.844  34.035  65.919  1.00  0.00     0.001 A 
HETATM   13  C   UNL     1       7.094  33.607  65.491  1.00  0.00     0.001 A 
HETATM   14  C   UNL     1       4.304  33.719  61.054  1.00  0.00     0.082 C 
HETATM   15  C   UNL     1       5.208  32.510  60.920  1.00  0.00     0.048 C 
ENDBRANCH   3   6
ENDBRANCH   2   3
BRANCH   2  16
HETATM   16  C   UNL     1       8.260  30.264  59.770  1.00  0.00     0.135 C 
BRANCH  16  17
HETATM   17  C   UNL     1       8.935  30.864  58.562  1.00  0.00     0.224 C 
HETATM   18  N   UNL     1       8.870  30.312  57.326  1.00  0.00    -0.327 N 
HETATM   19  H   UNL     1       9.428  30.844  56.663  1.00  0.00     0.169 HD
HETATM   20  O   UNL     1       9.527  31.946  58.694  1.00  0.00    -0.273 OA
BRANCH  18  21
HETATM   21  C   UNL     1       8.173  29.225  56.757  1.00  0.00     0.037 A 
HETATM   22  C   UNL     1       8.534  27.877  56.845  1.00  0.00     0.066 A 
HETATM   23  C   UNL     1       7.728  26.884  56.270  1.00  0.00     0.070 A 
HETATM   24  C   UNL     1       6.556  27.241  55.604  1.00  0.00     0.037 A 
HETATM   25  C   UNL     1       6.186  28.576  55.502  1.00  0.00     0.005 A 
HETATM   26  C   UNL     1       6.990  29.560  56.077  1.00  0.00     0.029 A 
BRANCH  23  27
HETATM   27  O   UNL     1       7.963  25.537  56.299  1.00  0.00    -0.356 OA
HETATM   28  C   UNL     1       8.506  24.981  57.488  1.00  0.00     0.210 C 
ENDBRANCH  23  27
ENDBRANCH  18  21
ENDBRANCH  16  17
ENDBRANCH   2  16
TORSDOF 6
ENDMDL
MODEL 10
REMARK VINA RESULT:      -7.7      6.061      7.916
REMARK  6 active torsions:
REMARK  status: ('A' for Active; 'I' for Inactive)
REMARK    1  A    between atoms: C_2  and  N_3 
REMARK    2  A    between atoms: C_2  and  C_16 
REMARK    3  A    between atoms: N_3  and  C_6 
REMARK    4  A    between atoms: C_16  and  C_17 
REMARK       I    between atoms: C_17  and  N_18 
REMARK    5  A    between atoms: N_18  and  C_19 
REMARK    6  A    between atoms: C_21  and  O_22 
ROOT
HETATM    1  C   UNL     1       4.647  24.607  52.206  1.00  0.00     0.040 C 
HETATM    2  C   UNL     1       4.748  26.118  52.355  1.00  0.00     0.191 C 
ENDROOT
BRANCH   2   3
HETATM    3  N   UNL     1       5.635  26.716  51.278  1.00  0.00    -0.063 N 
HETATM    4  H   UNL     1       6.214  27.412  51.790  1.00  0.00     0.278 HD
HETATM    5  H   UNL     1       6.311  26.021  50.942  1.00  0.00     0.278 HD
BRANCH   3   6
HETATM    6  C   UNL     1       5.064  27.474  50.094  1.00  0.00     0.221 C 
HETATM    7  C   UNL     1       4.154  28.627  50.447  1.00  0.00    -0.011 A 
HETATM    8  C   UNL     1       2.917  28.833  49.812  1.00  0.00     0.009 A 
HETATM    9  C   UNL     1       4.588  29.589  51.386  1.00  0.00     0.011 A 
HETATM   10  C   UNL     1       2.117  29.928  50.171  1.00  0.00     0.019 A 
HETATM   11  S   UNL     1       2.292  27.776  48.521  1.00  0.00    -0.129 SA
HETATM   12  C   UNL     1       2.547  30.844  51.126  1.00  0.00     0.001 A 
HETATM   13  C   UNL     1       3.788  30.679  51.728  1.00  0.00     0.001 A 
HETATM   14  C   UNL     1       3.846  27.092  47.906  1.00  0.00     0.082 C 
HETATM   15  C   UNL     1       4.572  26.441  49.067  1.00  0.00     0.048 C 
ENDBRANCH   3   6
ENDBRANCH   2   3
BRANCH   2  16
HETATM   16  C   UNL     1       5.327  26.475  53.744  1.00  0.00     0.135 C 
BRANCH  16  17
HETATM   17  C   UNL     1       6.777  26.879  53.649  1.00  0.00     0.224 C 
HETATM   18  N   UNL     1       7.801  26.009  53.824  1.00  0.00    -0.327 N 
HETATM   19  H   UNL     1       8.697  26.488  53.764  1.00  0.00     0.169 HD
HETATM   20  O   UNL     1       7.045  28.049  53.336  1.00  0.00    -0.273 OA
BRANCH  18  21
HETATM   21  C   UNL     1       7.901  24.614  54.009  1.00  0.00     0.037 A 
HETATM   22  C   UNL     1       7.929  23.945  55.237  1.00  0.00     0.066 A 
HETATM   23  C   UNL     1       7.986  22.545  55.286  1.00  0.00     0.070 A 
HETATM   24  C   UNL     1       8.016  21.810  54.100  1.00  0.00     0.037 A 
HETATM   25  C   UNL     1       7.994  22.459  52.872  1.00  0.00     0.005 A 
HETATM   26  C   UNL     1       7.937  23.852  52.830  1.00  0.00     0.029 A 
BRANCH  23  27
HETATM   27  O   UNL     1       8.005  21.777  56.417  1.00  0.00    -0.356 OA
HETATM   28  C   UNL     1       8.004  20.365  56.263  1.00  0.00     0.210 C 
ENDBRANCH  23  27
ENDBRANCH  18  21
ENDBRANCH  16  17
ENDBRANCH   2  16
TORSDOF 6
ENDMDL
