MODEL 1
REMARK VINA RESULT:     -10.4      0.000      0.000
REMARK  8 active torsions:
REMARK  status: ('A' for Active; 'I' for Inactive)
REMARK    1  A    between atoms: C_4  and  C_5 
REMARK    2  A    between atoms: C_5  and  N_6 
REMARK       I    between atoms: N_6  and  C_7 
REMARK       I    between atoms: C_7  and  N_8 
REMARK       I    between atoms: N_8  and  C_9 
REMARK    3  A    between atoms: C_9  and  C_10 
REMARK    4  A    between atoms: C_10  and  S_11 
REMARK    5  A    between atoms: S_11  and  C_12 
REMARK    6  A    between atoms: N_13  and  C_14 
REMARK    7  A    between atoms: C_21  and  C_22 
REMARK    8  A    between atoms: C_22  and  N_23 
ROOT
HETATM    1  C   UNL     1       8.062  27.005  56.208  1.00  0.00     0.196 A 
HETATM    2  N   UNL     1       7.338  26.003  55.588  1.00  0.00    -0.274 N 
HETATM    3  C   UNL     1       7.357  24.962  56.507  1.00  0.00     0.161 A 
HETATM    4  N   UNL     1       8.055  25.316  57.570  1.00  0.00    -0.132 NA
HETATM    5  N   UNL     1       8.487  26.599  57.383  1.00  0.00    -0.122 NA
ENDROOT
BRANCH   1   6
HETATM    6  S   UNL     1       8.172  28.633  55.626  1.00  0.00    -0.080 SA
BRANCH   6   7
HETATM    7  C   UNL     1       8.253  29.563  57.188  1.00  0.00     0.185 C 
BRANCH   7   8
HETATM    8  C   UNL     1       6.918  30.213  57.542  1.00  0.00     0.235 C 
HETATM    9  N   UNL     1       6.789  30.810  58.779  1.00  0.00    -0.279 N 
HETATM   10  C   UNL     1       7.698  30.870  59.813  1.00  0.00     0.323 C 
HETATM   11  H   UNL     1       5.862  31.159  58.962  1.00  0.00     0.173 HD
HETATM   12  N   UNL     1       7.156  31.435  60.940  1.00  0.00    -0.339 N 
HETATM   13  O   UNL     1       8.846  30.455  59.756  1.00  0.00    -0.247 OA
HETATM   14  H   UNL     1       6.414  32.110  60.831  1.00  0.00     0.164 HD
HETATM   15  O   UNL     1       5.944  30.244  56.782  1.00  0.00    -0.272 OA
BRANCH  12  16
HETATM   16  C   UNL     1       7.960  31.570  62.137  1.00  0.00     0.162 C 
BRANCH  16  17
HETATM   17  C   UNL     1       7.206  32.325  63.198  1.00  0.00    -0.040 A 
HETATM   18  C   UNL     1       5.804  32.311  63.218  1.00  0.00     0.009 A 
HETATM   19  C   UNL     1       5.102  33.029  64.187  1.00  0.00     0.001 A 
HETATM   20  C   UNL     1       5.793  33.771  65.142  1.00  0.00     0.000 A 
HETATM   21  C   UNL     1       7.187  33.796  65.130  1.00  0.00     0.001 A 
HETATM   22  C   UNL     1       7.891  33.078  64.162  1.00  0.00     0.009 A 
ENDBRANCH  16  17
ENDBRANCH  12  16
ENDBRANCH   7   8
ENDBRANCH   6   7
ENDBRANCH   1   6
BRANCH   2  23
HETATM   23  C   UNL     1       6.751  25.993  54.297  1.00  0.00     0.043 A 
HETATM   24  C   UNL     1       5.388  26.287  54.150  1.00  0.00     0.032 A 
HETATM   25  C   UNL     1       4.809  26.292  52.878  1.00  0.00     0.026 A 
HETATM   26  C   UNL     1       5.584  25.997  51.760  1.00  0.00     0.034 A 
HETATM   27 CL   UNL     1       4.871  26.002  50.197  1.00  0.00    -0.084 Cl
HETATM   28  C   UNL     1       6.937  25.691  51.902  1.00  0.00     0.026 A 
HETATM   29  C   UNL     1       7.525  25.688  53.171  1.00  0.00     0.032 A 
ENDBRANCH   2  23
BRANCH   3  30
HETATM   30  C   UNL     1       6.837  23.586  56.291  1.00  0.00     0.315 C 
BRANCH  30  31
HETATM   31  N   UNL     1       7.883  22.682  55.643  1.00  0.00    -0.064 N 
HETATM   32  H   UNL     1       8.758  23.231  55.687  1.00  0.00     0.280 HD
HETATM   33  C   UNL     1       8.130  21.425  56.447  1.00  0.00     0.235 C 
HETATM   34  C   UNL     1       9.273  20.637  55.823  1.00  0.00     0.028 C 
HETATM   35  C   UNL     1       9.001  20.322  54.357  1.00  0.00     0.003 C 
HETATM   36  C   UNL     1       8.703  21.594  53.572  1.00  0.00     0.028 C 
HETATM   37  C   UNL     1       7.571  22.396  54.200  1.00  0.00     0.235 C 
ENDBRANCH  30  31
ENDBRANCH   3  30
TORSDOF 8
ENDMDL
MODEL 2
REMARK VINA RESULT:     -10.0      1.922      2.129
REMARK  8 active torsions:
REMARK  status: ('A' for Active; 'I' for Inactive)
REMARK    1  A    between atoms: C_4  and  C_5 
REMARK    2  A    between atoms: C_5  and  N_6 
REMARK       I    between atoms: N_6  and  C_7 
REMARK       I    between atoms: C_7  and  N_8 
REMARK       I    between atoms: N_8  and  C_9 
REMARK    3  A    between atoms: C_9  and  C_10 
REMARK    4  A    between atoms: C_10  and  S_11 
REMARK    5  A    between atoms: S_11  and  C_12 
REMARK    6  A    between atoms: N_13  and  C_14 
REMARK    7  A    between atoms: C_21  and  C_22 
REMARK    8  A    between atoms: C_22  and  N_23 
ROOT
HETATM    1  C   UNL     1       7.828  27.820  56.970  1.00  0.00     0.196 A 
HETATM    2  N   UNL     1       6.938  27.191  56.118  1.00  0.00    -0.274 N 
HETATM    3  C   UNL     1       6.934  25.873  56.556  1.00  0.00     0.161 A 
HETATM    4  N   UNL     1       7.772  25.735  57.567  1.00  0.00    -0.132 NA
HETATM    5  N   UNL     1       8.322  26.958  57.829  1.00  0.00    -0.122 NA
ENDROOT
BRANCH   1   6
HETATM    6  S   UNL     1       8.060  29.535  57.048  1.00  0.00    -0.080 SA
BRANCH   6   7
HETATM    7  C   UNL     1       9.607  29.641  57.999  1.00  0.00     0.185 C 
BRANCH   7   8
HETATM    8  C   UNL     1      10.041  31.085  58.236  1.00  0.00     0.235 C 
HETATM    9  N   UNL     1       9.764  31.659  59.460  1.00  0.00    -0.279 N 
HETATM   10  C   UNL     1       9.081  31.129  60.532  1.00  0.00     0.323 C 
HETATM   11  H   UNL     1      10.023  32.631  59.516  1.00  0.00     0.173 HD
HETATM   12  N   UNL     1       8.890  32.054  61.528  1.00  0.00    -0.339 N 
HETATM   13  O   UNL     1       8.668  29.980  60.597  1.00  0.00    -0.247 OA
HETATM   14  H   UNL     1       9.565  32.797  61.629  1.00  0.00     0.164 HD
HETATM   15  O   UNL     1      10.634  31.772  57.398  1.00  0.00    -0.272 OA
BRANCH  12  16
HETATM   16  C   UNL     1       8.178  31.681  62.732  1.00  0.00     0.162 C 
BRANCH  16  17
HETATM   17  C   UNL     1       7.393  32.849  63.265  1.00  0.00    -0.040 A 
HETATM   18  C   UNL     1       6.651  33.662  62.395  1.00  0.00     0.009 A 
HETATM   19  C   UNL     1       5.941  34.760  62.883  1.00  0.00     0.001 A 
HETATM   20  C   UNL     1       5.968  35.059  64.244  1.00  0.00     0.000 A 
HETATM   21  C   UNL     1       6.706  34.261  65.118  1.00  0.00     0.001 A 
HETATM   22  C   UNL     1       7.416  33.162  64.631  1.00  0.00     0.009 A 
ENDBRANCH  16  17
ENDBRANCH  12  16
ENDBRANCH   7   8
ENDBRANCH   6   7
ENDBRANCH   1   6
BRANCH   2  23
HETATM   23  C   UNL     1       6.226  27.728  55.016  1.00  0.00     0.043 A 
HETATM   24  C   UNL     1       4.904  28.161  55.186  1.00  0.00     0.032 A 
HETATM   25  C   UNL     1       4.203  28.703  54.105  1.00  0.00     0.026 A 
HETATM   26  C   UNL     1       4.815  28.805  52.860  1.00  0.00     0.034 A 
HETATM   27 CL   UNL     1       3.953  29.471  51.532  1.00  0.00    -0.084 Cl
HETATM   28  C   UNL     1       6.127  28.365  52.682  1.00  0.00     0.026 A 
HETATM   29  C   UNL     1       6.836  27.825  53.759  1.00  0.00     0.032 A 
ENDBRANCH   2  23
BRANCH   3  30
HETATM   30  C   UNL     1       6.245  24.730  55.902  1.00  0.00     0.315 C 
BRANCH  30  31
HETATM   31  N   UNL     1       7.188  23.949  54.990  1.00  0.00    -0.064 N 
HETATM   32  H   UNL     1       8.099  24.426  55.094  1.00  0.00     0.280 HD
HETATM   33  C   UNL     1       7.398  22.528  55.465  1.00  0.00     0.235 C 
HETATM   34  C   UNL     1       8.447  21.849  54.596  1.00  0.00     0.028 C 
HETATM   35  C   UNL     1       8.068  21.898  53.121  1.00  0.00     0.003 C 
HETATM   36  C   UNL     1       7.809  23.331  52.671  1.00  0.00     0.028 C 
HETATM   37  C   UNL     1       6.772  24.022  53.546  1.00  0.00     0.235 C 
ENDBRANCH  30  31
ENDBRANCH   3  30
TORSDOF 8
ENDMDL
MODEL 3
REMARK VINA RESULT:      -9.9      3.071      9.967
REMARK  8 active torsions:
REMARK  status: ('A' for Active; 'I' for Inactive)
REMARK    1  A    between atoms: C_4  and  C_5 
REMARK    2  A    between atoms: C_5  and  N_6 
REMARK       I    between atoms: N_6  and  C_7 
REMARK       I    between atoms: C_7  and  N_8 
REMARK       I    between atoms: N_8  and  C_9 
REMARK    3  A    between atoms: C_9  and  C_10 
REMARK    4  A    between atoms: C_10  and  S_11 
REMARK    5  A    between atoms: S_11  and  C_12 
REMARK    6  A    between atoms: N_13  and  C_14 
REMARK    7  A    between atoms: C_21  and  C_22 
REMARK    8  A    between atoms: C_22  and  N_23 
ROOT
HETATM    1  C   UNL     1       6.145  28.433  57.292  1.00  0.00     0.196 A 
HETATM    2  N   UNL     1       6.381  29.760  57.603  1.00  0.00    -0.274 N 
HETATM    3  C   UNL     1       7.666  29.752  58.132  1.00  0.00     0.161 A 
HETATM    4  N   UNL     1       8.134  28.518  58.152  1.00  0.00    -0.132 NA
HETATM    5  N   UNL     1       7.183  27.696  57.616  1.00  0.00    -0.122 NA
ENDROOT
BRANCH   1   6
HETATM    6  S   UNL     1       4.783  27.872  56.379  1.00  0.00    -0.080 SA
BRANCH   6   7
HETATM    7  C   UNL     1       5.253  28.374  54.694  1.00  0.00     0.185 C 
BRANCH   7   8
HETATM    8  C   UNL     1       4.543  27.546  53.627  1.00  0.00     0.235 C 
HETATM    9  N   UNL     1       5.191  26.440  53.117  1.00  0.00    -0.279 N 
HETATM   10  C   UNL     1       6.456  25.972  53.396  1.00  0.00     0.323 C 
HETATM   11  H   UNL     1       4.686  25.985  52.375  1.00  0.00     0.173 HD
HETATM   12  N   UNL     1       6.802  24.916  52.589  1.00  0.00    -0.339 N 
HETATM   13  O   UNL     1       7.204  26.442  54.241  1.00  0.00    -0.247 OA
HETATM   14  H   UNL     1       6.068  24.319  52.238  1.00  0.00     0.164 HD
HETATM   15  O   UNL     1       3.415  27.804  53.193  1.00  0.00    -0.272 OA
BRANCH  12  16
HETATM   16  C   UNL     1       8.105  24.299  52.727  1.00  0.00     0.162 C 
BRANCH  16  17
HETATM   17  C   UNL     1       8.008  23.032  53.532  1.00  0.00    -0.040 A 
HETATM   18  C   UNL     1       7.945  21.786  52.889  1.00  0.00     0.009 A 
HETATM   19  C   UNL     1       7.830  20.610  53.633  1.00  0.00     0.001 A 
HETATM   20  C   UNL     1       7.774  20.668  55.024  1.00  0.00     0.000 A 
HETATM   21  C   UNL     1       7.831  21.900  55.674  1.00  0.00     0.001 A 
HETATM   22  C   UNL     1       7.945  23.077  54.932  1.00  0.00     0.009 A 
ENDBRANCH  16  17
ENDBRANCH  12  16
ENDBRANCH   7   8
ENDBRANCH   6   7
ENDBRANCH   1   6
BRANCH   2  23
HETATM   23  C   UNL     1       5.517  30.876  57.473  1.00  0.00     0.043 A 
HETATM   24  C   UNL     1       4.632  31.196  58.512  1.00  0.00     0.032 A 
HETATM   25  C   UNL     1       3.788  32.304  58.393  1.00  0.00     0.026 A 
HETATM   26  C   UNL     1       3.821  33.082  57.239  1.00  0.00     0.034 A 
HETATM   27 CL   UNL     1       2.783  34.443  57.093  1.00  0.00    -0.084 Cl
HETATM   28  C   UNL     1       4.691  32.760  56.197  1.00  0.00     0.026 A 
HETATM   29  C   UNL     1       5.541  31.657  56.311  1.00  0.00     0.032 A 
ENDBRANCH   2  23
BRANCH   3  30
HETATM   30  C   UNL     1       8.368  30.904  58.756  1.00  0.00     0.315 C 
BRANCH  30  31
HETATM   31  N   UNL     1       7.963  31.090  60.216  1.00  0.00    -0.064 N 
HETATM   32  H   UNL     1       7.191  30.417  60.355  1.00  0.00     0.280 HD
HETATM   33  C   UNL     1       9.061  30.679  61.172  1.00  0.00     0.235 C 
HETATM   34  C   UNL     1       8.549  30.759  62.602  1.00  0.00     0.028 C 
HETATM   35  C   UNL     1       8.012  32.148  62.927  1.00  0.00     0.003 C 
HETATM   36  C   UNL     1       6.944  32.568  61.925  1.00  0.00     0.028 C 
HETATM   37  C   UNL     1       7.444  32.475  60.490  1.00  0.00     0.235 C 
ENDBRANCH  30  31
ENDBRANCH   3  30
TORSDOF 8
ENDMDL
MODEL 4
REMARK VINA RESULT:      -9.7      3.143      5.366
REMARK  8 active torsions:
REMARK  status: ('A' for Active; 'I' for Inactive)
REMARK    1  A    between atoms: C_4  and  C_5 
REMARK    2  A    between atoms: C_5  and  N_6 
REMARK       I    between atoms: N_6  and  C_7 
REMARK       I    between atoms: C_7  and  N_8 
REMARK       I    between atoms: N_8  and  C_9 
REMARK    3  A    between atoms: C_9  and  C_10 
REMARK    4  A    between atoms: C_10  and  S_11 
REMARK    5  A    between atoms: S_11  and  C_12 
REMARK    6  A    between atoms: N_13  and  C_14 
REMARK    7  A    between atoms: C_21  and  C_22 
REMARK    8  A    between atoms: C_22  and  N_23 
ROOT
HETATM    1  C   UNL     1       4.344  28.644  54.309  1.00  0.00     0.196 A 
HETATM    2  N   UNL     1       4.959  28.052  53.220  1.00  0.00    -0.274 N 
HETATM    3  C   UNL     1       4.674  28.914  52.169  1.00  0.00     0.161 A 
HETATM    4  N   UNL     1       3.933  29.917  52.601  1.00  0.00    -0.132 NA
HETATM    5  N   UNL     1       3.735  29.749  53.943  1.00  0.00    -0.122 NA
ENDROOT
BRANCH   1   6
HETATM    6  S   UNL     1       4.560  28.132  55.950  1.00  0.00    -0.080 SA
BRANCH   6   7
HETATM    7  C   UNL     1       6.144  28.926  56.364  1.00  0.00     0.185 C 
BRANCH   7   8
HETATM    8  C   UNL     1       6.900  28.172  57.454  1.00  0.00     0.235 C 
HETATM    9  N   UNL     1       7.492  28.902  58.465  1.00  0.00    -0.279 N 
HETATM   10  C   UNL     1       7.555  30.268  58.625  1.00  0.00     0.323 C 
HETATM   11  H   UNL     1       8.023  28.339  59.108  1.00  0.00     0.173 HD
HETATM   12  N   UNL     1       8.348  30.624  59.687  1.00  0.00    -0.339 N 
HETATM   13  O   UNL     1       6.996  31.082  57.903  1.00  0.00    -0.247 OA
HETATM   14  H   UNL     1       8.429  29.983  60.463  1.00  0.00     0.164 HD
HETATM   15  O   UNL     1       7.009  26.942  57.491  1.00  0.00    -0.272 OA
BRANCH  12  16
HETATM   16  C   UNL     1       8.545  32.024  60.003  1.00  0.00     0.162 C 
BRANCH  16  17
HETATM   17  C   UNL     1       7.865  32.375  61.299  1.00  0.00    -0.040 A 
HETATM   18  C   UNL     1       6.529  32.802  61.305  1.00  0.00     0.009 A 
HETATM   19  C   UNL     1       5.903  33.152  62.503  1.00  0.00     0.001 A 
HETATM   20  C   UNL     1       6.606  33.081  63.704  1.00  0.00     0.000 A 
HETATM   21  C   UNL     1       7.936  32.661  63.709  1.00  0.00     0.001 A 
HETATM   22  C   UNL     1       8.564  32.312  62.512  1.00  0.00     0.009 A 
ENDBRANCH  16  17
ENDBRANCH  12  16
ENDBRANCH   7   8
ENDBRANCH   6   7
ENDBRANCH   1   6
BRANCH   2  23
HETATM   23  C   UNL     1       5.672  26.828  53.154  1.00  0.00     0.043 A 
HETATM   24  C   UNL     1       4.981  25.632  52.920  1.00  0.00     0.032 A 
HETATM   25  C   UNL     1       5.683  24.425  52.840  1.00  0.00     0.026 A 
HETATM   26  C   UNL     1       7.065  24.413  53.000  1.00  0.00     0.034 A 
HETATM   27 CL   UNL     1       7.927  22.930  52.903  1.00  0.00    -0.084 Cl
HETATM   28  C   UNL     1       7.756  25.600  53.246  1.00  0.00     0.026 A 
HETATM   29  C   UNL     1       7.062  26.811  53.323  1.00  0.00     0.032 A 
ENDBRANCH   2  23
BRANCH   3  30
HETATM   30  C   UNL     1       4.986  28.686  50.734  1.00  0.00     0.315 C 
BRANCH  30  31
HETATM   31  N   UNL     1       3.930  27.815  50.058  1.00  0.00    -0.064 N 
HETATM   32  H   UNL     1       3.452  27.339  50.841  1.00  0.00     0.280 HD
HETATM   33  C   UNL     1       2.873  28.638  49.355  1.00  0.00     0.235 C 
HETATM   34  C   UNL     1       1.783  27.721  48.821  1.00  0.00     0.028 C 
HETATM   35  C   UNL     1       2.356  26.644  47.908  1.00  0.00     0.003 C 
HETATM   36  C   UNL     1       3.454  25.858  48.613  1.00  0.00     0.028 C 
HETATM   37  C   UNL     1       4.541  26.771  49.164  1.00  0.00     0.235 C 
ENDBRANCH  30  31
ENDBRANCH   3  30
TORSDOF 8
ENDMDL
MODEL 5
REMARK VINA RESULT:      -9.6      2.506      4.822
REMARK  8 active torsions:
REMARK  status: ('A' for Active; 'I' for Inactive)
REMARK    1  A    between atoms: C_4  and  C_5 
REMARK    2  A    between atoms: C_5  and  N_6 
REMARK       I    between atoms: N_6  and  C_7 
REMARK       I    between atoms: C_7  and  N_8 
REMARK       I    between atoms: N_8  and  C_9 
REMARK    3  A    between atoms: C_9  and  C_10 
REMARK    4  A    between atoms: C_10  and  S_11 
REMARK    5  A    between atoms: S_11  and  C_12 
REMARK    6  A    between atoms: N_13  and  C_14 
REMARK    7  A    between atoms: C_21  and  C_22 
REMARK    8  A    between atoms: C_22  and  N_23 
ROOT
HETATM    1  C   UNL     1       6.480  27.678  55.245  1.00  0.00     0.196 A 
HETATM    2  N   UNL     1       6.181  26.748  54.266  1.00  0.00    -0.274 N 
HETATM    3  C   UNL     1       5.119  27.321  53.577  1.00  0.00     0.161 A 
HETATM    4  N   UNL     1       4.805  28.481  54.124  1.00  0.00    -0.132 NA
HETATM    5  N   UNL     1       5.665  28.706  55.162  1.00  0.00    -0.122 NA
ENDROOT
BRANCH   1   6
HETATM    6  S   UNL     1       7.879  27.608  56.264  1.00  0.00    -0.080 SA
BRANCH   6   7
HETATM    7  C   UNL     1       8.504  29.311  56.127  1.00  0.00     0.185 C 
BRANCH   7   8
HETATM    8  C   UNL     1       9.549  29.630  57.193  1.00  0.00     0.235 C 
HETATM    9  N   UNL     1       9.155  30.350  58.301  1.00  0.00    -0.279 N 
HETATM   10  C   UNL     1       7.923  30.895  58.588  1.00  0.00     0.323 C 
HETATM   11  H   UNL     1       9.913  30.574  58.926  1.00  0.00     0.173 HD
HETATM   12  N   UNL     1       7.952  31.659  59.728  1.00  0.00    -0.339 N 
HETATM   13  O   UNL     1       6.918  30.746  57.907  1.00  0.00    -0.247 OA
HETATM   14  H   UNL     1       8.622  31.425  60.446  1.00  0.00     0.164 HD
HETATM   15  O   UNL     1      10.731  29.275  57.126  1.00  0.00    -0.272 OA
BRANCH  12  16
HETATM   16  C   UNL     1       6.750  32.326  60.181  1.00  0.00     0.162 C 
BRANCH  16  17
HETATM   17  C   UNL     1       6.918  32.818  61.593  1.00  0.00    -0.040 A 
HETATM   18  C   UNL     1       7.869  32.231  62.441  1.00  0.00     0.009 A 
HETATM   19  C   UNL     1       8.010  32.669  63.758  1.00  0.00     0.001 A 
HETATM   20  C   UNL     1       7.201  33.695  64.243  1.00  0.00     0.000 A 
HETATM   21  C   UNL     1       6.249  34.284  63.411  1.00  0.00     0.001 A 
HETATM   22  C   UNL     1       6.106  33.846  62.093  1.00  0.00     0.009 A 
ENDBRANCH  16  17
ENDBRANCH  12  16
ENDBRANCH   7   8
ENDBRANCH   6   7
ENDBRANCH   1   6
BRANCH   2  23
HETATM   23  C   UNL     1       6.767  25.479  54.030  1.00  0.00     0.043 A 
HETATM   24  C   UNL     1       7.496  25.256  52.854  1.00  0.00     0.032 A 
HETATM   25  C   UNL     1       8.087  24.010  52.625  1.00  0.00     0.026 A 
HETATM   26  C   UNL     1       7.944  22.990  53.561  1.00  0.00     0.034 A 
HETATM   27 CL   UNL     1       8.670  21.459  53.279  1.00  0.00    -0.084 Cl
HETATM   28  C   UNL     1       7.210  23.203  54.728  1.00  0.00     0.026 A 
HETATM   29  C   UNL     1       6.619  24.447  54.966  1.00  0.00     0.032 A 
ENDBRANCH   2  23
BRANCH   3  30
HETATM   30  C   UNL     1       4.318  26.680  52.503  1.00  0.00     0.315 C 
BRANCH  30  31
HETATM   31  N   UNL     1       4.424  27.444  51.185  1.00  0.00    -0.064 N 
HETATM   32  H   UNL     1       3.541  27.978  51.127  1.00  0.00     0.280 HD
HETATM   33  C   UNL     1       5.537  28.469  51.206  1.00  0.00     0.235 C 
HETATM   34  C   UNL     1       5.503  29.285  49.923  1.00  0.00     0.028 C 
HETATM   35  C   UNL     1       5.584  28.393  48.690  1.00  0.00     0.003 C 
HETATM   36  C   UNL     1       4.488  27.334  48.710  1.00  0.00     0.028 C 
HETATM   37  C   UNL     1       4.506  26.524  49.999  1.00  0.00     0.235 C 
ENDBRANCH  30  31
ENDBRANCH   3  30
TORSDOF 8
ENDMDL
MODEL 6
REMARK VINA RESULT:      -9.4      2.784      4.214
REMARK  8 active torsions:
REMARK  status: ('A' for Active; 'I' for Inactive)
REMARK    1  A    between atoms: C_4  and  C_5 
REMARK    2  A    between atoms: C_5  and  N_6 
REMARK       I    between atoms: N_6  and  C_7 
REMARK       I    between atoms: C_7  and  N_8 
REMARK       I    between atoms: N_8  and  C_9 
REMARK    3  A    between atoms: C_9  and  C_10 
REMARK    4  A    between atoms: C_10  and  S_11 
REMARK    5  A    between atoms: S_11  and  C_12 
REMARK    6  A    between atoms: N_13  and  C_14 
REMARK    7  A    between atoms: C_21  and  C_22 
REMARK    8  A    between atoms: C_22  and  N_23 
ROOT
HETATM    1  C   UNL     1       4.996  29.447  56.124  1.00  0.00     0.196 A 
HETATM    2  N   UNL     1       6.075  28.647  56.454  1.00  0.00    -0.274 N 
HETATM    3  C   UNL     1       5.526  27.376  56.559  1.00  0.00     0.161 A 
HETATM    4  N   UNL     1       4.227  27.429  56.333  1.00  0.00    -0.132 NA
HETATM    5  N   UNL     1       3.900  28.726  56.051  1.00  0.00    -0.122 NA
ENDROOT
BRANCH   1   6
HETATM    6  S   UNL     1       5.123  31.104  55.633  1.00  0.00    -0.080 SA
BRANCH   6   7
HETATM    7  C   UNL     1       5.395  31.928  57.233  1.00  0.00     0.185 C 
BRANCH   7   8
HETATM    8  C   UNL     1       4.270  31.648  58.225  1.00  0.00     0.235 C 
HETATM    9  N   UNL     1       4.551  31.731  59.573  1.00  0.00    -0.279 N 
HETATM   10  C   UNL     1       5.753  31.988  60.195  1.00  0.00     0.323 C 
HETATM   11  H   UNL     1       3.776  31.471  60.162  1.00  0.00     0.173 HD
HETATM   12  N   UNL     1       5.665  31.857  61.558  1.00  0.00    -0.339 N 
HETATM   13  O   UNL     1       6.789  32.279  59.615  1.00  0.00    -0.247 OA
HETATM   14  H   UNL     1       4.776  32.035  62.002  1.00  0.00     0.164 HD
HETATM   15  O   UNL     1       3.116  31.357  57.894  1.00  0.00    -0.272 OA
BRANCH  12  16
HETATM   16  C   UNL     1       6.836  32.075  62.381  1.00  0.00     0.162 C 
BRANCH  16  17
HETATM   17  C   UNL     1       6.464  32.795  63.649  1.00  0.00    -0.040 A 
HETATM   18  C   UNL     1       7.459  33.210  64.547  1.00  0.00     0.009 A 
HETATM   19  C   UNL     1       7.115  33.857  65.735  1.00  0.00     0.001 A 
HETATM   20  C   UNL     1       5.776  34.092  66.040  1.00  0.00     0.000 A 
HETATM   21  C   UNL     1       4.778  33.681  65.156  1.00  0.00     0.001 A 
HETATM   22  C   UNL     1       5.120  33.033  63.968  1.00  0.00     0.009 A 
ENDBRANCH  16  17
ENDBRANCH  12  16
ENDBRANCH   7   8
ENDBRANCH   6   7
ENDBRANCH   1   6
BRANCH   2  23
HETATM   23  C   UNL     1       7.424  29.019  56.689  1.00  0.00     0.043 A 
HETATM   24  C   UNL     1       8.343  29.007  55.632  1.00  0.00     0.032 A 
HETATM   25  C   UNL     1       9.670  29.386  55.857  1.00  0.00     0.026 A 
HETATM   26  C   UNL     1      10.078  29.766  57.132  1.00  0.00     0.034 A 
HETATM   27 CL   UNL     1      11.708  30.231  57.409  1.00  0.00    -0.084 Cl
HETATM   28  C   UNL     1       9.169  29.768  58.191  1.00  0.00     0.026 A 
HETATM   29  C   UNL     1       7.840  29.394  57.973  1.00  0.00     0.032 A 
ENDBRANCH   2  23
BRANCH   3  30
HETATM   30  C   UNL     1       6.226  26.151  57.028  1.00  0.00     0.315 C 
BRANCH  30  31
HETATM   31  N   UNL     1       6.946  25.439  55.885  1.00  0.00    -0.064 N 
HETATM   32  H   UNL     1       7.668  26.112  55.578  1.00  0.00     0.280 HD
HETATM   33  C   UNL     1       7.688  24.208  56.355  1.00  0.00     0.235 C 
HETATM   34  C   UNL     1       8.491  23.624  55.201  1.00  0.00     0.028 C 
HETATM   35  C   UNL     1       7.604  23.321  53.999  1.00  0.00     0.003 C 
HETATM   36  C   UNL     1       6.824  24.559  53.571  1.00  0.00     0.028 C 
HETATM   37  C   UNL     1       6.031  25.157  54.725  1.00  0.00     0.235 C 
ENDBRANCH  30  31
ENDBRANCH   3  30
TORSDOF 8
ENDMDL
MODEL 7
REMARK VINA RESULT:      -9.4      2.491      3.647
REMARK  8 active torsions:
REMARK  status: ('A' for Active; 'I' for Inactive)
REMARK    1  A    between atoms: C_4  and  C_5 
REMARK    2  A    between atoms: C_5  and  N_6 
REMARK       I    between atoms: N_6  and  C_7 
REMARK       I    between atoms: C_7  and  N_8 
REMARK       I    between atoms: N_8  and  C_9 
REMARK    3  A    between atoms: C_9  and  C_10 
REMARK    4  A    between atoms: C_10  and  S_11 
REMARK    5  A    between atoms: S_11  and  C_12 
REMARK    6  A    between atoms: N_13  and  C_14 
REMARK    7  A    between atoms: C_21  and  C_22 
REMARK    8  A    between atoms: C_22  and  N_23 
ROOT
HETATM    1  C   UNL     1       5.463  27.107  54.573  1.00  0.00     0.196 A 
HETATM    2  N   UNL     1       6.800  26.808  54.761  1.00  0.00    -0.274 N 
HETATM    3  C   UNL     1       6.918  25.508  54.287  1.00  0.00     0.161 A 
HETATM    4  N   UNL     1       5.742  25.072  53.878  1.00  0.00    -0.132 NA
HETATM    5  N   UNL     1       4.835  26.079  54.049  1.00  0.00    -0.122 NA
ENDROOT
BRANCH   1   6
HETATM    6  S   UNL     1       4.779  28.687  54.767  1.00  0.00    -0.080 SA
BRANCH   6   7
HETATM    7  C   UNL     1       4.838  28.880  56.576  1.00  0.00     0.185 C 
BRANCH   7   8
HETATM    8  C   UNL     1       4.040  30.090  57.053  1.00  0.00     0.235 C 
HETATM    9  N   UNL     1       4.657  30.988  57.900  1.00  0.00    -0.279 N 
HETATM   10  C   UNL     1       5.919  30.936  58.449  1.00  0.00     0.323 C 
HETATM   11  H   UNL     1       4.047  31.723  58.220  1.00  0.00     0.173 HD
HETATM   12  N   UNL     1       6.128  31.946  59.353  1.00  0.00    -0.339 N 
HETATM   13  O   UNL     1       6.758  30.084  58.190  1.00  0.00    -0.247 OA
HETATM   14  H   UNL     1       5.626  32.814  59.229  1.00  0.00     0.164 HD
HETATM   15  O   UNL     1       2.873  30.320  56.720  1.00  0.00    -0.272 OA
BRANCH  12  16
HETATM   16  C   UNL     1       7.396  32.046  60.045  1.00  0.00     0.162 C 
BRANCH  16  17
HETATM   17  C   UNL     1       7.192  32.517  61.459  1.00  0.00    -0.040 A 
HETATM   18  C   UNL     1       6.034  33.229  61.810  1.00  0.00     0.009 A 
HETATM   19  C   UNL     1       5.854  33.687  63.116  1.00  0.00     0.001 A 
HETATM   20  C   UNL     1       6.828  33.444  64.082  1.00  0.00     0.000 A 
HETATM   21  C   UNL     1       7.984  32.741  63.744  1.00  0.00     0.001 A 
HETATM   22  C   UNL     1       8.167  32.282  62.439  1.00  0.00     0.009 A 
ENDBRANCH  16  17
ENDBRANCH  12  16
ENDBRANCH   7   8
ENDBRANCH   6   7
ENDBRANCH   1   6
BRANCH   2  23
HETATM   23  C   UNL     1       7.819  27.602  55.345  1.00  0.00     0.043 A 
HETATM   24  C   UNL     1       8.517  28.528  54.558  1.00  0.00     0.032 A 
HETATM   25  C   UNL     1       9.513  29.322  55.134  1.00  0.00     0.026 A 
HETATM   26  C   UNL     1       9.817  29.185  56.486  1.00  0.00     0.034 A 
HETATM   27 CL   UNL     1      11.042  30.159  57.193  1.00  0.00    -0.084 Cl
HETATM   28  C   UNL     1       9.134  28.255  57.270  1.00  0.00     0.026 A 
HETATM   29  C   UNL     1       8.134  27.461  56.702  1.00  0.00     0.032 A 
ENDBRANCH   2  23
BRANCH   3  30
HETATM   30  C   UNL     1       8.125  24.645  54.376  1.00  0.00     0.315 C 
BRANCH  30  31
HETATM   31  N   UNL     1       7.760  23.162  54.394  1.00  0.00    -0.064 N 
HETATM   32  H   UNL     1       6.732  23.151  54.285  1.00  0.00     0.280 HD
HETATM   33  C   UNL     1       8.320  22.420  53.201  1.00  0.00     0.235 C 
HETATM   34  C   UNL     1       7.811  20.986  53.207  1.00  0.00     0.028 C 
HETATM   35  C   UNL     1       8.143  20.279  54.515  1.00  0.00     0.003 C 
HETATM   36  C   UNL     1       7.617  21.066  55.710  1.00  0.00     0.028 C 
HETATM   37  C   UNL     1       8.110  22.507  55.702  1.00  0.00     0.235 C 
ENDBRANCH  30  31
ENDBRANCH   3  30
TORSDOF 8
ENDMDL
MODEL 8
REMARK VINA RESULT:      -9.1      5.065     10.134
REMARK  8 active torsions:
REMARK  status: ('A' for Active; 'I' for Inactive)
REMARK    1  A    between atoms: C_4  and  C_5 
REMARK    2  A    between atoms: C_5  and  N_6 
REMARK       I    between atoms: N_6  and  C_7 
REMARK       I    between atoms: C_7  and  N_8 
REMARK       I    between atoms: N_8  and  C_9 
REMARK    3  A    between atoms: C_9  and  C_10 
REMARK    4  A    between atoms: C_10  and  S_11 
REMARK    5  A    between atoms: S_11  and  C_12 
REMARK    6  A    between atoms: N_13  and  C_14 
REMARK    7  A    between atoms: C_21  and  C_22 
REMARK    8  A    between atoms: C_22  and  N_23 
ROOT
HETATM    1  C   UNL     1       5.153  26.559  53.861  1.00  0.00     0.196 A 
HETATM    2  N   UNL     1       6.412  26.384  54.405  1.00  0.00    -0.274 N 
HETATM    3  C   UNL     1       6.806  25.136  53.938  1.00  0.00     0.161 A 
HETATM    4  N   UNL     1       5.845  24.612  53.200  1.00  0.00    -0.132 NA
HETATM    5  N   UNL     1       4.816  25.509  53.146  1.00  0.00    -0.122 NA
ENDROOT
BRANCH   1   6
HETATM    6  S   UNL     1       4.265  28.045  53.911  1.00  0.00    -0.080 SA
BRANCH   6   7
HETATM    7  C   UNL     1       5.044  28.970  52.551  1.00  0.00     0.185 C 
BRANCH   7   8
HETATM    8  C   UNL     1       4.171  30.122  52.061  1.00  0.00     0.235 C 
HETATM    9  N   UNL     1       3.492  29.968  50.870  1.00  0.00    -0.279 N 
HETATM   10  C   UNL     1       3.520  28.911  49.986  1.00  0.00     0.323 C 
HETATM   11  H   UNL     1       2.990  30.792  50.584  1.00  0.00     0.173 HD
HETATM   12  N   UNL     1       2.813  29.181  48.841  1.00  0.00    -0.339 N 
HETATM   13  O   UNL     1       4.116  27.860  50.174  1.00  0.00    -0.247 OA
HETATM   14  H   UNL     1       2.034  29.822  48.897  1.00  0.00     0.164 HD
HETATM   15  O   UNL     1       4.027  31.186  52.673  1.00  0.00    -0.272 OA
BRANCH  12  16
HETATM   16  C   UNL     1       2.740  28.190  47.787  1.00  0.00     0.162 C 
BRANCH  16  17
HETATM   17  C   UNL     1       1.506  28.396  46.952  1.00  0.00    -0.040 A 
HETATM   18  C   UNL     1       0.725  27.300  46.558  1.00  0.00     0.009 A 
HETATM   19  C   UNL     1      -0.407  27.486  45.763  1.00  0.00     0.001 A 
HETATM   20  C   UNL     1      -0.767  28.767  45.350  1.00  0.00     0.000 A 
HETATM   21  C   UNL     1       0.005  29.864  45.731  1.00  0.00     0.001 A 
HETATM   22  C   UNL     1       1.137  29.680  46.527  1.00  0.00     0.009 A 
ENDBRANCH  16  17
ENDBRANCH  12  16
ENDBRANCH   7   8
ENDBRANCH   6   7
ENDBRANCH   1   6
BRANCH   2  23
HETATM   23  C   UNL     1       7.133  27.236  55.280  1.00  0.00     0.043 A 
HETATM   24  C   UNL     1       7.012  27.074  56.667  1.00  0.00     0.032 A 
HETATM   25  C   UNL     1       7.732  27.903  57.531  1.00  0.00     0.026 A 
HETATM   26  C   UNL     1       8.562  28.894  57.014  1.00  0.00     0.034 A 
HETATM   27 CL   UNL     1       9.446  29.914  58.077  1.00  0.00    -0.084 Cl
HETATM   28  C   UNL     1       8.676  29.067  55.635  1.00  0.00     0.026 A 
HETATM   29  C   UNL     1       7.963  28.239  54.764  1.00  0.00     0.032 A 
ENDBRANCH   2  23
BRANCH   3  30
HETATM   30  C   UNL     1       8.032  24.396  54.332  1.00  0.00     0.315 C 
BRANCH  30  31
HETATM   31  N   UNL     1       7.781  22.892  54.423  1.00  0.00    -0.064 N 
HETATM   32  H   UNL     1       6.771  22.790  54.227  1.00  0.00     0.280 HD
HETATM   33  C   UNL     1       8.502  22.124  53.338  1.00  0.00     0.235 C 
HETATM   34  C   UNL     1       8.104  20.657  53.400  1.00  0.00     0.028 C 
HETATM   35  C   UNL     1       8.368  20.064  54.779  1.00  0.00     0.003 C 
HETATM   36  C   UNL     1       7.676  20.879  55.865  1.00  0.00     0.028 C 
HETATM   37  C   UNL     1       8.058  22.352  55.799  1.00  0.00     0.235 C 
ENDBRANCH  30  31
ENDBRANCH   3  30
TORSDOF 8
ENDMDL
MODEL 9
REMARK VINA RESULT:      -9.0      5.415      9.363
REMARK  8 active torsions:
REMARK  status: ('A' for Active; 'I' for Inactive)
REMARK    1  A    between atoms: C_4  and  C_5 
REMARK    2  A    between atoms: C_5  and  N_6 
REMARK       I    between atoms: N_6  and  C_7 
REMARK       I    between atoms: C_7  and  N_8 
REMARK       I    between atoms: N_8  and  C_9 
REMARK    3  A    between atoms: C_9  and  C_10 
REMARK    4  A    between atoms: C_10  and  S_11 
REMARK    5  A    between atoms: S_11  and  C_12 
REMARK    6  A    between atoms: N_13  and  C_14 
REMARK    7  A    between atoms: C_21  and  C_22 
REMARK    8  A    between atoms: C_22  and  N_23 
ROOT
HETATM    1  C   UNL     1       5.188  26.330  53.493  1.00  0.00     0.196 A 
HETATM    2  N   UNL     1       6.308  26.240  54.300  1.00  0.00    -0.274 N 
HETATM    3  C   UNL     1       6.744  24.933  54.118  1.00  0.00     0.161 A 
HETATM    4  N   UNL     1       5.931  24.302  53.292  1.00  0.00    -0.132 NA
HETATM    5  N   UNL     1       4.964  25.182  52.895  1.00  0.00    -0.122 NA
ENDROOT
BRANCH   1   6
HETATM    6  S   UNL     1       4.358  27.808  53.135  1.00  0.00    -0.080 SA
BRANCH   6   7
HETATM    7  C   UNL     1       5.503  28.580  51.950  1.00  0.00     0.185 C 
BRANCH   7   8
HETATM    8  C   UNL     1       5.249  28.118  50.518  1.00  0.00     0.235 C 
HETATM    9  N   UNL     1       5.093  29.078  49.539  1.00  0.00    -0.279 N 
HETATM   10  C   UNL     1       5.078  30.450  49.664  1.00  0.00     0.323 C 
HETATM   11  H   UNL     1       4.866  28.697  48.635  1.00  0.00     0.173 HD
HETATM   12  N   UNL     1       4.763  31.069  48.481  1.00  0.00    -0.339 N 
HETATM   13  O   UNL     1       5.296  31.058  50.702  1.00  0.00    -0.247 OA
HETATM   14  H   UNL     1       5.003  30.606  47.616  1.00  0.00     0.164 HD
HETATM   15  O   UNL     1       5.182  26.932  50.178  1.00  0.00    -0.272 OA
BRANCH  12  16
HETATM   16  C   UNL     1       4.686  32.514  48.421  1.00  0.00     0.162 C 
BRANCH  16  17
HETATM   17  C   UNL     1       5.838  33.074  47.632  1.00  0.00    -0.040 A 
HETATM   18  C   UNL     1       6.929  33.662  48.289  1.00  0.00     0.009 A 
HETATM   19  C   UNL     1       7.988  34.203  47.559  1.00  0.00     0.001 A 
HETATM   20  C   UNL     1       7.967  34.166  46.166  1.00  0.00     0.000 A 
HETATM   21  C   UNL     1       6.886  33.587  45.502  1.00  0.00     0.001 A 
HETATM   22  C   UNL     1       5.825  33.046  46.230  1.00  0.00     0.009 A 
ENDBRANCH  16  17
ENDBRANCH  12  16
ENDBRANCH   7   8
ENDBRANCH   6   7
ENDBRANCH   1   6
BRANCH   2  23
HETATM   23  C   UNL     1       6.870  27.217  55.160  1.00  0.00     0.043 A 
HETATM   24  C   UNL     1       6.407  27.335  56.477  1.00  0.00     0.032 A 
HETATM   25  C   UNL     1       6.968  28.288  57.332  1.00  0.00     0.026 A 
HETATM   26  C   UNL     1       7.981  29.124  56.871  1.00  0.00     0.034 A 
HETATM   27 CL   UNL     1       8.670  30.295  57.921  1.00  0.00    -0.084 Cl
HETATM   28  C   UNL     1       8.437  29.019  55.557  1.00  0.00     0.026 A 
HETATM   29  C   UNL     1       7.884  28.066  54.697  1.00  0.00     0.032 A 
ENDBRANCH   2  23
BRANCH   3  30
HETATM   30  C   UNL     1       7.843  24.261  54.859  1.00  0.00     0.315 C 
BRANCH  30  31
HETATM   31  N   UNL     1       7.770  22.742  54.721  1.00  0.00    -0.064 N 
HETATM   32  H   UNL     1       6.800  22.559  54.415  1.00  0.00     0.280 HD
HETATM   33  C   UNL     1       8.667  22.223  53.619  1.00  0.00     0.235 C 
HETATM   34  C   UNL     1       8.448  20.728  53.444  1.00  0.00     0.028 C 
HETATM   35  C   UNL     1       8.668  19.973  54.750  1.00  0.00     0.003 C 
HETATM   36  C   UNL     1       7.796  20.541  55.862  1.00  0.00     0.028 C 
HETATM   37  C   UNL     1       7.998  22.041  56.033  1.00  0.00     0.235 C 
ENDBRANCH  30  31
ENDBRANCH   3  30
TORSDOF 8
ENDMDL
MODEL 10
REMARK VINA RESULT:      -8.8      5.155      9.322
REMARK  8 active torsions:
REMARK  status: ('A' for Active; 'I' for Inactive)
REMARK    1  A    between atoms: C_4  and  C_5 
REMARK    2  A    between atoms: C_5  and  N_6 
REMARK       I    between atoms: N_6  and  C_7 
REMARK       I    between atoms: C_7  and  N_8 
REMARK       I    between atoms: N_8  and  C_9 
REMARK    3  A    between atoms: C_9  and  C_10 
REMARK    4  A    between atoms: C_10  and  S_11 
REMARK    5  A    between atoms: S_11  and  C_12 
REMARK    6  A    between atoms: N_13  and  C_14 
REMARK    7  A    between atoms: C_21  and  C_22 
REMARK    8  A    between atoms: C_22  and  N_23 
ROOT
HETATM    1  C   UNL     1       4.703  28.070  53.216  1.00  0.00     0.196 A 
HETATM    2  N   UNL     1       4.604  28.562  51.927  1.00  0.00    -0.274 N 
HETATM    3  C   UNL     1       4.789  27.440  51.129  1.00  0.00     0.161 A 
HETATM    4  N   UNL     1       5.004  26.382  51.888  1.00  0.00    -0.132 NA
HETATM    5  N   UNL     1       4.940  26.778  53.194  1.00  0.00    -0.122 NA
ENDROOT
BRANCH   1   6
HETATM    6  S   UNL     1       4.321  28.980  54.640  1.00  0.00    -0.080 SA
BRANCH   6   7
HETATM    7  C   UNL     1       5.187  28.018  55.919  1.00  0.00     0.185 C 
BRANCH   7   8
HETATM    8  C   UNL     1       6.703  28.068  55.752  1.00  0.00     0.235 C 
HETATM    9  N   UNL     1       7.411  26.888  55.850  1.00  0.00    -0.279 N 
HETATM   10  C   UNL     1       6.952  25.622  56.138  1.00  0.00     0.323 C 
HETATM   11  H   UNL     1       8.409  27.012  55.792  1.00  0.00     0.173 HD
HETATM   12  N   UNL     1       7.979  24.723  56.280  1.00  0.00    -0.339 N 
HETATM   13  O   UNL     1       5.775  25.322  56.277  1.00  0.00    -0.247 OA
HETATM   14  H   UNL     1       8.835  24.886  55.770  1.00  0.00     0.164 HD
HETATM   15  O   UNL     1       7.337  29.104  55.526  1.00  0.00    -0.272 OA
BRANCH  12  16
HETATM   16  C   UNL     1       7.690  23.341  56.600  1.00  0.00     0.162 C 
BRANCH  16  17
HETATM   17  C   UNL     1       7.819  22.476  55.375  1.00  0.00    -0.040 A 
HETATM   18  C   UNL     1       8.088  21.105  55.500  1.00  0.00     0.009 A 
HETATM   19  C   UNL     1       8.232  20.305  54.365  1.00  0.00     0.001 A 
HETATM   20  C   UNL     1       8.113  20.868  53.095  1.00  0.00     0.000 A 
HETATM   21  C   UNL     1       7.850  22.231  52.959  1.00  0.00     0.001 A 
HETATM   22  C   UNL     1       7.706  23.032  54.093  1.00  0.00     0.009 A 
ENDBRANCH  16  17
ENDBRANCH  12  16
ENDBRANCH   7   8
ENDBRANCH   6   7
ENDBRANCH   1   6
BRANCH   2  23
HETATM   23  C   UNL     1       4.413  29.898  51.493  1.00  0.00     0.043 A 
HETATM   24  C   UNL     1       3.154  30.500  51.625  1.00  0.00     0.032 A 
HETATM   25  C   UNL     1       2.965  31.821  51.211  1.00  0.00     0.026 A 
HETATM   26  C   UNL     1       4.025  32.535  50.659  1.00  0.00     0.034 A 
HETATM   27 CL   UNL     1       3.792  34.158  50.149  1.00  0.00    -0.084 Cl
HETATM   28  C   UNL     1       5.276  31.936  50.513  1.00  0.00     0.026 A 
HETATM   29  C   UNL     1       5.474  30.617  50.929  1.00  0.00     0.032 A 
ENDBRANCH   2  23
BRANCH   3  30
HETATM   30  C   UNL     1       4.913  27.423  49.648  1.00  0.00     0.315 C 
BRANCH  30  31
HETATM   31  N   UNL     1       3.619  26.966  48.978  1.00  0.00    -0.064 N 
HETATM   32  H   UNL     1       3.258  26.223  49.599  1.00  0.00     0.280 HD
HETATM   33  C   UNL     1       2.568  28.053  48.962  1.00  0.00     0.235 C 
HETATM   34  C   UNL     1       1.265  27.496  48.407  1.00  0.00     0.028 C 
HETATM   35  C   UNL     1       1.463  26.884  47.025  1.00  0.00     0.003 C 
HETATM   36  C   UNL     1       2.561  25.827  47.047  1.00  0.00     0.028 C 
HETATM   37  C   UNL     1       3.863  26.375  47.617  1.00  0.00     0.235 C 
ENDBRANCH  30  31
ENDBRANCH   3  30
TORSDOF 8
ENDMDL
