MODEL 1
REMARK VINA RESULT:      -9.6      0.000      0.000
REMARK  4 active torsions:
REMARK  status: ('A' for Active; 'I' for Inactive)
REMARK    1  A    between atoms: C_3  and  C_4 
REMARK    2  A    between atoms: C_9  and  N_10 
REMARK       I    between atoms: N_10  and  C_11 
REMARK    3  A    between atoms: C_11  and  C_12 
REMARK    4  A    between atoms: C_16  and  C_17 
ROOT
HETATM    1  N   UNL     1       7.829  27.341  56.206  1.00  0.00    -0.322 N 
HETATM    2  C   UNL     1       6.724  27.168  55.396  1.00  0.00     0.276 C 
HETATM    3  O   UNL     1       5.821  27.975  55.201  1.00  0.00    -0.266 OA
HETATM    4  H   UNL     1       8.443  26.528  56.220  1.00  0.00     0.169 HD
ENDROOT
BRANCH   2   5
HETATM    5  C   UNL     1       6.701  25.825  54.789  1.00  0.00     0.147 A 
HETATM    6  N   UNL     1       5.990  25.553  53.677  1.00  0.00    -0.169 NA
HETATM    7  N   UNL     1       6.264  24.260  53.429  1.00  0.00    -0.277 N 
HETATM    8  H   UNL     1       5.813  23.826  52.633  1.00  0.00     0.189 HD
HETATM    9  C   UNL     1       7.163  23.686  54.295  1.00  0.00     0.063 A 
HETATM   10  C   UNL     1       7.424  24.684  55.216  1.00  0.00     0.071 A 
BRANCH   9  11
HETATM   11  C   UNL     1       7.679  22.317  54.172  1.00  0.00    -0.008 A 
HETATM   12  C   UNL     1       7.946  21.736  52.921  1.00  0.00     0.014 A 
HETATM   13  C   UNL     1       8.466  20.441  52.827  1.00  0.00     0.001 A 
HETATM   14  C   UNL     1       8.731  19.706  53.979  1.00  0.00     0.000 A 
HETATM   15  C   UNL     1       8.473  20.265  55.227  1.00  0.00     0.001 A 
HETATM   16  C   UNL     1       7.950  21.559  55.321  1.00  0.00     0.014 A 
ENDBRANCH   9  11
ENDBRANCH   2   5
BRANCH   1  17
HETATM   17  C   UNL     1       8.127  28.415  57.058  1.00  0.00     0.035 A 
HETATM   18  C   UNL     1       7.228  28.944  57.982  1.00  0.00     0.030 A 
HETATM   19  C   UNL     1       7.617  29.984  58.831  1.00  0.00     0.018 A 
HETATM   20  C   UNL     1       8.917  30.506  58.773  1.00  0.00     0.015 A 
HETATM   21  C   UNL     1       9.834  29.992  57.837  1.00  0.00    -0.046 A 
HETATM   22  C   UNL     1      11.242  30.509  57.719  1.00  0.00     0.049 C 
HETATM   23  C   UNL     1       9.417  28.956  56.980  1.00  0.00     0.037 A 
BRANCH  20  24
HETATM   24  C   UNL     1       9.292  31.602  59.711  1.00  0.00     0.156 C 
HETATM   25  C   UNL     1       9.581  31.241  61.146  1.00  0.00     0.097 C 
HETATM   26  O   UNL     1       9.346  32.766  59.323  1.00  0.00    -0.293 OA
ENDBRANCH  20  24
ENDBRANCH   1  17
TORSDOF 4
ENDMDL
MODEL 2
REMARK VINA RESULT:      -9.4      2.832      9.586
REMARK  4 active torsions:
REMARK  status: ('A' for Active; 'I' for Inactive)
REMARK    1  A    between atoms: C_3  and  C_4 
REMARK    2  A    between atoms: C_9  and  N_10 
REMARK       I    between atoms: N_10  and  C_11 
REMARK    3  A    between atoms: C_11  and  C_12 
REMARK    4  A    between atoms: C_16  and  C_17 
ROOT
HETATM    1  N   UNL     1       7.636  27.463  57.380  1.00  0.00    -0.322 N 
HETATM    2  C   UNL     1       8.487  28.545  57.494  1.00  0.00     0.276 C 
HETATM    3  O   UNL     1       9.628  28.633  57.053  1.00  0.00    -0.266 OA
HETATM    4  H   UNL     1       6.737  27.614  57.835  1.00  0.00     0.169 HD
ENDROOT
BRANCH   2   5
HETATM    5  C   UNL     1       7.879  29.631  58.285  1.00  0.00     0.147 A 
HETATM    6  N   UNL     1       6.701  30.192  57.944  1.00  0.00    -0.169 NA
HETATM    7  N   UNL     1       6.480  31.090  58.921  1.00  0.00    -0.277 N 
HETATM    8  H   UNL     1       5.643  31.656  58.860  1.00  0.00     0.189 HD
HETATM    9  C   UNL     1       7.429  31.106  59.913  1.00  0.00     0.063 A 
HETATM   10  C   UNL     1       8.373  30.189  59.489  1.00  0.00     0.071 A 
BRANCH   9  11
HETATM   11  C   UNL     1       7.355  31.938  61.121  1.00  0.00    -0.008 A 
HETATM   12  C   UNL     1       6.439  32.995  61.237  1.00  0.00     0.014 A 
HETATM   13  C   UNL     1       6.363  33.757  62.408  1.00  0.00     0.001 A 
HETATM   14  C   UNL     1       7.200  33.472  63.484  1.00  0.00     0.000 A 
HETATM   15  C   UNL     1       8.115  32.428  63.387  1.00  0.00     0.001 A 
HETATM   16  C   UNL     1       8.192  31.669  62.215  1.00  0.00     0.014 A 
ENDBRANCH   9  11
ENDBRANCH   2   5
BRANCH   1  17
HETATM   17  C   UNL     1       7.902  26.197  56.835  1.00  0.00     0.035 A 
HETATM   18  C   UNL     1       8.690  25.234  57.460  1.00  0.00     0.030 A 
HETATM   19  C   UNL     1       8.867  23.977  56.873  1.00  0.00     0.018 A 
HETATM   20  C   UNL     1       8.250  23.664  55.654  1.00  0.00     0.015 A 
HETATM   21  C   UNL     1       7.461  24.630  55.003  1.00  0.00    -0.046 A 
HETATM   22  C   UNL     1       6.775  24.361  53.692  1.00  0.00     0.049 C 
HETATM   23  C   UNL     1       7.308  25.895  55.602  1.00  0.00     0.037 A 
BRANCH  20  24
HETATM   24  C   UNL     1       8.453  22.304  55.077  1.00  0.00     0.156 C 
HETATM   25  C   UNL     1       7.682  21.156  55.676  1.00  0.00     0.097 C 
HETATM   26  O   UNL     1       9.240  22.130  54.151  1.00  0.00    -0.293 OA
ENDBRANCH  20  24
ENDBRANCH   1  17
TORSDOF 4
ENDMDL
MODEL 3
REMARK VINA RESULT:      -9.3      9.203     13.665
REMARK  4 active torsions:
REMARK  status: ('A' for Active; 'I' for Inactive)
REMARK    1  A    between atoms: C_3  and  C_4 
REMARK    2  A    between atoms: C_9  and  N_10 
REMARK       I    between atoms: N_10  and  C_11 
REMARK    3  A    between atoms: C_11  and  C_12 
REMARK    4  A    between atoms: C_16  and  C_17 
ROOT
HETATM    1  N   UNL     1       6.408  34.128  67.639  1.00  0.00    -0.322 N 
HETATM    2  C   UNL     1       5.358  34.314  66.760  1.00  0.00     0.276 C 
HETATM    3  O   UNL     1       4.321  34.931  66.974  1.00  0.00    -0.266 OA
HETATM    4  H   UNL     1       7.164  33.571  67.244  1.00  0.00     0.169 HD
ENDROOT
BRANCH   2   5
HETATM    5  C   UNL     1       5.593  33.619  65.481  1.00  0.00     0.147 A 
HETATM    6  N   UNL     1       4.597  33.020  64.799  1.00  0.00    -0.169 NA
HETATM    7  N   UNL     1       5.202  32.552  63.692  1.00  0.00    -0.277 N 
HETATM    8  H   UNL     1       4.638  32.037  63.028  1.00  0.00     0.189 HD
HETATM    9  C   UNL     1       6.535  32.864  63.591  1.00  0.00     0.063 A 
HETATM   10  C   UNL     1       6.816  33.523  64.774  1.00  0.00     0.071 A 
BRANCH   9  11
HETATM   11  C   UNL     1       7.380  32.537  62.436  1.00  0.00    -0.008 A 
HETATM   12  C   UNL     1       8.706  32.100  62.589  1.00  0.00     0.014 A 
HETATM   13  C   UNL     1       9.486  31.765  61.476  1.00  0.00     0.001 A 
HETATM   14  C   UNL     1       8.952  31.857  60.194  1.00  0.00     0.000 A 
HETATM   15  C   UNL     1       7.641  32.289  60.023  1.00  0.00     0.001 A 
HETATM   16  C   UNL     1       6.863  32.627  61.135  1.00  0.00     0.014 A 
ENDBRANCH   9  11
ENDBRANCH   2   5
BRANCH   1  17
HETATM   17  C   UNL     1       6.493  34.503  68.988  1.00  0.00     0.035 A 
HETATM   18  C   UNL     1       5.948  33.763  70.035  1.00  0.00     0.030 A 
HETATM   19  C   UNL     1       6.119  34.181  71.358  1.00  0.00     0.018 A 
HETATM   20  C   UNL     1       6.845  35.342  71.654  1.00  0.00     0.015 A 
HETATM   21  C   UNL     1       7.392  36.108  70.608  1.00  0.00    -0.046 A 
HETATM   22  C   UNL     1       8.179  37.367  70.855  1.00  0.00     0.049 C 
HETATM   23  C   UNL     1       7.195  35.680  69.281  1.00  0.00     0.037 A 
BRANCH  20  24
HETATM   24  C   UNL     1       7.017  35.736  73.082  1.00  0.00     0.156 C 
HETATM   25  C   UNL     1       8.140  35.103  73.863  1.00  0.00     0.097 C 
HETATM   26  O   UNL     1       6.251  36.543  73.603  1.00  0.00    -0.293 OA
ENDBRANCH  20  24
ENDBRANCH   1  17
TORSDOF 4
ENDMDL
MODEL 4
REMARK VINA RESULT:      -9.2      2.878      9.654
REMARK  4 active torsions:
REMARK  status: ('A' for Active; 'I' for Inactive)
REMARK    1  A    between atoms: C_3  and  C_4 
REMARK    2  A    between atoms: C_9  and  N_10 
REMARK       I    between atoms: N_10  and  C_11 
REMARK    3  A    between atoms: C_11  and  C_12 
REMARK    4  A    between atoms: C_16  and  C_17 
ROOT
HETATM    1  N   UNL     1       8.229  29.086  56.864  1.00  0.00    -0.322 N 
HETATM    2  C   UNL     1       9.486  29.547  57.202  1.00  0.00     0.276 C 
HETATM    3  O   UNL     1      10.555  29.192  56.716  1.00  0.00    -0.266 OA
HETATM    4  H   UNL     1       7.486  29.521  57.409  1.00  0.00     0.169 HD
ENDROOT
BRANCH   2   5
HETATM    5  C   UNL     1       9.426  30.528  58.301  1.00  0.00     0.147 A 
HETATM    6  N   UNL     1      10.267  31.580  58.368  1.00  0.00    -0.169 NA
HETATM    7  N   UNL     1       9.865  32.241  59.468  1.00  0.00    -0.277 N 
HETATM    8  H   UNL     1      10.378  33.074  59.732  1.00  0.00     0.189 HD
HETATM    9  C   UNL     1       8.769  31.702  60.095  1.00  0.00     0.063 A 
HETATM   10  C   UNL     1       8.497  30.557  59.369  1.00  0.00     0.071 A 
BRANCH   9  11
HETATM   11  C   UNL     1       8.100  32.296  61.259  1.00  0.00    -0.008 A 
HETATM   12  C   UNL     1       6.897  33.011  61.138  1.00  0.00     0.014 A 
HETATM   13  C   UNL     1       6.260  33.544  62.264  1.00  0.00     0.001 A 
HETATM   14  C   UNL     1       6.812  33.368  63.530  1.00  0.00     0.000 A 
HETATM   15  C   UNL     1       8.004  32.662  63.670  1.00  0.00     0.001 A 
HETATM   16  C   UNL     1       8.642  32.133  62.544  1.00  0.00     0.014 A 
ENDBRANCH   9  11
ENDBRANCH   2   5
BRANCH   1  17
HETATM   17  C   UNL     1       7.887  28.054  55.977  1.00  0.00     0.035 A 
HETATM   18  C   UNL     1       7.821  28.209  54.595  1.00  0.00     0.030 A 
HETATM   19  C   UNL     1       7.519  27.118  53.775  1.00  0.00     0.018 A 
HETATM   20  C   UNL     1       7.286  25.851  54.327  1.00  0.00     0.015 A 
HETATM   21  C   UNL     1       7.336  25.679  55.723  1.00  0.00    -0.046 A 
HETATM   22  C   UNL     1       7.093  24.349  56.382  1.00  0.00     0.049 C 
HETATM   23  C   UNL     1       7.626  26.794  56.533  1.00  0.00     0.037 A 
BRANCH  20  24
HETATM   24  C   UNL     1       6.988  24.713  53.412  1.00  0.00     0.156 C 
HETATM   25  C   UNL     1       8.145  23.911  52.874  1.00  0.00     0.097 C 
HETATM   26  O   UNL     1       5.829  24.454  53.096  1.00  0.00    -0.293 OA
ENDBRANCH  20  24
ENDBRANCH   1  17
TORSDOF 4
ENDMDL
MODEL 5
REMARK VINA RESULT:      -9.1      3.560      6.133
REMARK  4 active torsions:
REMARK  status: ('A' for Active; 'I' for Inactive)
REMARK    1  A    between atoms: C_3  and  C_4 
REMARK    2  A    between atoms: C_9  and  N_10 
REMARK       I    between atoms: N_10  and  C_11 
REMARK    3  A    between atoms: C_11  and  C_12 
REMARK    4  A    between atoms: C_16  and  C_17 
ROOT
HETATM    1  N   UNL     1       7.897  30.876  60.499  1.00  0.00    -0.322 N 
HETATM    2  C   UNL     1       8.625  31.239  59.382  1.00  0.00     0.276 C 
HETATM    3  O   UNL     1       9.078  32.349  59.129  1.00  0.00    -0.266 OA
HETATM    4  H   UNL     1       7.617  29.897  60.490  1.00  0.00     0.169 HD
ENDROOT
BRANCH   2   5
HETATM    5  C   UNL     1       8.773  30.112  58.443  1.00  0.00     0.147 A 
HETATM    6  N   UNL     1       9.905  29.912  57.737  1.00  0.00    -0.169 NA
HETATM    7  N   UNL     1       9.658  28.783  57.049  1.00  0.00    -0.277 N 
HETATM    8  H   UNL     1      10.378  28.446  56.422  1.00  0.00     0.189 HD
HETATM    9  C   UNL     1       8.441  28.205  57.310  1.00  0.00     0.063 A 
HETATM   10  C   UNL     1       7.832  29.085  58.186  1.00  0.00     0.071 A 
BRANCH   9  11
HETATM   11  C   UNL     1       7.989  26.927  56.746  1.00  0.00    -0.008 A 
HETATM   12  C   UNL     1       7.375  26.850  55.485  1.00  0.00     0.014 A 
HETATM   13  C   UNL     1       6.979  25.619  54.952  1.00  0.00     0.001 A 
HETATM   14  C   UNL     1       7.193  24.444  55.668  1.00  0.00     0.000 A 
HETATM   15  C   UNL     1       7.800  24.500  56.919  1.00  0.00     0.001 A 
HETATM   16  C   UNL     1       8.193  25.731  57.453  1.00  0.00     0.014 A 
ENDBRANCH   9  11
ENDBRANCH   2   5
BRANCH   1  17
HETATM   17  C   UNL     1       7.426  31.694  61.537  1.00  0.00     0.035 A 
HETATM   18  C   UNL     1       8.153  31.979  62.690  1.00  0.00     0.030 A 
HETATM   19  C   UNL     1       7.632  32.844  63.658  1.00  0.00     0.018 A 
HETATM   20  C   UNL     1       6.377  33.442  63.481  1.00  0.00     0.015 A 
HETATM   21  C   UNL     1       5.623  33.154  62.328  1.00  0.00    -0.046 A 
HETATM   22  C   UNL     1       4.268  33.758  62.078  1.00  0.00     0.049 C 
HETATM   23  C   UNL     1       6.158  32.268  61.373  1.00  0.00     0.037 A 
BRANCH  20  24
HETATM   24  C   UNL     1       5.871  34.372  64.531  1.00  0.00     0.156 C 
HETATM   25  C   UNL     1       5.205  33.778  65.746  1.00  0.00     0.097 C 
HETATM   26  O   UNL     1       5.983  35.587  64.394  1.00  0.00    -0.293 OA
ENDBRANCH  20  24
ENDBRANCH   1  17
TORSDOF 4
ENDMDL
MODEL 6
REMARK VINA RESULT:      -9.0      3.005      9.827
REMARK  4 active torsions:
REMARK  status: ('A' for Active; 'I' for Inactive)
REMARK    1  A    between atoms: C_3  and  C_4 
REMARK    2  A    between atoms: C_9  and  N_10 
REMARK       I    between atoms: N_10  and  C_11 
REMARK    3  A    between atoms: C_11  and  C_12 
REMARK    4  A    between atoms: C_16  and  C_17 
ROOT
HETATM    1  N   UNL     1       8.131  29.015  57.604  1.00  0.00    -0.322 N 
HETATM    2  C   UNL     1       9.302  29.731  57.757  1.00  0.00     0.276 C 
HETATM    3  O   UNL     1      10.347  29.575  57.134  1.00  0.00    -0.266 OA
HETATM    4  H   UNL     1       7.395  29.317  58.240  1.00  0.00     0.169 HD
ENDROOT
BRANCH   2   5
HETATM    5  C   UNL     1       9.191  30.727  58.838  1.00  0.00     0.147 A 
HETATM    6  N   UNL     1       9.964  31.831  58.877  1.00  0.00    -0.169 NA
HETATM    7  N   UNL     1       9.533  32.487  59.969  1.00  0.00    -0.277 N 
HETATM    8  H   UNL     1       9.994  33.354  60.213  1.00  0.00     0.189 HD
HETATM    9  C   UNL     1       8.477  31.892  60.617  1.00  0.00     0.063 A 
HETATM   10  C   UNL     1       8.271  30.719  59.916  1.00  0.00     0.071 A 
BRANCH   9  11
HETATM   11  C   UNL     1       7.784  32.466  61.777  1.00  0.00    -0.008 A 
HETATM   12  C   UNL     1       8.307  32.366  63.076  1.00  0.00     0.014 A 
HETATM   13  C   UNL     1       7.646  32.946  64.165  1.00  0.00     0.001 A 
HETATM   14  C   UNL     1       6.453  33.638  63.972  1.00  0.00     0.000 A 
HETATM   15  C   UNL     1       5.919  33.747  62.692  1.00  0.00     0.001 A 
HETATM   16  C   UNL     1       6.579  33.165  61.605  1.00  0.00     0.014 A 
ENDBRANCH   9  11
ENDBRANCH   2   5
BRANCH   1  17
HETATM   17  C   UNL     1       7.891  27.898  56.790  1.00  0.00     0.035 A 
HETATM   18  C   UNL     1       7.983  26.581  57.234  1.00  0.00     0.030 A 
HETATM   19  C   UNL     1       7.680  25.522  56.373  1.00  0.00     0.018 A 
HETATM   20  C   UNL     1       7.273  25.767  55.054  1.00  0.00     0.015 A 
HETATM   21  C   UNL     1       7.187  27.091  54.585  1.00  0.00    -0.046 A 
HETATM   22  C   UNL     1       6.762  27.424  53.181  1.00  0.00     0.049 C 
HETATM   23  C   UNL     1       7.512  28.143  55.463  1.00  0.00     0.037 A 
BRANCH  20  24
HETATM   24  C   UNL     1       6.942  24.607  54.179  1.00  0.00     0.156 C 
HETATM   25  C   UNL     1       8.078  23.766  53.654  1.00  0.00     0.097 C 
HETATM   26  O   UNL     1       5.775  24.359  53.885  1.00  0.00    -0.293 OA
ENDBRANCH  20  24
ENDBRANCH   1  17
TORSDOF 4
ENDMDL
MODEL 7
REMARK VINA RESULT:      -8.8      2.287      9.158
REMARK  4 active torsions:
REMARK  status: ('A' for Active; 'I' for Inactive)
REMARK    1  A    between atoms: C_3  and  C_4 
REMARK    2  A    between atoms: C_9  and  N_10 
REMARK       I    between atoms: N_10  and  C_11 
REMARK    3  A    between atoms: C_11  and  C_12 
REMARK    4  A    between atoms: C_16  and  C_17 
ROOT
HETATM    1  N   UNL     1       7.633  25.838  55.981  1.00  0.00    -0.322 N 
HETATM    2  C   UNL     1       6.459  26.528  56.212  1.00  0.00     0.276 C 
HETATM    3  O   UNL     1       5.317  26.104  56.068  1.00  0.00    -0.266 OA
HETATM    4  H   UNL     1       8.465  26.398  56.161  1.00  0.00     0.169 HD
ENDROOT
BRANCH   2   5
HETATM    5  C   UNL     1       6.719  27.919  56.625  1.00  0.00     0.147 A 
HETATM    6  N   UNL     1       6.222  28.972  55.947  1.00  0.00    -0.169 NA
HETATM    7  N   UNL     1       6.642  30.036  56.654  1.00  0.00    -0.277 N 
HETATM    8  H   UNL     1       6.397  30.957  56.311  1.00  0.00     0.189 HD
HETATM    9  C   UNL     1       7.344  29.729  57.793  1.00  0.00     0.063 A 
HETATM   10  C   UNL     1       7.441  28.350  57.765  1.00  0.00     0.071 A 
BRANCH   9  11
HETATM   11  C   UNL     1       7.825  30.717  58.766  1.00  0.00    -0.008 A 
HETATM   12  C   UNL     1       6.945  31.568  59.454  1.00  0.00     0.014 A 
HETATM   13  C   UNL     1       7.421  32.483  60.400  1.00  0.00     0.001 A 
HETATM   14  C   UNL     1       8.784  32.560  60.676  1.00  0.00     0.000 A 
HETATM   15  C   UNL     1       9.671  31.725  60.004  1.00  0.00     0.001 A 
HETATM   16  C   UNL     1       9.195  30.813  59.057  1.00  0.00     0.014 A 
ENDBRANCH   9  11
ENDBRANCH   2   5
BRANCH   1  17
HETATM   17  C   UNL     1       7.800  24.554  55.442  1.00  0.00     0.035 A 
HETATM   18  C   UNL     1       7.864  24.288  54.077  1.00  0.00     0.030 A 
HETATM   19  C   UNL     1       8.080  22.985  53.619  1.00  0.00     0.018 A 
HETATM   20  C   UNL     1       8.244  21.928  54.525  1.00  0.00     0.015 A 
HETATM   21  C   UNL     1       8.170  22.176  55.908  1.00  0.00    -0.046 A 
HETATM   22  C   UNL     1       8.333  21.087  56.934  1.00  0.00     0.049 C 
HETATM   23  C   UNL     1       7.935  23.493  56.348  1.00  0.00     0.037 A 
BRANCH  20  24
HETATM   24  C   UNL     1       8.493  20.558  53.991  1.00  0.00     0.156 C 
HETATM   25  C   UNL     1       8.299  20.325  52.514  1.00  0.00     0.097 C 
HETATM   26  O   UNL     1       8.829  19.646  54.742  1.00  0.00    -0.293 OA
ENDBRANCH  20  24
ENDBRANCH   1  17
TORSDOF 4
ENDMDL
MODEL 8
REMARK VINA RESULT:      -8.8      3.208      9.941
REMARK  4 active torsions:
REMARK  status: ('A' for Active; 'I' for Inactive)
REMARK    1  A    between atoms: C_3  and  C_4 
REMARK    2  A    between atoms: C_9  and  N_10 
REMARK       I    between atoms: N_10  and  C_11 
REMARK    3  A    between atoms: C_11  and  C_12 
REMARK    4  A    between atoms: C_16  and  C_17 
ROOT
HETATM    1  N   UNL     1       6.930  28.956  57.647  1.00  0.00    -0.322 N 
HETATM    2  C   UNL     1       7.953  29.846  57.907  1.00  0.00     0.276 C 
HETATM    3  O   UNL     1       9.108  29.778  57.501  1.00  0.00    -0.266 OA
HETATM    4  H   UNL     1       6.054  29.212  58.100  1.00  0.00     0.169 HD
ENDROOT
BRANCH   2   5
HETATM    5  C   UNL     1       7.516  30.924  58.813  1.00  0.00     0.147 A 
HETATM    6  N   UNL     1       6.611  31.852  58.439  1.00  0.00    -0.169 NA
HETATM    7  N   UNL     1       6.456  32.610  59.538  1.00  0.00    -0.277 N 
HETATM    8  H   UNL     1       5.823  33.399  59.482  1.00  0.00     0.189 HD
HETATM    9  C   UNL     1       7.174  32.192  60.631  1.00  0.00     0.063 A 
HETATM   10  C   UNL     1       7.906  31.118  60.161  1.00  0.00     0.071 A 
BRANCH   9  11
HETATM   11  C   UNL     1       7.098  32.808  61.962  1.00  0.00    -0.008 A 
HETATM   12  C   UNL     1       7.865  32.339  63.040  1.00  0.00     0.014 A 
HETATM   13  C   UNL     1       7.801  32.959  64.293  1.00  0.00     0.001 A 
HETATM   14  C   UNL     1       6.973  34.061  64.487  1.00  0.00     0.000 A 
HETATM   15  C   UNL     1       6.205  34.540  63.431  1.00  0.00     0.001 A 
HETATM   16  C   UNL     1       6.267  33.918  62.180  1.00  0.00     0.014 A 
ENDBRANCH   9  11
ENDBRANCH   2   5
BRANCH   1  17
HETATM   17  C   UNL     1       6.989  27.736  56.957  1.00  0.00     0.035 A 
HETATM   18  C   UNL     1       6.303  27.482  55.772  1.00  0.00     0.030 A 
HETATM   19  C   UNL     1       6.452  26.255  55.118  1.00  0.00     0.018 A 
HETATM   20  C   UNL     1       7.298  25.266  55.638  1.00  0.00     0.015 A 
HETATM   21  C   UNL     1       7.989  25.501  56.841  1.00  0.00    -0.046 A 
HETATM   22  C   UNL     1       8.908  24.482  57.456  1.00  0.00     0.049 C 
HETATM   23  C   UNL     1       7.812  26.736  57.493  1.00  0.00     0.037 A 
BRANCH  20  24
HETATM   24  C   UNL     1       7.440  23.981  54.895  1.00  0.00     0.156 C 
HETATM   25  C   UNL     1       8.077  24.017  53.529  1.00  0.00     0.097 C 
HETATM   26  O   UNL     1       7.032  22.930  55.383  1.00  0.00    -0.293 OA
ENDBRANCH  20  24
ENDBRANCH   1  17
TORSDOF 4
ENDMDL
MODEL 9
REMARK VINA RESULT:      -8.3      3.624      5.694
REMARK  4 active torsions:
REMARK  status: ('A' for Active; 'I' for Inactive)
REMARK    1  A    between atoms: C_3  and  C_4 
REMARK    2  A    between atoms: C_9  and  N_10 
REMARK       I    between atoms: N_10  and  C_11 
REMARK    3  A    between atoms: C_11  and  C_12 
REMARK    4  A    between atoms: C_16  and  C_17 
ROOT
HETATM    1  N   UNL     1       6.515  31.265  59.731  1.00  0.00    -0.322 N 
HETATM    2  C   UNL     1       7.548  31.151  58.822  1.00  0.00     0.276 C 
HETATM    3  O   UNL     1       8.520  31.891  58.718  1.00  0.00    -0.266 OA
HETATM    4  H   UNL     1       5.809  30.537  59.624  1.00  0.00     0.169 HD
ENDROOT
BRANCH   2   5
HETATM    5  C   UNL     1       7.338  30.019  57.901  1.00  0.00     0.147 A 
HETATM    6  N   UNL     1       6.712  30.167  56.716  1.00  0.00    -0.169 NA
HETATM    7  N   UNL     1       6.762  28.938  56.171  1.00  0.00    -0.277 N 
HETATM    8  H   UNL     1       6.325  28.804  55.268  1.00  0.00     0.189 HD
HETATM    9  C   UNL     1       7.438  28.005  56.918  1.00  0.00     0.063 A 
HETATM   10  C   UNL     1       7.783  28.685  58.072  1.00  0.00     0.071 A 
BRANCH   9  11
HETATM   11  C   UNL     1       7.697  26.625  56.490  1.00  0.00    -0.008 A 
HETATM   12  C   UNL     1       7.326  26.163  55.216  1.00  0.00     0.014 A 
HETATM   13  C   UNL     1       7.609  24.853  54.816  1.00  0.00     0.001 A 
HETATM   14  C   UNL     1       8.270  23.984  55.679  1.00  0.00     0.000 A 
HETATM   15  C   UNL     1       8.646  24.423  56.945  1.00  0.00     0.001 A 
HETATM   16  C   UNL     1       8.360  25.732  57.346  1.00  0.00     0.014 A 
ENDBRANCH   9  11
ENDBRANCH   2   5
BRANCH   1  17
HETATM   17  C   UNL     1       6.281  32.286  60.664  1.00  0.00     0.035 A 
HETATM   18  C   UNL     1       5.304  33.267  60.510  1.00  0.00     0.030 A 
HETATM   19  C   UNL     1       5.100  34.224  61.509  1.00  0.00     0.018 A 
HETATM   20  C   UNL     1       5.868  34.207  62.682  1.00  0.00     0.015 A 
HETATM   21  C   UNL     1       6.868  33.231  62.848  1.00  0.00    -0.046 A 
HETATM   22  C   UNL     1       7.729  33.159  64.079  1.00  0.00     0.049 C 
HETATM   23  C   UNL     1       7.068  32.286  61.823  1.00  0.00     0.037 A 
BRANCH  20  24
HETATM   24  C   UNL     1       5.601  35.236  63.728  1.00  0.00     0.156 C 
HETATM   25  C   UNL     1       4.656  34.882  64.848  1.00  0.00     0.097 C 
HETATM   26  O   UNL     1       6.127  36.344  63.662  1.00  0.00    -0.293 OA
ENDBRANCH  20  24
ENDBRANCH   1  17
TORSDOF 4
ENDMDL
MODEL 10
REMARK VINA RESULT:      -8.3      3.666      4.831
REMARK  4 active torsions:
REMARK  status: ('A' for Active; 'I' for Inactive)
REMARK    1  A    between atoms: C_3  and  C_4 
REMARK    2  A    between atoms: C_9  and  N_10 
REMARK       I    between atoms: N_10  and  C_11 
REMARK    3  A    between atoms: C_11  and  C_12 
REMARK    4  A    between atoms: C_16  and  C_17 
ROOT
HETATM    1  N   UNL     1       5.355  27.666  54.639  1.00  0.00    -0.322 N 
HETATM    2  C   UNL     1       6.729  27.584  54.526  1.00  0.00     0.276 C 
HETATM    3  O   UNL     1       7.538  28.483  54.729  1.00  0.00    -0.266 OA
HETATM    4  H   UNL     1       4.885  26.792  54.412  1.00  0.00     0.169 HD
ENDROOT
BRANCH   2   5
HETATM    5  C   UNL     1       7.157  26.251  54.065  1.00  0.00     0.147 A 
HETATM    6  N   UNL     1       7.709  26.057  52.850  1.00  0.00    -0.169 NA
HETATM    7  N   UNL     1       7.992  24.742  52.833  1.00  0.00    -0.277 N 
HETATM    8  H   UNL     1       8.404  24.359  51.991  1.00  0.00     0.189 HD
HETATM    9  C   UNL     1       7.701  24.076  53.998  1.00  0.00     0.063 A 
HETATM   10  C   UNL     1       7.113  25.039  54.797  1.00  0.00     0.071 A 
BRANCH   9  11
HETATM   11  C   UNL     1       8.001  22.660  54.244  1.00  0.00    -0.008 A 
HETATM   12  C   UNL     1       7.993  22.116  55.539  1.00  0.00     0.014 A 
HETATM   13  C   UNL     1       8.252  20.757  55.750  1.00  0.00     0.001 A 
HETATM   14  C   UNL     1       8.520  19.919  54.670  1.00  0.00     0.000 A 
HETATM   15  C   UNL     1       8.532  20.441  53.380  1.00  0.00     0.001 A 
HETATM   16  C   UNL     1       8.276  21.799  53.170  1.00  0.00     0.014 A 
ENDBRANCH   9  11
ENDBRANCH   2   5
BRANCH   1  17
HETATM   17  C   UNL     1       4.567  28.795  54.907  1.00  0.00     0.035 A 
HETATM   18  C   UNL     1       4.170  29.178  56.186  1.00  0.00     0.030 A 
HETATM   19  C   UNL     1       3.424  30.346  56.374  1.00  0.00     0.018 A 
HETATM   20  C   UNL     1       3.072  31.153  55.284  1.00  0.00     0.015 A 
HETATM   21  C   UNL     1       3.454  30.774  53.983  1.00  0.00    -0.046 A 
HETATM   22  C   UNL     1       3.105  31.592  52.770  1.00  0.00     0.049 C 
HETATM   23  C   UNL     1       4.190  29.586  53.813  1.00  0.00     0.037 A 
BRANCH  20  24
HETATM   24  C   UNL     1       2.293  32.399  55.536  1.00  0.00     0.156 C 
HETATM   25  C   UNL     1       3.053  33.655  55.876  1.00  0.00     0.097 C 
HETATM   26  O   UNL     1       1.065  32.389  55.484  1.00  0.00    -0.293 OA
ENDBRANCH  20  24
ENDBRANCH   1  17
TORSDOF 4
ENDMDL
