MODEL 1
REMARK VINA RESULT:      -9.9      0.000      0.000
REMARK  2 active torsions:
REMARK  status: ('A' for Active; 'I' for Inactive)
REMARK       I    between atoms: N_8  and  C_9 
REMARK    1  A    between atoms: C_9  and  C_10 
REMARK    2  A    between atoms: N_12  and  C_13 
ROOT
HETATM    1  C   UNL     1       7.666  26.128  57.305  1.00  0.00     0.021 C 
HETATM    2  C   UNL     1       8.102  27.538  56.919  1.00  0.00     0.087 C 
HETATM    3  C   UNL     1       7.596  28.581  57.901  1.00  0.00     0.207 C 
HETATM    4  O   UNL     1       8.352  29.323  58.518  1.00  0.00    -0.279 OA
HETATM    5  N   UNL     1       6.214  28.681  57.951  1.00  0.00    -0.227 NA
HETATM    6  C   UNL     1       5.680  29.580  56.990  1.00  0.00     0.042 A 
HETATM    7  C   UNL     1       5.577  29.186  55.640  1.00  0.00     0.059 A 
HETATM    8  N   UNL     1       6.265  28.000  55.173  1.00  0.00    -0.309 N 
HETATM    9  C   UNL     1       5.660  27.175  54.186  1.00  0.00     0.298 C 
HETATM   10  O   UNL     1       4.513  27.384  53.780  1.00  0.00    -0.264 OA
HETATM   11  C   UNL     1       7.718  27.978  55.496  1.00  0.00     0.145 C 
HETATM   12  C   UNL     1       5.144  30.784  57.446  1.00  0.00     0.026 A 
HETATM   13  C   UNL     1       4.470  31.613  56.554  1.00  0.00     0.002 A 
HETATM   14  C   UNL     1       4.326  31.228  55.221  1.00  0.00     0.002 A 
HETATM   15  C   UNL     1       4.874  30.023  54.765  1.00  0.00     0.031 A 
HETATM   16  H   UNL     1       5.820  27.769  57.738  1.00  0.00     0.136 HD
ENDROOT
BRANCH   9  17
HETATM   17  C   UNL     1       6.405  25.986  53.683  1.00  0.00     0.239 A 
HETATM   18  N   UNL     1       6.466  24.827  54.365  1.00  0.00    -0.140 NA
HETATM   19  N   UNL     1       7.279  24.054  53.608  1.00  0.00    -0.225 N 
HETATM   20  C   UNL     1       7.675  24.765  52.506  1.00  0.00     0.237 A 
HETATM   21  N   UNL     1       7.159  25.969  52.526  1.00  0.00    -0.216 NA
BRANCH  19  22
HETATM   22  C   UNL     1       7.621  22.726  53.974  1.00  0.00     0.059 A 
HETATM   23  C   UNL     1       7.603  22.358  55.328  1.00  0.00     0.031 A 
HETATM   24  C   UNL     1       7.944  21.057  55.704  1.00  0.00     0.002 A 
HETATM   25  C   UNL     1       8.300  20.119  54.737  1.00  0.00     0.000 A 
HETATM   26  C   UNL     1       8.316  20.478  53.391  1.00  0.00     0.002 A 
HETATM   27  C   UNL     1       7.980  21.778  53.005  1.00  0.00     0.031 A 
ENDBRANCH  19  22
ENDBRANCH   9  17
TORSDOF 2
ENDMDL
MODEL 2
REMARK VINA RESULT:      -9.8      2.697      7.718
REMARK  2 active torsions:
REMARK  status: ('A' for Active; 'I' for Inactive)
REMARK       I    between atoms: N_8  and  C_9 
REMARK    1  A    between atoms: C_9  and  C_10 
REMARK    2  A    between atoms: N_12  and  C_13 
ROOT
HETATM    1  C   UNL     1       5.082  29.475  56.560  1.00  0.00     0.021 C 
HETATM    2  C   UNL     1       5.549  29.218  55.131  1.00  0.00     0.087 C 
HETATM    3  C   UNL     1       4.609  28.291  54.381  1.00  0.00     0.207 C 
HETATM    4  O   UNL     1       4.048  28.625  53.342  1.00  0.00    -0.279 OA
HETATM    5  N   UNL     1       4.528  27.017  54.919  1.00  0.00    -0.227 NA
HETATM    6  C   UNL     1       5.519  26.132  54.418  1.00  0.00     0.042 A 
HETATM    7  C   UNL     1       6.845  26.221  54.891  1.00  0.00     0.059 A 
HETATM    8  N   UNL     1       7.269  27.374  55.656  1.00  0.00    -0.309 N 
HETATM    9  C   UNL     1       8.198  27.213  56.720  1.00  0.00     0.298 C 
HETATM   10  O   UNL     1       8.585  26.097  57.081  1.00  0.00    -0.264 OA
HETATM   11  C   UNL     1       6.982  28.677  54.995  1.00  0.00     0.145 C 
HETATM   12  C   UNL     1       5.110  25.104  53.569  1.00  0.00     0.026 A 
HETATM   13  C   UNL     1       6.025  24.127  53.189  1.00  0.00     0.002 A 
HETATM   14  C   UNL     1       7.334  24.174  53.672  1.00  0.00     0.002 A 
HETATM   15  C   UNL     1       7.742  25.213  54.517  1.00  0.00     0.031 A 
HETATM   16  H   UNL     1       4.686  27.083  55.921  1.00  0.00     0.136 HD
ENDROOT
BRANCH   9  17
HETATM   17  C   UNL     1       8.660  28.419  57.464  1.00  0.00     0.239 A 
HETATM   18  N   UNL     1       7.993  28.918  58.522  1.00  0.00    -0.140 NA
HETATM   19  N   UNL     1       8.696  30.027  58.849  1.00  0.00    -0.225 N 
HETATM   20  C   UNL     1       9.753  30.158  57.988  1.00  0.00     0.237 A 
HETATM   21  N   UNL     1       9.755  29.183  57.112  1.00  0.00    -0.216 NA
BRANCH  19  22
HETATM   22  C   UNL     1       8.325  30.871  59.928  1.00  0.00     0.059 A 
HETATM   23  C   UNL     1       9.063  30.829  61.121  1.00  0.00     0.031 A 
HETATM   24  C   UNL     1       8.705  31.648  62.194  1.00  0.00     0.002 A 
HETATM   25  C   UNL     1       7.617  32.511  62.085  1.00  0.00     0.000 A 
HETATM   26  C   UNL     1       6.882  32.559  60.901  1.00  0.00     0.002 A 
HETATM   27  C   UNL     1       7.230  31.741  59.823  1.00  0.00     0.031 A 
ENDBRANCH  19  22
ENDBRANCH   9  17
TORSDOF 2
ENDMDL
MODEL 3
REMARK VINA RESULT:      -9.7      2.342      7.882
REMARK  2 active torsions:
REMARK  status: ('A' for Active; 'I' for Inactive)
REMARK       I    between atoms: N_8  and  C_9 
REMARK    1  A    between atoms: C_9  and  C_10 
REMARK    2  A    between atoms: N_12  and  C_13 
ROOT
HETATM    1  C   UNL     1       5.042  27.119  53.988  1.00  0.00     0.021 C 
HETATM    2  C   UNL     1       6.355  26.774  53.292  1.00  0.00     0.087 C 
HETATM    3  C   UNL     1       6.241  25.515  52.450  1.00  0.00     0.207 C 
HETATM    4  O   UNL     1       6.467  25.509  51.244  1.00  0.00    -0.279 OA
HETATM    5  N   UNL     1       5.964  24.372  53.183  1.00  0.00    -0.227 NA
HETATM    6  C   UNL     1       7.128  23.726  53.677  1.00  0.00     0.042 A 
HETATM    7  C   UNL     1       7.801  24.252  54.800  1.00  0.00     0.059 A 
HETATM    8  N   UNL     1       7.494  25.585  55.273  1.00  0.00    -0.309 N 
HETATM    9  C   UNL     1       7.510  25.860  56.668  1.00  0.00     0.298 C 
HETATM   10  O   UNL     1       7.681  24.968  57.503  1.00  0.00    -0.264 OA
HETATM   11  C   UNL     1       7.574  26.634  54.219  1.00  0.00     0.145 C 
HETATM   12  C   UNL     1       7.488  22.503  53.112  1.00  0.00     0.026 A 
HETATM   13  C   UNL     1       8.524  21.768  53.679  1.00  0.00     0.002 A 
HETATM   14  C   UNL     1       9.182  22.251  54.810  1.00  0.00     0.002 A 
HETATM   15  C   UNL     1       8.824  23.484  55.369  1.00  0.00     0.031 A 
HETATM   16  H   UNL     1       5.419  24.640  53.997  1.00  0.00     0.136 HD
ENDROOT
BRANCH   9  17
HETATM   17  C   UNL     1       7.240  27.251  57.133  1.00  0.00     0.239 A 
HETATM   18  N   UNL     1       8.183  28.017  57.712  1.00  0.00    -0.140 NA
HETATM   19  N   UNL     1       7.519  29.150  58.037  1.00  0.00    -0.225 N 
HETATM   20  C   UNL     1       6.211  29.031  57.646  1.00  0.00     0.237 A 
HETATM   21  N   UNL     1       6.003  27.862  57.090  1.00  0.00    -0.216 NA
BRANCH  19  22
HETATM   22  C   UNL     1       8.152  30.242  58.685  1.00  0.00     0.059 A 
HETATM   23  C   UNL     1       7.449  30.969  59.658  1.00  0.00     0.031 A 
HETATM   24  C   UNL     1       8.056  32.051  60.298  1.00  0.00     0.002 A 
HETATM   25  C   UNL     1       9.363  32.412  59.977  1.00  0.00     0.000 A 
HETATM   26  C   UNL     1      10.067  31.692  59.014  1.00  0.00     0.002 A 
HETATM   27  C   UNL     1       9.467  30.610  58.365  1.00  0.00     0.031 A 
ENDBRANCH  19  22
ENDBRANCH   9  17
TORSDOF 2
ENDMDL
MODEL 4
REMARK VINA RESULT:      -9.6      1.848      3.144
REMARK  2 active torsions:
REMARK  status: ('A' for Active; 'I' for Inactive)
REMARK       I    between atoms: N_8  and  C_9 
REMARK    1  A    between atoms: C_9  and  C_10 
REMARK    2  A    between atoms: N_12  and  C_13 
ROOT
HETATM    1  C   UNL     1       4.419  29.050  54.607  1.00  0.00     0.021 C 
HETATM    2  C   UNL     1       4.207  28.888  56.109  1.00  0.00     0.087 C 
HETATM    3  C   UNL     1       3.995  30.222  56.803  1.00  0.00     0.207 C 
HETATM    4  O   UNL     1       2.981  30.475  57.445  1.00  0.00    -0.279 OA
HETATM    5  N   UNL     1       5.087  31.073  56.728  1.00  0.00    -0.227 NA
HETATM    6  C   UNL     1       6.025  30.877  57.775  1.00  0.00     0.042 A 
HETATM    7  C   UNL     1       6.910  29.779  57.729  1.00  0.00     0.059 A 
HETATM    8  N   UNL     1       6.686  28.703  56.788  1.00  0.00    -0.309 N 
HETATM    9  C   UNL     1       7.794  28.054  56.178  1.00  0.00     0.298 C 
HETATM   10  O   UNL     1       8.951  28.448  56.351  1.00  0.00    -0.264 OA
HETATM   11  C   UNL     1       5.316  28.121  56.850  1.00  0.00     0.145 C 
HETATM   12  C   UNL     1       6.132  31.865  58.753  1.00  0.00     0.026 A 
HETATM   13  C   UNL     1       7.149  31.782  59.700  1.00  0.00     0.002 A 
HETATM   14  C   UNL     1       8.057  30.724  59.653  1.00  0.00     0.002 A 
HETATM   15  C   UNL     1       7.941  29.729  58.675  1.00  0.00     0.031 A 
HETATM   16  H   UNL     1       5.582  30.882  55.862  1.00  0.00     0.136 HD
ENDROOT
BRANCH   9  17
HETATM   17  C   UNL     1       7.544  26.915  55.250  1.00  0.00     0.239 A 
HETATM   18  N   UNL     1       7.783  25.635  55.592  1.00  0.00    -0.140 NA
HETATM   19  N   UNL     1       7.494  24.944  54.465  1.00  0.00    -0.225 N 
HETATM   20  C   UNL     1       7.093  25.820  53.492  1.00  0.00     0.237 A 
HETATM   21  N   UNL     1       7.121  27.051  53.943  1.00  0.00    -0.216 NA
BRANCH  19  22
HETATM   22  C   UNL     1       7.618  23.532  54.388  1.00  0.00     0.059 A 
HETATM   23  C   UNL     1       7.590  22.772  55.566  1.00  0.00     0.031 A 
HETATM   24  C   UNL     1       7.718  21.382  55.506  1.00  0.00     0.002 A 
HETATM   25  C   UNL     1       7.872  20.745  54.277  1.00  0.00     0.000 A 
HETATM   26  C   UNL     1       7.898  21.496  53.103  1.00  0.00     0.002 A 
HETATM   27  C   UNL     1       7.774  22.886  53.153  1.00  0.00     0.031 A 
ENDBRANCH  19  22
ENDBRANCH   9  17
TORSDOF 2
ENDMDL
MODEL 5
REMARK VINA RESULT:      -9.4      3.966      7.002
REMARK  2 active torsions:
REMARK  status: ('A' for Active; 'I' for Inactive)
REMARK       I    between atoms: N_8  and  C_9 
REMARK    1  A    between atoms: C_9  and  C_10 
REMARK    2  A    between atoms: N_12  and  C_13 
ROOT
HETATM    1  C   UNL     1       5.848  27.630  54.954  1.00  0.00     0.021 C 
HETATM    2  C   UNL     1       5.389  26.219  55.308  1.00  0.00     0.087 C 
HETATM    3  C   UNL     1       6.230  25.606  56.414  1.00  0.00     0.207 C 
HETATM    4  O   UNL     1       5.745  25.223  57.473  1.00  0.00    -0.279 OA
HETATM    5  N   UNL     1       7.562  25.428  56.073  1.00  0.00    -0.227 NA
HETATM    6  C   UNL     1       7.817  24.188  55.430  1.00  0.00     0.042 A 
HETATM    7  C   UNL     1       7.473  24.016  54.073  1.00  0.00     0.059 A 
HETATM    8  N   UNL     1       6.613  24.974  53.413  1.00  0.00    -0.309 N 
HETATM    9  C   UNL     1       6.835  25.301  52.048  1.00  0.00     0.298 C 
HETATM   10  O   UNL     1       7.808  24.864  51.426  1.00  0.00    -0.264 OA
HETATM   11  C   UNL     1       5.333  25.232  54.130  1.00  0.00     0.145 C 
HETATM   12  C   UNL     1       8.532  23.220  56.135  1.00  0.00     0.026 A 
HETATM   13  C   UNL     1       8.938  22.060  55.481  1.00  0.00     0.002 A 
HETATM   14  C   UNL     1       8.639  21.883  54.130  1.00  0.00     0.002 A 
HETATM   15  C   UNL     1       7.912  22.853  53.429  1.00  0.00     0.031 A 
HETATM   16  H   UNL     1       7.821  26.152  55.409  1.00  0.00     0.136 HD
ENDROOT
BRANCH   9  17
HETATM   17  C   UNL     1       5.908  26.253  51.372  1.00  0.00     0.239 A 
HETATM   18  N   UNL     1       5.043  25.866  50.415  1.00  0.00    -0.140 NA
HETATM   19  N   UNL     1       4.457  27.023  50.030  1.00  0.00    -0.225 N 
HETATM   20  C   UNL     1       4.979  28.057  50.760  1.00  0.00     0.237 A 
HETATM   21  N   UNL     1       5.888  27.615  51.595  1.00  0.00    -0.216 NA
BRANCH  19  22
HETATM   22  C   UNL     1       3.465  27.070  49.015  1.00  0.00     0.059 A 
HETATM   23  C   UNL     1       2.479  28.068  49.061  1.00  0.00     0.031 A 
HETATM   24  C   UNL     1       1.492  28.122  48.074  1.00  0.00     0.002 A 
HETATM   25  C   UNL     1       1.483  27.189  47.040  1.00  0.00     0.000 A 
HETATM   26  C   UNL     1       2.461  26.197  46.988  1.00  0.00     0.002 A 
HETATM   27  C   UNL     1       3.451  26.133  47.972  1.00  0.00     0.031 A 
ENDBRANCH  19  22
ENDBRANCH   9  17
TORSDOF 2
ENDMDL
MODEL 6
REMARK VINA RESULT:      -8.9      4.442      9.316
REMARK  2 active torsions:
REMARK  status: ('A' for Active; 'I' for Inactive)
REMARK       I    between atoms: N_8  and  C_9 
REMARK    1  A    between atoms: C_9  and  C_10 
REMARK    2  A    between atoms: N_12  and  C_13 
ROOT
HETATM    1  C   UNL     1       3.995  31.746  59.351  1.00  0.00     0.021 C 
HETATM    2  C   UNL     1       4.239  31.947  57.859  1.00  0.00     0.087 C 
HETATM    3  C   UNL     1       3.333  31.072  57.010  1.00  0.00     0.207 C 
HETATM    4  O   UNL     1       2.557  31.539  56.183  1.00  0.00    -0.279 OA
HETATM    5  N   UNL     1       3.542  29.713  57.183  1.00  0.00    -0.227 NA
HETATM    6  C   UNL     1       4.552  29.187  56.335  1.00  0.00     0.042 A 
HETATM    7  C   UNL     1       5.912  29.409  56.640  1.00  0.00     0.059 A 
HETATM    8  N   UNL     1       6.283  30.395  57.633  1.00  0.00    -0.309 N 
HETATM    9  C   UNL     1       7.397  30.156  58.483  1.00  0.00     0.298 C 
HETATM   10  O   UNL     1       8.004  29.082  58.471  1.00  0.00    -0.264 OA
HETATM   11  C   UNL     1       5.692  31.741  57.397  1.00  0.00     0.145 C 
HETATM   12  C   UNL     1       4.162  28.344  55.295  1.00  0.00     0.026 A 
HETATM   13  C   UNL     1       5.134  27.686  54.548  1.00  0.00     0.002 A 
HETATM   14  C   UNL     1       6.484  27.862  54.854  1.00  0.00     0.002 A 
HETATM   15  C   UNL     1       6.872  28.717  55.893  1.00  0.00     0.031 A 
HETATM   16  H   UNL     1       3.859  29.558  58.135  1.00  0.00     0.136 HD
ENDROOT
BRANCH   9  17
HETATM   17  C   UNL     1       7.794  31.206  59.465  1.00  0.00     0.239 A 
HETATM   18  N   UNL     1       7.094  31.448  60.590  1.00  0.00    -0.140 NA
HETATM   19  N   UNL     1       7.740  32.498  61.147  1.00  0.00    -0.225 N 
HETATM   20  C   UNL     1       8.797  32.849  60.350  1.00  0.00     0.237 A 
HETATM   21  N   UNL     1       8.853  32.074  59.295  1.00  0.00    -0.216 NA
BRANCH  19  22
HETATM   22  C   UNL     1       7.319  33.087  62.368  1.00  0.00     0.059 A 
HETATM   23  C   UNL     1       6.339  34.091  62.348  1.00  0.00     0.031 A 
HETATM   24  C   UNL     1       5.920  34.685  63.541  1.00  0.00     0.002 A 
HETATM   25  C   UNL     1       6.471  34.282  64.755  1.00  0.00     0.000 A 
HETATM   26  C   UNL     1       7.442  33.282  64.782  1.00  0.00     0.002 A 
HETATM   27  C   UNL     1       7.870  32.684  63.594  1.00  0.00     0.031 A 
ENDBRANCH  19  22
ENDBRANCH   9  17
TORSDOF 2
ENDMDL
MODEL 7
REMARK VINA RESULT:      -8.9      2.476      4.350
REMARK  2 active torsions:
REMARK  status: ('A' for Active; 'I' for Inactive)
REMARK       I    between atoms: N_8  and  C_9 
REMARK    1  A    between atoms: C_9  and  C_10 
REMARK    2  A    between atoms: N_12  and  C_13 
ROOT
HETATM    1  C   UNL     1       5.308  30.968  55.763  1.00  0.00     0.021 C 
HETATM    2  C   UNL     1       4.972  30.561  57.194  1.00  0.00     0.087 C 
HETATM    3  C   UNL     1       4.908  31.758  58.127  1.00  0.00     0.207 C 
HETATM    4  O   UNL     1       3.899  32.040  58.765  1.00  0.00    -0.279 OA
HETATM    5  N   UNL     1       6.114  32.428  58.265  1.00  0.00    -0.227 NA
HETATM    6  C   UNL     1       6.939  31.894  59.289  1.00  0.00     0.042 A 
HETATM    7  C   UNL     1       7.658  30.701  59.063  1.00  0.00     0.059 A 
HETATM    8  N   UNL     1       7.345  29.869  57.921  1.00  0.00    -0.309 N 
HETATM    9  C   UNL     1       8.388  29.183  57.240  1.00  0.00     0.298 C 
HETATM   10  O   UNL     1       9.575  29.353  57.533  1.00  0.00    -0.264 OA
HETATM   11  C   UNL     1       5.905  29.506  57.813  1.00  0.00     0.145 C 
HETATM   12  C   UNL     1       7.120  32.652  60.446  1.00  0.00     0.026 A 
HETATM   13  C   UNL     1       8.046  32.235  61.397  1.00  0.00     0.002 A 
HETATM   14  C   UNL     1       8.793  31.077  61.180  1.00  0.00     0.002 A 
HETATM   15  C   UNL     1       8.602  30.314  60.022  1.00  0.00     0.031 A 
HETATM   16  H   UNL     1       6.635  32.329  57.398  1.00  0.00     0.136 HD
ENDROOT
BRANCH   9  17
HETATM   17  C   UNL     1       8.040  28.292  56.097  1.00  0.00     0.239 A 
HETATM   18  N   UNL     1       8.064  26.949  56.192  1.00  0.00    -0.140 NA
HETATM   19  N   UNL     1       7.759  26.536  54.940  1.00  0.00    -0.225 N 
HETATM   20  C   UNL     1       7.560  27.631  54.142  1.00  0.00     0.237 A 
HETATM   21  N   UNL     1       7.736  28.735  54.826  1.00  0.00    -0.216 NA
BRANCH  19  22
HETATM   22  C   UNL     1       7.680  25.162  54.592  1.00  0.00     0.059 A 
HETATM   23  C   UNL     1       7.228  24.799  53.314  1.00  0.00     0.031 A 
HETATM   24  C   UNL     1       7.138  23.451  52.960  1.00  0.00     0.002 A 
HETATM   25  C   UNL     1       7.499  22.462  53.872  1.00  0.00     0.000 A 
HETATM   26  C   UNL     1       7.951  22.816  55.142  1.00  0.00     0.002 A 
HETATM   27  C   UNL     1       8.041  24.162  55.506  1.00  0.00     0.031 A 
ENDBRANCH  19  22
ENDBRANCH   9  17
TORSDOF 2
ENDMDL
MODEL 8
REMARK VINA RESULT:      -8.9      1.851      7.806
REMARK  2 active torsions:
REMARK  status: ('A' for Active; 'I' for Inactive)
REMARK       I    between atoms: N_8  and  C_9 
REMARK    1  A    between atoms: C_9  and  C_10 
REMARK    2  A    between atoms: N_12  and  C_13 
ROOT
HETATM    1  C   UNL     1       5.130  27.362  54.296  1.00  0.00     0.021 C 
HETATM    2  C   UNL     1       6.355  26.955  53.484  1.00  0.00     0.087 C 
HETATM    3  C   UNL     1       6.103  25.705  52.659  1.00  0.00     0.207 C 
HETATM    4  O   UNL     1       6.218  25.690  51.437  1.00  0.00    -0.279 OA
HETATM    5  N   UNL     1       5.838  24.576  53.417  1.00  0.00    -0.227 NA
HETATM    6  C   UNL     1       7.008  23.871  53.805  1.00  0.00     0.042 A 
HETATM    7  C   UNL     1       7.805  24.361  54.860  1.00  0.00     0.059 A 
HETATM    8  N   UNL     1       7.609  25.706  55.357  1.00  0.00    -0.309 N 
HETATM    9  C   UNL     1       7.765  25.977  56.744  1.00  0.00     0.298 C 
HETATM   10  O   UNL     1       7.967  25.076  57.562  1.00  0.00    -0.264 OA
HETATM   11  C   UNL     1       7.645  26.753  54.298  1.00  0.00     0.145 C 
HETATM   12  C   UNL     1       7.254  22.633  53.213  1.00  0.00     0.026 A 
HETATM   13  C   UNL     1       8.300  21.846  53.685  1.00  0.00     0.002 A 
HETATM   14  C   UNL     1       9.081  22.294  54.750  1.00  0.00     0.002 A 
HETATM   15  C   UNL     1       8.837  23.542  55.336  1.00  0.00     0.031 A 
HETATM   16  H   UNL     1       5.382  24.868  54.277  1.00  0.00     0.136 HD
ENDROOT
BRANCH   9  17
HETATM   17  C   UNL     1       7.607  27.379  57.228  1.00  0.00     0.239 A 
HETATM   18  N   UNL     1       6.421  28.016  57.231  1.00  0.00    -0.140 NA
HETATM   19  N   UNL     1       6.727  29.258  57.671  1.00  0.00    -0.225 N 
HETATM   20  C   UNL     1       8.072  29.327  57.919  1.00  0.00     0.237 A 
HETATM   21  N   UNL     1       8.649  28.182  57.645  1.00  0.00    -0.216 NA
BRANCH  19  22
HETATM   22  C   UNL     1       5.746  30.273  57.821  1.00  0.00     0.059 A 
HETATM   23  C   UNL     1       6.114  31.511  58.369  1.00  0.00     0.031 A 
HETATM   24  C   UNL     1       5.159  32.517  58.529  1.00  0.00     0.002 A 
HETATM   25  C   UNL     1       3.838  32.297  58.145  1.00  0.00     0.000 A 
HETATM   26  C   UNL     1       3.468  31.070  57.598  1.00  0.00     0.002 A 
HETATM   27  C   UNL     1       4.415  30.057  57.436  1.00  0.00     0.031 A 
ENDBRANCH  19  22
ENDBRANCH   9  17
TORSDOF 2
ENDMDL
MODEL 9
REMARK VINA RESULT:      -8.9      2.395      7.432
REMARK  2 active torsions:
REMARK  status: ('A' for Active; 'I' for Inactive)
REMARK       I    between atoms: N_8  and  C_9 
REMARK    1  A    between atoms: C_9  and  C_10 
REMARK    2  A    between atoms: N_12  and  C_13 
ROOT
HETATM    1  C   UNL     1       8.835  24.922  57.533  1.00  0.00     0.021 C 
HETATM    2  C   UNL     1       7.809  23.832  57.238  1.00  0.00     0.087 C 
HETATM    3  C   UNL     1       8.449  22.459  57.131  1.00  0.00     0.207 C 
HETATM    4  O   UNL     1       8.124  21.524  57.856  1.00  0.00    -0.279 OA
HETATM    5  N   UNL     1       9.347  22.338  56.082  1.00  0.00    -0.227 NA
HETATM    6  C   UNL     1       8.734  21.955  54.859  1.00  0.00     0.042 A 
HETATM    7  C   UNL     1       8.019  22.907  54.104  1.00  0.00     0.059 A 
HETATM    8  N   UNL     1       7.659  24.181  54.690  1.00  0.00    -0.309 N 
HETATM    9  C   UNL     1       7.663  25.354  53.887  1.00  0.00     0.298 C 
HETATM   10  O   UNL     1       8.062  25.340  52.719  1.00  0.00    -0.264 OA
HETATM   11  C   UNL     1       6.942  24.067  55.990  1.00  0.00     0.145 C 
HETATM   12  C   UNL     1       8.982  20.671  54.377  1.00  0.00     0.026 A 
HETATM   13  C   UNL     1       8.532  20.319  53.108  1.00  0.00     0.002 A 
HETATM   14  C   UNL     1       7.851  21.255  52.328  1.00  0.00     0.002 A 
HETATM   15  C   UNL     1       7.596  22.541  52.820  1.00  0.00     0.031 A 
HETATM   16  H   UNL     1       9.769  23.247  55.917  1.00  0.00     0.136 HD
ENDROOT
BRANCH   9  17
HETATM   17  C   UNL     1       7.243  26.648  54.497  1.00  0.00     0.239 A 
HETATM   18  N   UNL     1       7.948  27.254  55.471  1.00  0.00    -0.140 NA
HETATM   19  N   UNL     1       7.199  28.337  55.780  1.00  0.00    -0.225 N 
HETATM   20  C   UNL     1       6.080  28.350  54.990  1.00  0.00     0.237 A 
HETATM   21  N   UNL     1       6.072  27.312  54.190  1.00  0.00    -0.216 NA
BRANCH  19  22
HETATM   22  C   UNL     1       7.584  29.264  56.784  1.00  0.00     0.059 A 
HETATM   23  C   UNL     1       6.621  30.124  57.334  1.00  0.00     0.031 A 
HETATM   24  C   UNL     1       6.986  31.046  58.317  1.00  0.00     0.002 A 
HETATM   25  C   UNL     1       8.306  31.116  58.757  1.00  0.00     0.000 A 
HETATM   26  C   UNL     1       9.266  30.263  58.216  1.00  0.00     0.002 A 
HETATM   27  C   UNL     1       8.911  29.339  57.230  1.00  0.00     0.031 A 
ENDBRANCH  19  22
ENDBRANCH   9  17
TORSDOF 2
ENDMDL
MODEL 10
REMARK VINA RESULT:      -8.5      2.513      7.386
REMARK  2 active torsions:
REMARK  status: ('A' for Active; 'I' for Inactive)
REMARK       I    between atoms: N_8  and  C_9 
REMARK    1  A    between atoms: C_9  and  C_10 
REMARK    2  A    between atoms: N_12  and  C_13 
ROOT
HETATM    1  C   UNL     1       8.367  26.902  57.394  1.00  0.00     0.021 C 
HETATM    2  C   UNL     1       7.227  25.903  57.219  1.00  0.00     0.087 C 
HETATM    3  C   UNL     1       7.621  24.737  56.331  1.00  0.00     0.207 C 
HETATM    4  O   UNL     1       7.582  23.573  56.718  1.00  0.00    -0.279 OA
HETATM    5  N   UNL     1       7.925  25.100  55.028  1.00  0.00    -0.227 NA
HETATM    6  C   UNL     1       6.789  25.138  54.176  1.00  0.00     0.042 A 
HETATM    7  C   UNL     1       5.895  26.227  54.245  1.00  0.00     0.059 A 
HETATM    8  N   UNL     1       5.960  27.152  55.356  1.00  0.00    -0.309 N 
HETATM    9  C   UNL     1       5.701  28.533  55.141  1.00  0.00     0.298 C 
HETATM   10  O   UNL     1       5.517  28.991  54.009  1.00  0.00    -0.264 OA
HETATM   11  C   UNL     1       5.909  26.497  56.692  1.00  0.00     0.145 C 
HETATM   12  C   UNL     1       6.673  24.153  53.196  1.00  0.00     0.026 A 
HETATM   13  C   UNL     1       5.662  24.253  52.244  1.00  0.00     0.002 A 
HETATM   14  C   UNL     1       4.787  25.339  52.271  1.00  0.00     0.002 A 
HETATM   15  C   UNL     1       4.901  26.321  53.263  1.00  0.00     0.031 A 
HETATM   16  H   UNL     1       8.304  26.042  55.040  1.00  0.00     0.136 HD
ENDROOT
BRANCH   9  17
HETATM   17  C   UNL     1       5.723  29.463  56.306  1.00  0.00     0.239 A 
HETATM   18  N   UNL     1       6.867  29.850  56.902  1.00  0.00    -0.140 NA
HETATM   19  N   UNL     1       6.445  30.617  57.934  1.00  0.00    -0.225 N 
HETATM   20  C   UNL     1       5.076  30.668  57.925  1.00  0.00     0.237 A 
HETATM   21  N   UNL     1       4.597  29.956  56.934  1.00  0.00    -0.216 NA
BRANCH  19  22
HETATM   22  C   UNL     1       7.346  31.233  58.841  1.00  0.00     0.059 A 
HETATM   23  C   UNL     1       8.728  31.120  58.623  1.00  0.00     0.031 A 
HETATM   24  C   UNL     1       9.627  31.714  59.511  1.00  0.00     0.002 A 
HETATM   25  C   UNL     1       9.158  32.425  60.613  1.00  0.00     0.000 A 
HETATM   26  C   UNL     1       7.786  32.544  60.832  1.00  0.00     0.002 A 
HETATM   27  C   UNL     1       6.879  31.950  59.952  1.00  0.00     0.031 A 
ENDBRANCH  19  22
ENDBRANCH   9  17
TORSDOF 2
ENDMDL
