MODEL 1
REMARK VINA RESULT:      -7.0      0.000      0.000
REMARK  3 active torsions:
REMARK  status: ('A' for Active; 'I' for Inactive)
REMARK    1  A    between atoms: C_2  and  C_3 
REMARK    2  A    between atoms: C_3  and  C_4 
REMARK    3  A    between atoms: C_24  and  N_25 
ROOT
HETATM    1  C   UNL     1      13.852  11.202  51.453  1.00  0.00     0.067 A 
HETATM    2  N   UNL     1      13.640  12.209  50.588  1.00  0.00    -0.177 NA
HETATM    3  N   UNL     1      12.624  12.909  51.123  1.00  0.00    -0.256 N 
HETATM    4  H   UNL     1      12.271  13.721  50.626  1.00  0.00     0.191 HD
HETATM    5  C   UNL     1      12.177  12.376  52.286  1.00  0.00     0.176 A 
HETATM    6  C   UNL     1      12.964  11.284  52.558  1.00  0.00     0.049 A 
HETATM    7  C   UNL     1      12.686  10.475  53.778  1.00  0.00     0.144 A 
HETATM    8  C   UNL     1      12.524   8.969  53.430  1.00  0.00     0.246 A 
HETATM    9  O   UNL     1      11.658   8.450  52.744  1.00  0.00    -0.271 OA
HETATM   10  N   UNL     1      13.553   8.287  54.069  1.00  0.00    -0.325 N 
HETATM   11  C   UNL     1      14.379   9.153  54.772  1.00  0.00     0.043 A 
HETATM   12  C   UNL     1      13.939  10.480  54.637  1.00  0.00     0.003 A 
HETATM   13  C   UNL     1      15.492   8.797  55.504  1.00  0.00     0.030 A 
HETATM   14  C   UNL     1      16.198   9.821  56.130  1.00  0.00     0.003 A 
HETATM   15  C   UNL     1      15.777  11.157  56.013  1.00  0.00     0.007 A 
HETATM   16  C   UNL     1      14.634  11.510  55.272  1.00  0.00    -0.051 A 
HETATM   17  C   UNL     1      14.232  12.951  55.176  1.00  0.00     0.049 C 
HETATM   18  C   UNL     1      11.431  10.970  54.487  1.00  0.00     0.081 A 
HETATM   19  C   UNL     1      10.899  10.123  55.632  1.00  0.00     0.021 C 
HETATM   20  N   UNL     1      10.457   9.421  56.581  1.00  0.00    -0.096 N 
HETATM   21  C   UNL     1      10.738  12.070  54.086  1.00  0.00     0.140 A 
HETATM   22  O   UNL     1      11.144  12.838  52.980  1.00  0.00    -0.279 OA
HETATM   23  H   UNL     1      13.660   7.284  54.016  1.00  0.00     0.169 HD
ENDROOT
BRANCH  21  24
HETATM   24  N   UNL     1       9.590  12.550  54.675  1.00  0.00    -0.282 NA
HETATM   25  H   UNL     1       8.917  11.845  54.969  1.00  0.00     0.126 HD
HETATM   26  H   UNL     1       9.162  13.289  54.122  1.00  0.00     0.126 HD
ENDBRANCH  21  24
BRANCH   1  27
HETATM   27  C   UNL     1      14.872  10.145  51.153  1.00  0.00     0.061 C 
BRANCH  27  28
HETATM   28  C   UNL     1      16.224  10.351  51.841  1.00  0.00     0.002 C 
HETATM   29  C   UNL     1      16.940   9.026  52.059  1.00  0.00     0.005 C 
ENDBRANCH  27  28
ENDBRANCH   1  27
TORSDOF 3
ENDMDL
MODEL 2
REMARK VINA RESULT:      -6.7     24.046     26.691
REMARK  3 active torsions:
REMARK  status: ('A' for Active; 'I' for Inactive)
REMARK    1  A    between atoms: C_2  and  C_3 
REMARK    2  A    between atoms: C_3  and  C_4 
REMARK    3  A    between atoms: C_24  and  N_25 
ROOT
HETATM    1  C   UNL     1       5.608  33.737  65.248  1.00  0.00     0.067 A 
HETATM    2  N   UNL     1       6.681  33.859  66.048  1.00  0.00    -0.177 NA
HETATM    3  N   UNL     1       7.736  33.668  65.235  1.00  0.00    -0.256 N 
HETATM    4  H   UNL     1       8.670  33.697  65.629  1.00  0.00     0.191 HD
HETATM    5  C   UNL     1       7.369  33.417  63.955  1.00  0.00     0.176 A 
HETATM    6  C   UNL     1       5.999  33.482  63.907  1.00  0.00     0.049 A 
HETATM    7  C   UNL     1       5.304  33.221  62.615  1.00  0.00     0.144 A 
HETATM    8  C   UNL     1       4.210  32.129  62.774  1.00  0.00     0.246 A 
HETATM    9  O   UNL     1       4.363  30.954  63.065  1.00  0.00    -0.271 OA
HETATM   10  N   UNL     1       2.987  32.732  62.499  1.00  0.00    -0.325 N 
HETATM   11  C   UNL     1       3.138  34.078  62.202  1.00  0.00     0.043 A 
HETATM   12  C   UNL     1       4.490  34.454  62.264  1.00  0.00     0.003 A 
HETATM   13  C   UNL     1       2.123  34.960  61.895  1.00  0.00     0.030 A 
HETATM   14  C   UNL     1       2.480  36.280  61.638  1.00  0.00     0.003 A 
HETATM   15  C   UNL     1       3.827  36.681  61.690  1.00  0.00     0.007 A 
HETATM   16  C   UNL     1       4.857  35.773  61.995  1.00  0.00    -0.051 A 
HETATM   17  C   UNL     1       6.277  36.255  62.042  1.00  0.00     0.049 C 
HETATM   18  C   UNL     1       6.297  32.792  61.540  1.00  0.00     0.081 A 
HETATM   19  C   UNL     1       5.723  32.293  60.223  1.00  0.00     0.021 C 
HETATM   20  N   UNL     1       5.248  31.878  59.132  1.00  0.00    -0.096 N 
HETATM   21  C   UNL     1       7.641  32.759  61.742  1.00  0.00     0.140 A 
HETATM   22  O   UNL     1       8.214  33.131  62.971  1.00  0.00    -0.279 OA
HETATM   23  H   UNL     1       2.113  32.226  62.517  1.00  0.00     0.169 HD
ENDROOT
BRANCH  21  24
HETATM   24  N   UNL     1       8.580  32.362  60.816  1.00  0.00    -0.282 NA
HETATM   25  H   UNL     1       9.413  32.942  60.757  1.00  0.00     0.126 HD
HETATM   26  H   UNL     1       8.162  32.189  59.905  1.00  0.00     0.126 HD
ENDBRANCH  21  24
BRANCH   1  27
HETATM   27  C   UNL     1       4.223  33.806  65.819  1.00  0.00     0.061 C 
BRANCH  27  28
HETATM   28  C   UNL     1       3.533  35.163  65.650  1.00  0.00     0.002 C 
HETATM   29  C   UNL     1       4.544  36.299  65.649  1.00  0.00     0.005 C 
ENDBRANCH  27  28
ENDBRANCH   1  27
TORSDOF 3
ENDMDL
MODEL 3
REMARK VINA RESULT:      -6.7     24.406     26.447
REMARK  3 active torsions:
REMARK  status: ('A' for Active; 'I' for Inactive)
REMARK    1  A    between atoms: C_2  and  C_3 
REMARK    2  A    between atoms: C_3  and  C_4 
REMARK    3  A    between atoms: C_24  and  N_25 
ROOT
HETATM    1  C   UNL     1       7.106  32.752  62.350  1.00  0.00     0.067 A 
HETATM    2  N   UNL     1       8.131  32.403  61.554  1.00  0.00    -0.177 NA
HETATM    3  N   UNL     1       7.699  32.668  60.307  1.00  0.00    -0.256 N 
HETATM    4  H   UNL     1       8.309  32.463  59.523  1.00  0.00     0.191 HD
HETATM    5  C   UNL     1       6.436  33.158  60.285  1.00  0.00     0.176 A 
HETATM    6  C   UNL     1       6.020  33.261  61.590  1.00  0.00     0.049 A 
HETATM    7  C   UNL     1       4.644  33.755  61.876  1.00  0.00     0.144 A 
HETATM    8  C   UNL     1       3.872  32.770  62.796  1.00  0.00     0.246 A 
HETATM    9  O   UNL     1       3.537  31.623  62.549  1.00  0.00    -0.271 OA
HETATM   10  N   UNL     1       3.600  33.444  63.982  1.00  0.00    -0.325 N 
HETATM   11  C   UNL     1       4.112  34.733  63.964  1.00  0.00     0.043 A 
HETATM   12  C   UNL     1       4.763  34.993  62.747  1.00  0.00     0.003 A 
HETATM   13  C   UNL     1       4.023  35.656  64.985  1.00  0.00     0.030 A 
HETATM   14  C   UNL     1       4.614  36.898  64.775  1.00  0.00     0.003 A 
HETATM   15  C   UNL     1       5.270  37.185  63.565  1.00  0.00     0.007 A 
HETATM   16  C   UNL     1       5.349  36.241  62.526  1.00  0.00    -0.051 A 
HETATM   17  C   UNL     1       6.064  36.597  61.256  1.00  0.00     0.049 C 
HETATM   18  C   UNL     1       3.860  33.963  60.585  1.00  0.00     0.081 A 
HETATM   19  C   UNL     1       2.376  34.269  60.714  1.00  0.00     0.021 C 
HETATM   20  N   UNL     1       1.146  34.522  60.821  1.00  0.00    -0.096 N 
HETATM   21  C   UNL     1       4.408  33.805  59.351  1.00  0.00     0.140 A 
HETATM   22  O   UNL     1       5.756  33.440  59.180  1.00  0.00    -0.279 OA
HETATM   23  H   UNL     1       3.088  33.024  64.745  1.00  0.00     0.169 HD
ENDROOT
BRANCH  21  24
HETATM   24  N   UNL     1       3.744  33.960  58.155  1.00  0.00    -0.282 NA
HETATM   25  H   UNL     1       4.195  34.569  57.476  1.00  0.00     0.126 HD
HETATM   26  H   UNL     1       2.763  34.192  58.294  1.00  0.00     0.126 HD
ENDBRANCH  21  24
BRANCH   1  27
HETATM   27  C   UNL     1       7.182  32.522  63.830  1.00  0.00     0.061 C 
BRANCH  27  28
HETATM   28  C   UNL     1       7.609  33.747  64.643  1.00  0.00     0.002 C 
HETATM   29  C   UNL     1       6.904  33.788  65.991  1.00  0.00     0.005 C 
ENDBRANCH  27  28
ENDBRANCH   1  27
TORSDOF 3
ENDMDL
MODEL 4
REMARK VINA RESULT:      -6.7     19.299     21.562
REMARK  3 active torsions:
REMARK  status: ('A' for Active; 'I' for Inactive)
REMARK    1  A    between atoms: C_2  and  C_3 
REMARK    2  A    between atoms: C_3  and  C_4 
REMARK    3  A    between atoms: C_24  and  N_25 
ROOT
HETATM    1  C   UNL     1       4.197  31.088  47.780  1.00  0.00     0.067 A 
HETATM    2  N   UNL     1       3.580  32.036  47.053  1.00  0.00    -0.177 NA
HETATM    3  N   UNL     1       2.507  31.416  46.527  1.00  0.00    -0.256 N 
HETATM    4  H   UNL     1       1.890  31.939  45.915  1.00  0.00     0.191 HD
HETATM    5  C   UNL     1       2.431  30.111  46.882  1.00  0.00     0.176 A 
HETATM    6  C   UNL     1       3.489  29.859  47.721  1.00  0.00     0.049 A 
HETATM    7  C   UNL     1       3.677  28.482  48.258  1.00  0.00     0.144 A 
HETATM    8  C   UNL     1       5.115  27.962  47.982  1.00  0.00     0.246 A 
HETATM    9  O   UNL     1       5.636  27.740  46.901  1.00  0.00    -0.271 OA
HETATM   10  N   UNL     1       5.724  27.767  49.217  1.00  0.00    -0.325 N 
HETATM   11  C   UNL     1       4.879  28.111  50.262  1.00  0.00     0.043 A 
HETATM   12  C   UNL     1       3.642  28.562  49.774  1.00  0.00     0.003 A 
HETATM   13  C   UNL     1       5.181  28.043  51.606  1.00  0.00     0.030 A 
HETATM   14  C   UNL     1       4.196  28.447  52.503  1.00  0.00     0.003 A 
HETATM   15  C   UNL     1       2.948  28.900  52.040  1.00  0.00     0.007 A 
HETATM   16  C   UNL     1       2.645  28.957  50.668  1.00  0.00    -0.051 A 
HETATM   17  C   UNL     1       1.299  29.452  50.228  1.00  0.00     0.049 C 
HETATM   18  C   UNL     1       2.664  27.517  47.652  1.00  0.00     0.081 A 
HETATM   19  C   UNL     1       2.855  26.037  47.941  1.00  0.00     0.021 C 
HETATM   20  N   UNL     1       3.012  24.809  48.180  1.00  0.00    -0.096 N 
HETATM   21  C   UNL     1       1.671  27.915  46.812  1.00  0.00     0.140 A 
HETATM   22  O   UNL     1       1.507  29.264  46.447  1.00  0.00    -0.279 OA
HETATM   23  H   UNL     1       6.665  27.413  49.313  1.00  0.00     0.169 HD
ENDROOT
BRANCH  21  24
HETATM   24  N   UNL     1       0.744  27.087  46.221  1.00  0.00    -0.282 NA
HETATM   25  H   UNL     1       1.107  26.212  45.850  1.00  0.00     0.126 HD
HETATM   26  H   UNL     1       0.168  27.586  45.547  1.00  0.00     0.126 HD
ENDBRANCH  21  24
BRANCH   1  27
HETATM   27  C   UNL     1       5.498  31.383  48.463  1.00  0.00     0.061 C 
BRANCH  27  28
HETATM   28  C   UNL     1       5.415  32.453  49.555  1.00  0.00     0.002 C 
HETATM   29  C   UNL     1       4.976  31.854  50.883  1.00  0.00     0.005 C 
ENDBRANCH  27  28
ENDBRANCH   1  27
TORSDOF 3
ENDMDL
MODEL 5
REMARK VINA RESULT:      -6.5     18.901     21.612
REMARK  3 active torsions:
REMARK  status: ('A' for Active; 'I' for Inactive)
REMARK    1  A    between atoms: C_2  and  C_3 
REMARK    2  A    between atoms: C_3  and  C_4 
REMARK    3  A    between atoms: C_24  and  N_25 
ROOT
HETATM    1  C   UNL     1       4.269  29.062  52.210  1.00  0.00     0.067 A 
HETATM    2  N   UNL     1       3.640  29.495  53.317  1.00  0.00    -0.177 NA
HETATM    3  N   UNL     1       2.882  30.524  52.896  1.00  0.00    -0.256 N 
HETATM    4  H   UNL     1       2.321  31.030  53.574  1.00  0.00     0.191 HD
HETATM    5  C   UNL     1       3.018  30.766  51.570  1.00  0.00     0.176 A 
HETATM    6  C   UNL     1       3.883  29.822  51.075  1.00  0.00     0.049 A 
HETATM    7  C   UNL     1       4.245  29.856  49.629  1.00  0.00     0.144 A 
HETATM    8  C   UNL     1       5.786  29.867  49.434  1.00  0.00     0.246 A 
HETATM    9  O   UNL     1       6.576  30.732  49.773  1.00  0.00    -0.271 OA
HETATM   10  N   UNL     1       6.123  28.694  48.766  1.00  0.00    -0.325 N 
HETATM   11  C   UNL     1       5.006  27.910  48.519  1.00  0.00     0.043 A 
HETATM   12  C   UNL     1       3.845  28.525  49.016  1.00  0.00     0.003 A 
HETATM   13  C   UNL     1       4.998  26.685  47.886  1.00  0.00     0.030 A 
HETATM   14  C   UNL     1       3.769  26.047  47.744  1.00  0.00     0.003 A 
HETATM   15  C   UNL     1       2.592  26.643  48.230  1.00  0.00     0.007 A 
HETATM   16  C   UNL     1       2.607  27.897  48.867  1.00  0.00    -0.051 A 
HETATM   17  C   UNL     1       1.323  28.486  49.371  1.00  0.00     0.049 C 
HETATM   18  C   UNL     1       3.638  31.075  48.944  1.00  0.00     0.081 A 
HETATM   19  C   UNL     1       4.080  31.364  47.518  1.00  0.00     0.021 C 
HETATM   20  N   UNL     1       4.446  31.603  46.337  1.00  0.00    -0.096 N 
HETATM   21  C   UNL     1       2.801  31.942  49.576  1.00  0.00     0.140 A 
HETATM   22  O   UNL     1       2.430  31.764  50.921  1.00  0.00    -0.279 OA
HETATM   23  H   UNL     1       7.071  28.469  48.503  1.00  0.00     0.169 HD
ENDROOT
BRANCH  21  24
HETATM   24  N   UNL     1       2.241  33.067  49.014  1.00  0.00    -0.282 NA
HETATM   25  H   UNL     1       1.928  32.969  48.051  1.00  0.00     0.126 HD
HETATM   26  H   UNL     1       2.825  33.888  49.152  1.00  0.00     0.126 HD
ENDBRANCH  21  24
BRANCH   1  27
HETATM   27  C   UNL     1       5.280  27.958  52.294  1.00  0.00     0.061 C 
BRANCH  27  28
HETATM   28  C   UNL     1       4.731  26.566  51.968  1.00  0.00     0.002 C 
HETATM   29  C   UNL     1       5.811  25.672  51.377  1.00  0.00     0.005 C 
ENDBRANCH  27  28
ENDBRANCH   1  27
TORSDOF 3
ENDMDL
MODEL 6
REMARK VINA RESULT:      -6.3     23.521     25.803
REMARK  3 active torsions:
REMARK  status: ('A' for Active; 'I' for Inactive)
REMARK    1  A    between atoms: C_2  and  C_3 
REMARK    2  A    between atoms: C_3  and  C_4 
REMARK    3  A    between atoms: C_24  and  N_25 
ROOT
HETATM    1  C   UNL     1       5.775  32.803  59.676  1.00  0.00     0.067 A 
HETATM    2  N   UNL     1       5.840  33.107  58.369  1.00  0.00    -0.177 NA
HETATM    3  N   UNL     1       4.763  33.882  58.145  1.00  0.00    -0.256 N 
HETATM    4  H   UNL     1       4.590  34.224  57.206  1.00  0.00     0.191 HD
HETATM    5  C   UNL     1       4.013  34.068  59.259  1.00  0.00     0.176 A 
HETATM    6  C   UNL     1       4.647  33.413  60.286  1.00  0.00     0.049 A 
HETATM    7  C   UNL     1       4.031  33.424  61.643  1.00  0.00     0.144 A 
HETATM    8  C   UNL     1       3.876  31.983  62.202  1.00  0.00     0.246 A 
HETATM    9  O   UNL     1       3.180  31.081  61.764  1.00  0.00    -0.271 OA
HETATM   10  N   UNL     1       4.676  31.896  63.337  1.00  0.00    -0.325 N 
HETATM   11  C   UNL     1       5.348  33.085  63.579  1.00  0.00     0.043 A 
HETATM   12  C   UNL     1       5.030  34.044  62.605  1.00  0.00     0.003 A 
HETATM   13  C   UNL     1       6.224  33.325  64.617  1.00  0.00     0.030 A 
HETATM   14  C   UNL     1       6.809  34.587  64.680  1.00  0.00     0.003 A 
HETATM   15  C   UNL     1       6.504  35.566  63.718  1.00  0.00     0.007 A 
HETATM   16  C   UNL     1       5.603  35.316  62.668  1.00  0.00    -0.051 A 
HETATM   17  C   UNL     1       5.317  36.395  61.666  1.00  0.00     0.049 C 
HETATM   18  C   UNL     1       2.669  34.108  61.618  1.00  0.00     0.081 A 
HETATM   19  C   UNL     1       1.824  34.020  62.879  1.00  0.00     0.021 C 
HETATM   20  N   UNL     1       1.122  33.947  63.923  1.00  0.00    -0.096 N 
HETATM   21  C   UNL     1       2.159  34.705  60.508  1.00  0.00     0.140 A 
HETATM   22  O   UNL     1       2.868  34.739  59.293  1.00  0.00    -0.279 OA
HETATM   23  H   UNL     1       4.737  31.059  63.899  1.00  0.00     0.169 HD
ENDROOT
BRANCH  21  24
HETATM   24  N   UNL     1       0.929  35.319  60.423  1.00  0.00    -0.282 NA
HETATM   25  H   UNL     1       0.744  35.816  59.555  1.00  0.00     0.126 HD
HETATM   26  H   UNL     1       0.731  35.884  61.245  1.00  0.00     0.126 HD
ENDBRANCH  21  24
BRANCH   1  27
HETATM   27  C   UNL     1       6.777  31.872  60.290  1.00  0.00     0.061 C 
BRANCH  27  28
HETATM   28  C   UNL     1       7.986  32.567  60.924  1.00  0.00     0.002 C 
HETATM   29  C   UNL     1       8.504  31.786  62.122  1.00  0.00     0.005 C 
ENDBRANCH  27  28
ENDBRANCH   1  27
TORSDOF 3
ENDMDL
MODEL 7
REMARK VINA RESULT:      -6.3     18.791     21.568
REMARK  3 active torsions:
REMARK  status: ('A' for Active; 'I' for Inactive)
REMARK    1  A    between atoms: C_2  and  C_3 
REMARK    2  A    between atoms: C_3  and  C_4 
REMARK    3  A    between atoms: C_24  and  N_25 
ROOT
HETATM    1  C   UNL     1       4.918  28.665  51.005  1.00  0.00     0.067 A 
HETATM    2  N   UNL     1       5.809  27.832  51.570  1.00  0.00    -0.177 NA
HETATM    3  N   UNL     1       5.627  26.658  50.937  1.00  0.00    -0.256 N 
HETATM    4  H   UNL     1       6.188  25.859  51.213  1.00  0.00     0.191 HD
HETATM    5  C   UNL     1       4.647  26.715  50.003  1.00  0.00     0.176 A 
HETATM    6  C   UNL     1       4.178  28.005  49.988  1.00  0.00     0.049 A 
HETATM    7  C   UNL     1       3.065  28.363  49.064  1.00  0.00     0.144 A 
HETATM    8  C   UNL     1       1.898  29.048  49.827  1.00  0.00     0.246 A 
HETATM    9  O   UNL     1       1.184  28.566  50.692  1.00  0.00    -0.271 OA
HETATM   10  N   UNL     1       1.786  30.342  49.328  1.00  0.00    -0.325 N 
HETATM   11  C   UNL     1       2.741  30.597  48.355  1.00  0.00     0.043 A 
HETATM   12  C   UNL     1       3.554  29.471  48.148  1.00  0.00     0.003 A 
HETATM   13  C   UNL     1       2.906  31.783  47.671  1.00  0.00     0.030 A 
HETATM   14  C   UNL     1       3.936  31.842  46.736  1.00  0.00     0.003 A 
HETATM   15  C   UNL     1       4.762  30.728  46.508  1.00  0.00     0.007 A 
HETATM   16  C   UNL     1       4.581  29.519  47.203  1.00  0.00    -0.051 A 
HETATM   17  C   UNL     1       5.494  28.362  46.925  1.00  0.00     0.049 C 
HETATM   18  C   UNL     1       2.541  27.128  48.339  1.00  0.00     0.081 A 
HETATM   19  C   UNL     1       1.273  27.291  47.516  1.00  0.00     0.021 C 
HETATM   20  N   UNL     1       0.222  27.425  46.834  1.00  0.00    -0.096 N 
HETATM   21  C   UNL     1       3.104  25.897  48.468  1.00  0.00     0.140 A 
HETATM   22  O   UNL     1       4.228  25.679  49.286  1.00  0.00    -0.279 OA
HETATM   23  H   UNL     1       1.085  30.993  49.650  1.00  0.00     0.169 HD
ENDROOT
BRANCH  21  24
HETATM   24  N   UNL     1       2.662  24.746  47.855  1.00  0.00    -0.282 NA
HETATM   25  H   UNL     1       2.614  23.921  48.448  1.00  0.00     0.126 HD
HETATM   26  H   UNL     1       3.155  24.570  46.983  1.00  0.00     0.126 HD
ENDBRANCH  21  24
BRANCH   1  27
HETATM   27  C   UNL     1       4.763  30.067  51.511  1.00  0.00     0.061 C 
BRANCH  27  28
HETATM   28  C   UNL     1       5.463  31.132  50.662  1.00  0.00     0.002 C 
HETATM   29  C   UNL     1       4.808  32.494  50.836  1.00  0.00     0.005 C 
ENDBRANCH  27  28
ENDBRANCH   1  27
TORSDOF 3
ENDMDL
MODEL 8
REMARK VINA RESULT:      -6.0      1.815      4.282
REMARK  3 active torsions:
REMARK  status: ('A' for Active; 'I' for Inactive)
REMARK    1  A    between atoms: C_2  and  C_3 
REMARK    2  A    between atoms: C_3  and  C_4 
REMARK    3  A    between atoms: C_24  and  N_25 
ROOT
HETATM    1  C   UNL     1      15.376  10.590  54.899  1.00  0.00     0.067 A 
HETATM    2  N   UNL     1      15.928  10.090  56.018  1.00  0.00    -0.177 NA
HETATM    3  N   UNL     1      14.884   9.671  56.755  1.00  0.00    -0.256 N 
HETATM    4  H   UNL     1      15.059   9.266  57.669  1.00  0.00     0.191 HD
HETATM    5  C   UNL     1      13.692   9.899  56.151  1.00  0.00     0.176 A 
HETATM    6  C   UNL     1      13.962  10.465  54.929  1.00  0.00     0.049 A 
HETATM    7  C   UNL     1      12.828  10.851  54.043  1.00  0.00     0.144 A 
HETATM    8  C   UNL     1      12.945  12.333  53.593  1.00  0.00     0.246 A 
HETATM    9  O   UNL     1      12.894  13.333  54.291  1.00  0.00    -0.271 OA
HETATM   10  N   UNL     1      13.102  12.331  52.211  1.00  0.00    -0.325 N 
HETATM   11  C   UNL     1      13.123  11.040  51.702  1.00  0.00     0.043 A 
HETATM   12  C   UNL     1      12.981  10.097  52.733  1.00  0.00     0.003 A 
HETATM   13  C   UNL     1      13.274  10.692  50.377  1.00  0.00     0.030 A 
HETATM   14  C   UNL     1      13.282   9.335  50.070  1.00  0.00     0.003 A 
HETATM   15  C   UNL     1      13.137   8.370  51.083  1.00  0.00     0.007 A 
HETATM   16  C   UNL     1      12.975   8.734  52.432  1.00  0.00    -0.051 A 
HETATM   17  C   UNL     1      12.831   7.664  53.473  1.00  0.00     0.049 C 
HETATM   18  C   UNL     1      11.491  10.637  54.743  1.00  0.00     0.081 A 
HETATM   19  C   UNL     1      10.249  11.174  54.049  1.00  0.00     0.021 C 
HETATM   20  N   UNL     1       9.219  11.619  53.475  1.00  0.00    -0.096 N 
HETATM   21  C   UNL     1      11.381  10.074  55.976  1.00  0.00     0.140 A 
HETATM   22  O   UNL     1      12.509   9.638  56.694  1.00  0.00    -0.279 OA
HETATM   23  H   UNL     1      13.183  13.179  51.668  1.00  0.00     0.169 HD
ENDROOT
BRANCH  21  24
HETATM   24  N   UNL     1      10.204   9.875  56.663  1.00  0.00    -0.282 NA
HETATM   25  H   UNL     1       9.492  10.589  56.531  1.00  0.00     0.126 HD
HETATM   26  H   UNL     1      10.370   9.668  57.645  1.00  0.00     0.126 HD
ENDBRANCH  21  24
BRANCH   1  27
HETATM   27  C   UNL     1      16.233  11.236  53.853  1.00  0.00     0.061 C 
BRANCH  27  28
HETATM   28  C   UNL     1      16.401  10.415  52.571  1.00  0.00     0.002 C 
HETATM   29  C   UNL     1      16.677   8.952  52.886  1.00  0.00     0.005 C 
ENDBRANCH  27  28
ENDBRANCH   1  27
TORSDOF 3
ENDMDL
MODEL 9
REMARK VINA RESULT:      -5.8      1.765      4.412
REMARK  3 active torsions:
REMARK  status: ('A' for Active; 'I' for Inactive)
REMARK    1  A    between atoms: C_2  and  C_3 
REMARK    2  A    between atoms: C_3  and  C_4 
REMARK    3  A    between atoms: C_24  and  N_25 
ROOT
HETATM    1  C   UNL     1      13.222   9.825  56.708  1.00  0.00     0.067 A 
HETATM    2  N   UNL     1      12.293   9.441  57.601  1.00  0.00    -0.177 NA
HETATM    3  N   UNL     1      11.119   9.783  57.041  1.00  0.00    -0.256 N 
HETATM    4  H   UNL     1      10.261   9.603  57.551  1.00  0.00     0.191 HD
HETATM    5  C   UNL     1      11.271  10.382  55.834  1.00  0.00     0.176 A 
HETATM    6  C   UNL     1      12.616  10.403  55.561  1.00  0.00     0.049 A 
HETATM    7  C   UNL     1      13.090  11.031  54.296  1.00  0.00     0.144 A 
HETATM    8  C   UNL     1      14.186  12.098  54.572  1.00  0.00     0.246 A 
HETATM    9  O   UNL     1      14.071  13.145  55.188  1.00  0.00    -0.271 OA
HETATM   10  N   UNL     1      15.354  11.654  53.962  1.00  0.00    -0.325 N 
HETATM   11  C   UNL     1      15.170  10.427  53.341  1.00  0.00     0.043 A 
HETATM   12  C   UNL     1      13.849   9.978  53.506  1.00  0.00     0.003 A 
HETATM   13  C   UNL     1      16.129   9.712  52.657  1.00  0.00     0.030 A 
HETATM   14  C   UNL     1      15.747   8.489  52.113  1.00  0.00     0.003 A 
HETATM   15  C   UNL     1      14.431   8.019  52.261  1.00  0.00     0.007 A 
HETATM   16  C   UNL     1      13.455   8.759  52.953  1.00  0.00    -0.051 A 
HETATM   17  C   UNL     1      12.066   8.209  53.086  1.00  0.00     0.049 C 
HETATM   18  C   UNL     1      11.933  11.676  53.541  1.00  0.00     0.081 A 
HETATM   19  C   UNL     1      12.282  12.533  52.335  1.00  0.00     0.021 C 
HETATM   20  N   UNL     1      12.571  13.245  51.335  1.00  0.00    -0.096 N 
HETATM   21  C   UNL     1      10.639  11.584  53.948  1.00  0.00     0.140 A 
HETATM   22  O   UNL     1      10.276  10.872  55.105  1.00  0.00    -0.279 OA
HETATM   23  H   UNL     1      16.215  12.182  53.980  1.00  0.00     0.169 HD
ENDROOT
BRANCH  21  24
HETATM   24  N   UNL     1       9.559  12.161  53.318  1.00  0.00    -0.282 NA
HETATM   25  H   UNL     1       9.154  12.967  53.788  1.00  0.00     0.126 HD
HETATM   26  H   UNL     1       8.860  11.470  53.058  1.00  0.00     0.126 HD
ENDBRANCH  21  24
BRANCH   1  27
HETATM   27  C   UNL     1      14.681   9.680  57.020  1.00  0.00     0.061 C 
BRANCH  27  28
HETATM   28  C   UNL     1      15.329   8.412  56.457  1.00  0.00     0.002 C 
HETATM   29  C   UNL     1      16.804   8.633  56.158  1.00  0.00     0.005 C 
ENDBRANCH  27  28
ENDBRANCH   1  27
TORSDOF 3
ENDMDL
MODEL 10
REMARK VINA RESULT:      -5.6     27.171     29.417
REMARK  3 active torsions:
REMARK  status: ('A' for Active; 'I' for Inactive)
REMARK    1  A    between atoms: C_2  and  C_3 
REMARK    2  A    between atoms: C_3  and  C_4 
REMARK    3  A    between atoms: C_24  and  N_25 
ROOT
HETATM    1  C   UNL     1      -4.324  31.261  52.053  1.00  0.00     0.067 A 
HETATM    2  N   UNL     1      -4.564  30.119  52.721  1.00  0.00    -0.177 NA
HETATM    3  N   UNL     1      -4.612  30.486  54.015  1.00  0.00    -0.256 N 
HETATM    4  H   UNL     1      -4.767  29.773  54.721  1.00  0.00     0.191 HD
HETATM    5  C   UNL     1      -4.399  31.812  54.191  1.00  0.00     0.176 A 
HETATM    6  C   UNL     1      -4.239  32.364  52.944  1.00  0.00     0.049 A 
HETATM    7  C   UNL     1      -3.962  33.823  52.826  1.00  0.00     0.144 A 
HETATM    8  C   UNL     1      -2.695  34.089  51.968  1.00  0.00     0.246 A 
HETATM    9  O   UNL     1      -1.543  33.771  52.216  1.00  0.00    -0.271 OA
HETATM   10  N   UNL     1      -3.104  34.793  50.840  1.00  0.00    -0.325 N 
HETATM   11  C   UNL     1      -4.475  35.003  50.840  1.00  0.00     0.043 A 
HETATM   12  C   UNL     1      -5.065  34.442  51.984  1.00  0.00     0.003 A 
HETATM   13  C   UNL     1      -5.196  35.657  49.863  1.00  0.00     0.030 A 
HETATM   14  C   UNL     1      -6.573  35.754  50.042  1.00  0.00     0.003 A 
HETATM   15  C   UNL     1      -7.187  35.203  51.181  1.00  0.00     0.007 A 
HETATM   16  C   UNL     1      -6.444  34.545  52.177  1.00  0.00    -0.051 A 
HETATM   17  C   UNL     1      -7.150  33.972  53.369  1.00  0.00     0.049 C 
HETATM   18  C   UNL     1      -3.786  34.458  54.201  1.00  0.00     0.081 A 
HETATM   19  C   UNL     1      -3.298  35.897  54.246  1.00  0.00     0.021 C 
HETATM   20  N   UNL     1      -2.892  37.090  54.284  1.00  0.00    -0.096 N 
HETATM   21  C   UNL     1      -3.963  33.772  55.362  1.00  0.00     0.140 A 
HETATM   22  O   UNL     1      -4.333  32.415  55.372  1.00  0.00    -0.279 OA
HETATM   23  H   UNL     1      -2.460  35.104  50.127  1.00  0.00     0.169 HD
ENDROOT
BRANCH  21  24
HETATM   24  N   UNL     1      -3.798  34.287  56.629  1.00  0.00    -0.282 NA
HETATM   25  H   UNL     1      -2.906  34.084  57.074  1.00  0.00     0.126 HD
HETATM   26  H   UNL     1      -4.590  34.073  57.230  1.00  0.00     0.126 HD
ENDBRANCH  21  24
BRANCH   1  27
HETATM   27  C   UNL     1      -4.119  31.244  50.568  1.00  0.00     0.061 C 
BRANCH  27  28
HETATM   28  C   UNL     1      -5.323  30.742  49.766  1.00  0.00     0.002 C 
HETATM   29  C   UNL     1      -6.484  31.721  49.843  1.00  0.00     0.005 C 
ENDBRANCH  27  28
ENDBRANCH   1  27
TORSDOF 3
ENDMDL
