MODEL 1
REMARK VINA RESULT:     -10.4      0.000      0.000
REMARK  8 active torsions:
REMARK  status: ('A' for Active; 'I' for Inactive)
REMARK    1  A    between atoms: C_2  and  N_3 
REMARK    2  A    between atoms: N_3  and  N_4 
REMARK       I    between atoms: N_4  and  C_5 
REMARK    3  A    between atoms: C_5  and  C_6 
REMARK       I    between atoms: C_6  and  N_7 
REMARK    4  A    between atoms: N_7  and  C_8 
REMARK    5  A    between atoms: C_16  and  C_17 
REMARK       I    between atoms: C_17  and  N_18 
REMARK    6  A    between atoms: N_18  and  C_19 
REMARK    7  A    between atoms: C_22  and  N_23 
REMARK    8  A    between atoms: N_23  and  C_24 
ROOT
HETATM    1  C   UNL     1       3.719  32.099  58.100  1.00  0.00     0.063 C 
HETATM    2  C   UNL     1       4.467  30.838  57.713  1.00  0.00     0.007 C 
HETATM    3  C   UNL     1       4.021  30.150  56.641  1.00  0.00     0.094 C 
ENDROOT
BRANCH   3   4
HETATM    4  C   UNL     1       4.529  28.838  56.142  1.00  0.00     0.247 C 
HETATM    5  N   UNL     1       5.155  28.119  57.144  1.00  0.00    -0.324 N 
HETATM    6  H   UNL     1       5.015  28.427  58.098  1.00  0.00     0.169 HD
HETATM    7  O   UNL     1       4.362  28.471  54.986  1.00  0.00    -0.268 OA
BRANCH   5   8
HETATM    8  C   UNL     1       5.861  26.909  56.986  1.00  0.00     0.035 A 
HETATM    9  C   UNL     1       5.239  25.667  56.864  1.00  0.00     0.031 A 
HETATM   10  C   UNL     1       6.000  24.503  56.707  1.00  0.00     0.026 A 
HETATM   11  C   UNL     1       7.399  24.549  56.717  1.00  0.00     0.012 A 
HETATM   12  C   UNL     1       8.017  25.802  56.788  1.00  0.00     0.026 A 
HETATM   13  C   UNL     1       7.256  26.972  56.912  1.00  0.00     0.031 A 
BRANCH  11  14
HETATM   14  N   UNL     1       8.140  23.343  56.577  1.00  0.00    -0.260 NA
HETATM   15  H   UNL     1       9.125  23.561  56.727  1.00  0.00     0.134 HD
BRANCH  14  16
HETATM   16  C   UNL     1       8.050  22.523  55.421  1.00  0.00     0.012 A 
HETATM   17  C   UNL     1       8.041  23.089  54.144  1.00  0.00     0.024 A 
HETATM   18  C   UNL     1       8.008  22.272  53.010  1.00  0.00     0.002 A 
HETATM   19  C   UNL     1       7.997  20.884  53.149  1.00  0.00     0.000 A 
HETATM   20  C   UNL     1       8.025  20.312  54.419  1.00  0.00     0.002 A 
HETATM   21  C   UNL     1       8.057  21.127  55.551  1.00  0.00     0.024 A 
ENDBRANCH  14  16
ENDBRANCH  11  14
ENDBRANCH   5   8
ENDBRANCH   3   4
BRANCH   2  22
HETATM   22  N   UNL     1       5.543  30.546  58.544  1.00  0.00    -0.207 NA
HETATM   23  H   UNL     1       5.247  30.221  59.472  1.00  0.00     0.152 HD
BRANCH  22  24
HETATM   24  N   UNL     1       6.615  31.452  58.672  1.00  0.00    -0.279 N 
HETATM   25  C   UNL     1       7.830  30.944  59.094  1.00  0.00     0.323 C 
HETATM   26  O   UNL     1       8.105  29.754  59.145  1.00  0.00    -0.261 OA
HETATM   27  H   UNL     1       6.363  32.438  58.791  1.00  0.00     0.184 HD
BRANCH  25  28
HETATM   28  C   UNL     1       8.804  32.021  59.583  1.00  0.00     0.311 C 
HETATM   29  N   UNL     1       8.586  32.700  60.756  1.00  0.00    -0.348 N 
HETATM   30  H   UNL     1       9.319  33.378  60.927  1.00  0.00     0.163 HD
HETATM   31  O   UNL     1       9.799  32.266  58.904  1.00  0.00    -0.262 OA
BRANCH  29  32
HETATM   32  C   UNL     1       7.590  32.535  61.817  1.00  0.00     0.084 C 
HETATM   33  C   UNL     1       8.186  32.322  63.221  1.00  0.00     0.025 C 
HETATM   34  C   UNL     1       7.690  33.229  64.346  1.00  0.00     0.002 C 
HETATM   35  C   UNL     1       6.263  33.709  64.153  1.00  0.00     0.000 C 
HETATM   36  C   UNL     1       6.132  34.425  62.820  1.00  0.00     0.002 C 
HETATM   37  C   UNL     1       6.386  33.475  61.661  1.00  0.00     0.025 C 
ENDBRANCH  29  32
ENDBRANCH  25  28
ENDBRANCH  22  24
ENDBRANCH   2  22
TORSDOF 8
ENDMDL
MODEL 2
REMARK VINA RESULT:     -10.4      1.219      2.065
REMARK  8 active torsions:
REMARK  status: ('A' for Active; 'I' for Inactive)
REMARK    1  A    between atoms: C_2  and  N_3 
REMARK    2  A    between atoms: N_3  and  N_4 
REMARK       I    between atoms: N_4  and  C_5 
REMARK    3  A    between atoms: C_5  and  C_6 
REMARK       I    between atoms: C_6  and  N_7 
REMARK    4  A    between atoms: N_7  and  C_8 
REMARK    5  A    between atoms: C_16  and  C_17 
REMARK       I    between atoms: C_17  and  N_18 
REMARK    6  A    between atoms: N_18  and  C_19 
REMARK    7  A    between atoms: C_22  and  N_23 
REMARK    8  A    between atoms: N_23  and  C_24 
ROOT
HETATM    1  C   UNL     1       5.268  32.932  58.157  1.00  0.00     0.063 C 
HETATM    2  C   UNL     1       5.927  31.648  57.691  1.00  0.00     0.007 C 
HETATM    3  C   UNL     1       5.244  30.873  56.821  1.00  0.00     0.094 C 
ENDROOT
BRANCH   3   4
HETATM    4  C   UNL     1       5.645  29.528  56.313  1.00  0.00     0.247 C 
HETATM    5  N   UNL     1       5.888  28.643  57.347  1.00  0.00    -0.324 N 
HETATM    6  H   UNL     1       5.573  28.906  58.271  1.00  0.00     0.169 HD
HETATM    7  O   UNL     1       5.707  29.277  55.116  1.00  0.00    -0.268 OA
BRANCH   5   8
HETATM    8  C   UNL     1       6.412  27.340  57.224  1.00  0.00     0.035 A 
HETATM    9  C   UNL     1       7.758  27.032  57.419  1.00  0.00     0.031 A 
HETATM   10  C   UNL     1       8.214  25.716  57.284  1.00  0.00     0.026 A 
HETATM   11  C   UNL     1       7.343  24.688  56.904  1.00  0.00     0.012 A 
HETATM   12  C   UNL     1       5.986  24.992  56.761  1.00  0.00     0.026 A 
HETATM   13  C   UNL     1       5.522  26.303  56.928  1.00  0.00     0.031 A 
BRANCH  11  14
HETATM   14  N   UNL     1       7.846  23.365  56.755  1.00  0.00    -0.260 NA
HETATM   15  H   UNL     1       8.769  23.329  57.187  1.00  0.00     0.134 HD
BRANCH  14  16
HETATM   16  C   UNL     1       7.935  22.722  55.492  1.00  0.00     0.012 A 
HETATM   17  C   UNL     1       7.843  21.333  55.390  1.00  0.00     0.024 A 
HETATM   18  C   UNL     1       7.876  20.711  54.139  1.00  0.00     0.002 A 
HETATM   19  C   UNL     1       7.986  21.480  52.980  1.00  0.00     0.000 A 
HETATM   20  C   UNL     1       8.059  22.869  53.071  1.00  0.00     0.002 A 
HETATM   21  C   UNL     1       8.027  23.488  54.321  1.00  0.00     0.024 A 
ENDBRANCH  14  16
ENDBRANCH  11  14
ENDBRANCH   5   8
ENDBRANCH   3   4
BRANCH   2  22
HETATM   22  N   UNL     1       7.184  31.429  58.245  1.00  0.00    -0.207 NA
HETATM   23  H   UNL     1       7.751  30.778  57.688  1.00  0.00     0.152 HD
BRANCH  22  24
HETATM   24  N   UNL     1       7.320  31.133  59.615  1.00  0.00    -0.279 N 
HETATM   25  C   UNL     1       8.356  31.745  60.299  1.00  0.00     0.323 C 
HETATM   26  O   UNL     1       9.013  32.682  59.868  1.00  0.00    -0.261 OA
HETATM   27  H   UNL     1       6.898  30.256  59.935  1.00  0.00     0.184 HD
BRANCH  25  28
HETATM   28  C   UNL     1       8.675  31.082  61.643  1.00  0.00     0.311 C 
HETATM   29  N   UNL     1       8.270  31.644  62.828  1.00  0.00    -0.348 N 
HETATM   30  H   UNL     1       8.566  31.084  63.618  1.00  0.00     0.163 HD
HETATM   31  O   UNL     1       9.301  30.025  61.643  1.00  0.00    -0.262 OA
BRANCH  29  32
HETATM   32  C   UNL     1       7.413  32.794  63.130  1.00  0.00     0.084 C 
HETATM   33  C   UNL     1       5.912  32.548  62.890  1.00  0.00     0.025 C 
HETATM   34  C   UNL     1       4.950  32.871  64.033  1.00  0.00     0.002 C 
HETATM   35  C   UNL     1       5.438  33.985  64.940  1.00  0.00     0.000 C 
HETATM   36  C   UNL     1       6.806  33.636  65.501  1.00  0.00     0.002 C 
HETATM   37  C   UNL     1       7.845  33.546  64.396  1.00  0.00     0.025 C 
ENDBRANCH  29  32
ENDBRANCH  25  28
ENDBRANCH  22  24
ENDBRANCH   2  22
TORSDOF 8
ENDMDL
MODEL 3
REMARK VINA RESULT:     -10.1      1.569      1.905
REMARK  8 active torsions:
REMARK  status: ('A' for Active; 'I' for Inactive)
REMARK    1  A    between atoms: C_2  and  N_3 
REMARK    2  A    between atoms: N_3  and  N_4 
REMARK       I    between atoms: N_4  and  C_5 
REMARK    3  A    between atoms: C_5  and  C_6 
REMARK       I    between atoms: C_6  and  N_7 
REMARK    4  A    between atoms: N_7  and  C_8 
REMARK    5  A    between atoms: C_16  and  C_17 
REMARK       I    between atoms: C_17  and  N_18 
REMARK    6  A    between atoms: N_18  and  C_19 
REMARK    7  A    between atoms: C_22  and  N_23 
REMARK    8  A    between atoms: N_23  and  C_24 
ROOT
HETATM    1  C   UNL     1       3.901  32.065  57.098  1.00  0.00     0.063 C 
HETATM    2  C   UNL     1       4.731  30.796  57.135  1.00  0.00     0.007 C 
HETATM    3  C   UNL     1       4.606  29.936  56.102  1.00  0.00     0.094 C 
ENDROOT
BRANCH   3   4
HETATM    4  C   UNL     1       5.237  28.590  55.975  1.00  0.00     0.247 C 
HETATM    5  N   UNL     1       5.417  28.233  54.651  1.00  0.00    -0.324 N 
HETATM    6  H   UNL     1       5.322  28.960  53.954  1.00  0.00     0.169 HD
HETATM    7  O   UNL     1       5.566  27.930  56.952  1.00  0.00    -0.268 OA
BRANCH   5   8
HETATM    8  C   UNL     1       5.857  26.980  54.177  1.00  0.00     0.035 A 
HETATM    9  C   UNL     1       5.006  26.031  53.611  1.00  0.00     0.031 A 
HETATM   10  C   UNL     1       5.507  24.806  53.157  1.00  0.00     0.026 A 
HETATM   11  C   UNL     1       6.862  24.484  53.303  1.00  0.00     0.012 A 
HETATM   12  C   UNL     1       7.720  25.458  53.822  1.00  0.00     0.026 A 
HETATM   13  C   UNL     1       7.224  26.698  54.248  1.00  0.00     0.031 A 
BRANCH  11  14
HETATM   14  N   UNL     1       7.333  23.220  52.850  1.00  0.00    -0.260 NA
HETATM   15  H   UNL     1       6.616  22.815  52.249  1.00  0.00     0.134 HD
BRANCH  14  16
HETATM   16  C   UNL     1       7.773  22.207  53.742  1.00  0.00     0.012 A 
HETATM   17  C   UNL     1       7.564  22.327  55.117  1.00  0.00     0.024 A 
HETATM   18  C   UNL     1       7.951  21.300  55.983  1.00  0.00     0.002 A 
HETATM   19  C   UNL     1       8.536  20.141  55.475  1.00  0.00     0.000 A 
HETATM   20  C   UNL     1       8.731  20.005  54.102  1.00  0.00     0.002 A 
HETATM   21  C   UNL     1       8.346  21.031  53.238  1.00  0.00     0.024 A 
ENDBRANCH  14  16
ENDBRANCH  11  14
ENDBRANCH   5   8
ENDBRANCH   3   4
BRANCH   2  22
HETATM   22  N   UNL     1       5.529  30.681  58.268  1.00  0.00    -0.207 NA
HETATM   23  H   UNL     1       4.980  30.635  59.134  1.00  0.00     0.152 HD
BRANCH  22  24
HETATM   24  N   UNL     1       6.641  31.526  58.448  1.00  0.00    -0.279 N 
HETATM   25  C   UNL     1       7.792  30.962  58.969  1.00  0.00     0.323 C 
HETATM   26  O   UNL     1       7.991  29.760  59.070  1.00  0.00    -0.261 OA
HETATM   27  H   UNL     1       6.442  32.529  58.524  1.00  0.00     0.184 HD
BRANCH  25  28
HETATM   28  C   UNL     1       8.792  31.995  59.498  1.00  0.00     0.311 C 
HETATM   29  N   UNL     1       8.584  32.644  60.689  1.00  0.00    -0.348 N 
HETATM   30  H   UNL     1       9.334  33.295  60.887  1.00  0.00     0.163 HD
HETATM   31  O   UNL     1       9.799  32.232  58.834  1.00  0.00    -0.262 OA
BRANCH  29  32
HETATM   32  C   UNL     1       7.575  32.475  61.738  1.00  0.00     0.084 C 
HETATM   33  C   UNL     1       8.153  32.223  63.142  1.00  0.00     0.025 C 
HETATM   34  C   UNL     1       7.662  33.117  64.281  1.00  0.00     0.002 C 
HETATM   35  C   UNL     1       6.246  33.626  64.085  1.00  0.00     0.000 C 
HETATM   36  C   UNL     1       6.141  34.371  62.765  1.00  0.00     0.002 C 
HETATM   37  C   UNL     1       6.390  33.440  61.589  1.00  0.00     0.025 C 
ENDBRANCH  29  32
ENDBRANCH  25  28
ENDBRANCH  22  24
ENDBRANCH   2  22
TORSDOF 8
ENDMDL
MODEL 4
REMARK VINA RESULT:     -10.1      2.370      3.641
REMARK  8 active torsions:
REMARK  status: ('A' for Active; 'I' for Inactive)
REMARK    1  A    between atoms: C_2  and  N_3 
REMARK    2  A    between atoms: N_3  and  N_4 
REMARK       I    between atoms: N_4  and  C_5 
REMARK    3  A    between atoms: C_5  and  C_6 
REMARK       I    between atoms: C_6  and  N_7 
REMARK    4  A    between atoms: N_7  and  C_8 
REMARK    5  A    between atoms: C_16  and  C_17 
REMARK       I    between atoms: C_17  and  N_18 
REMARK    6  A    between atoms: N_18  and  C_19 
REMARK    7  A    between atoms: C_22  and  N_23 
REMARK    8  A    between atoms: N_23  and  C_24 
ROOT
HETATM    1  C   UNL     1       9.590  32.222  60.127  1.00  0.00     0.063 C 
HETATM    2  C   UNL     1       8.711  31.025  59.817  1.00  0.00     0.007 C 
HETATM    3  C   UNL     1       8.683  30.583  58.542  1.00  0.00     0.094 C 
ENDROOT
BRANCH   3   4
HETATM    4  C   UNL     1       7.820  29.499  57.988  1.00  0.00     0.247 C 
HETATM    5  N   UNL     1       8.574  28.461  57.470  1.00  0.00    -0.324 N 
HETATM    6  H   UNL     1       9.556  28.433  57.707  1.00  0.00     0.169 HD
HETATM    7  O   UNL     1       6.598  29.551  58.034  1.00  0.00    -0.268 OA
BRANCH   5   8
HETATM    8  C   UNL     1       8.083  27.350  56.753  1.00  0.00     0.035 A 
HETATM    9  C   UNL     1       7.736  27.399  55.404  1.00  0.00     0.031 A 
HETATM   10  C   UNL     1       7.257  26.259  54.750  1.00  0.00     0.026 A 
HETATM   11  C   UNL     1       7.068  25.057  55.443  1.00  0.00     0.012 A 
HETATM   12  C   UNL     1       7.466  24.998  56.782  1.00  0.00     0.026 A 
HETATM   13  C   UNL     1       7.976  26.131  57.430  1.00  0.00     0.031 A 
BRANCH  11  14
HETATM   14  N   UNL     1       6.558  23.924  54.751  1.00  0.00    -0.260 NA
HETATM   15  H   UNL     1       5.693  23.638  55.211  1.00  0.00     0.134 HD
BRANCH  14  16
HETATM   16  C   UNL     1       7.334  22.756  54.527  1.00  0.00     0.012 A 
HETATM   17  C   UNL     1       7.616  21.875  55.573  1.00  0.00     0.024 A 
HETATM   18  C   UNL     1       8.333  20.699  55.333  1.00  0.00     0.002 A 
HETATM   19  C   UNL     1       8.759  20.392  54.040  1.00  0.00     0.000 A 
HETATM   20  C   UNL     1       8.465  21.256  52.988  1.00  0.00     0.002 A 
HETATM   21  C   UNL     1       7.750  22.430  53.228  1.00  0.00     0.024 A 
ENDBRANCH  14  16
ENDBRANCH  11  14
ENDBRANCH   5   8
ENDBRANCH   3   4
BRANCH   2  22
HETATM   22  N   UNL     1       8.025  30.532  60.921  1.00  0.00    -0.207 NA
HETATM   23  H   UNL     1       7.884  29.516  60.875  1.00  0.00     0.152 HD
BRANCH  22  24
HETATM   24  N   UNL     1       6.847  31.160  61.370  1.00  0.00    -0.279 N 
HETATM   25  C   UNL     1       6.857  31.694  62.646  1.00  0.00     0.323 C 
HETATM   26  O   UNL     1       7.864  31.864  63.319  1.00  0.00    -0.261 OA
HETATM   27  H   UNL     1       5.978  30.886  60.899  1.00  0.00     0.184 HD
BRANCH  25  28
HETATM   28  C   UNL     1       5.457  31.991  63.194  1.00  0.00     0.311 C 
HETATM   29  N   UNL     1       5.098  33.257  63.586  1.00  0.00    -0.348 N 
HETATM   30  H   UNL     1       4.145  33.277  63.928  1.00  0.00     0.163 HD
HETATM   31  O   UNL     1       4.649  31.068  63.272  1.00  0.00    -0.262 OA
BRANCH  29  32
HETATM   32  C   UNL     1       5.782  34.548  63.483  1.00  0.00     0.084 C 
HETATM   33  C   UNL     1       5.720  35.191  62.085  1.00  0.00     0.025 C 
HETATM   34  C   UNL     1       5.228  36.635  61.991  1.00  0.00     0.002 C 
HETATM   35  C   UNL     1       5.522  37.458  63.231  1.00  0.00     0.000 C 
HETATM   36  C   UNL     1       4.918  36.788  64.454  1.00  0.00     0.002 C 
HETATM   37  C   UNL     1       5.567  35.439  64.716  1.00  0.00     0.025 C 
ENDBRANCH  29  32
ENDBRANCH  25  28
ENDBRANCH  22  24
ENDBRANCH   2  22
TORSDOF 8
ENDMDL
MODEL 5
REMARK VINA RESULT:      -9.7      2.777      4.868
REMARK  8 active torsions:
REMARK  status: ('A' for Active; 'I' for Inactive)
REMARK    1  A    between atoms: C_2  and  N_3 
REMARK    2  A    between atoms: N_3  and  N_4 
REMARK       I    between atoms: N_4  and  C_5 
REMARK    3  A    between atoms: C_5  and  C_6 
REMARK       I    between atoms: C_6  and  N_7 
REMARK    4  A    between atoms: N_7  and  C_8 
REMARK    5  A    between atoms: C_16  and  C_17 
REMARK       I    between atoms: C_17  and  N_18 
REMARK    6  A    between atoms: N_18  and  C_19 
REMARK    7  A    between atoms: C_22  and  N_23 
REMARK    8  A    between atoms: N_23  and  C_24 
ROOT
HETATM    1  C   UNL     1       7.989  32.445  63.429  1.00  0.00     0.063 C 
HETATM    2  C   UNL     1       7.807  31.974  61.999  1.00  0.00     0.007 C 
HETATM    3  C   UNL     1       8.888  31.999  61.189  1.00  0.00     0.094 C 
ENDROOT
BRANCH   3   4
HETATM    4  C   UNL     1       8.923  31.685  59.731  1.00  0.00     0.247 C 
HETATM    5  N   UNL     1       8.139  30.587  59.426  1.00  0.00    -0.324 N 
HETATM    6  H   UNL     1       7.486  30.268  60.130  1.00  0.00     0.169 HD
HETATM    7  O   UNL     1       9.558  32.362  58.934  1.00  0.00    -0.268 OA
BRANCH   5   8
HETATM    8  C   UNL     1       8.056  29.943  58.174  1.00  0.00     0.035 A 
HETATM    9  C   UNL     1       9.154  29.375  57.528  1.00  0.00     0.031 A 
HETATM   10  C   UNL     1       9.002  28.748  56.287  1.00  0.00     0.026 A 
HETATM   11  C   UNL     1       7.760  28.716  55.642  1.00  0.00     0.012 A 
HETATM   12  C   UNL     1       6.653  29.240  56.317  1.00  0.00     0.026 A 
HETATM   13  C   UNL     1       6.797  29.840  57.575  1.00  0.00     0.031 A 
BRANCH  11  14
HETATM   14  N   UNL     1       7.648  28.089  54.370  1.00  0.00    -0.260 NA
HETATM   15  H   UNL     1       6.878  28.531  53.869  1.00  0.00     0.134 HD
BRANCH  14  16
HETATM   16  C   UNL     1       7.507  26.683  54.224  1.00  0.00     0.012 A 
HETATM   17  C   UNL     1       7.735  26.068  52.992  1.00  0.00     0.024 A 
HETATM   18  C   UNL     1       7.649  24.678  52.869  1.00  0.00     0.002 A 
HETATM   19  C   UNL     1       7.349  23.895  53.984  1.00  0.00     0.000 A 
HETATM   20  C   UNL     1       7.140  24.500  55.222  1.00  0.00     0.002 A 
HETATM   21  C   UNL     1       7.224  25.888  55.344  1.00  0.00     0.024 A 
ENDBRANCH  14  16
ENDBRANCH  11  14
ENDBRANCH   5   8
ENDBRANCH   3   4
BRANCH   2  22
HETATM   22  N   UNL     1       6.510  31.572  61.700  1.00  0.00    -0.207 NA
HETATM   23  H   UNL     1       6.483  30.780  61.046  1.00  0.00     0.152 HD
BRANCH  22  24
HETATM   24  N   UNL     1       5.531  32.520  61.345  1.00  0.00    -0.279 N 
HETATM   25  C   UNL     1       4.227  32.263  61.727  1.00  0.00     0.323 C 
HETATM   26  O   UNL     1       3.897  31.405  62.534  1.00  0.00    -0.261 OA
HETATM   27  H   UNL     1       5.758  33.133  60.555  1.00  0.00     0.184 HD
BRANCH  25  28
HETATM   28  C   UNL     1       3.193  33.110  60.978  1.00  0.00     0.311 C 
HETATM   29  N   UNL     1       2.774  34.322  61.468  1.00  0.00    -0.348 N 
HETATM   30  H   UNL     1       2.088  34.746  60.856  1.00  0.00     0.163 HD
HETATM   31  O   UNL     1       2.744  32.686  59.916  1.00  0.00    -0.262 OA
BRANCH  29  32
HETATM   32  C   UNL     1       3.220  35.130  62.606  1.00  0.00     0.084 C 
HETATM   33  C   UNL     1       3.008  34.466  63.979  1.00  0.00     0.025 C 
HETATM   34  C   UNL     1       4.210  34.382  64.919  1.00  0.00     0.002 C 
HETATM   35  C   UNL     1       5.209  35.508  64.727  1.00  0.00     0.000 C 
HETATM   36  C   UNL     1       5.685  35.539  63.285  1.00  0.00     0.002 C 
HETATM   37  C   UNL     1       4.542  35.864  62.337  1.00  0.00     0.025 C 
ENDBRANCH  29  32
ENDBRANCH  25  28
ENDBRANCH  22  24
ENDBRANCH   2  22
TORSDOF 8
ENDMDL
MODEL 6
REMARK VINA RESULT:      -9.6      2.072      2.918
REMARK  8 active torsions:
REMARK  status: ('A' for Active; 'I' for Inactive)
REMARK    1  A    between atoms: C_2  and  N_3 
REMARK    2  A    between atoms: N_3  and  N_4 
REMARK       I    between atoms: N_4  and  C_5 
REMARK    3  A    between atoms: C_5  and  C_6 
REMARK       I    between atoms: C_6  and  N_7 
REMARK    4  A    between atoms: N_7  and  C_8 
REMARK    5  A    between atoms: C_16  and  C_17 
REMARK       I    between atoms: C_17  and  N_18 
REMARK    6  A    between atoms: N_18  and  C_19 
REMARK    7  A    between atoms: C_22  and  N_23 
REMARK    8  A    between atoms: N_23  and  C_24 
ROOT
HETATM    1  C   UNL     1       4.762  33.177  58.261  1.00  0.00     0.063 C 
HETATM    2  C   UNL     1       5.504  31.939  58.729  1.00  0.00     0.007 C 
HETATM    3  C   UNL     1       6.149  31.206  57.797  1.00  0.00     0.094 C 
ENDROOT
BRANCH   3   4
HETATM    4  C   UNL     1       6.850  29.905  58.006  1.00  0.00     0.247 C 
HETATM    5  N   UNL     1       6.470  28.964  57.066  1.00  0.00    -0.324 N 
HETATM    6  H   UNL     1       5.967  29.292  56.253  1.00  0.00     0.169 HD
HETATM    7  O   UNL     1       7.675  29.745  58.896  1.00  0.00    -0.268 OA
BRANCH   5   8
HETATM    8  C   UNL     1       6.834  27.601  57.056  1.00  0.00     0.035 A 
HETATM    9  C   UNL     1       8.147  27.156  57.199  1.00  0.00     0.031 A 
HETATM   10  C   UNL     1       8.440  25.788  57.183  1.00  0.00     0.026 A 
HETATM   11  C   UNL     1       7.433  24.838  56.974  1.00  0.00     0.012 A 
HETATM   12  C   UNL     1       6.112  25.286  56.884  1.00  0.00     0.026 A 
HETATM   13  C   UNL     1       5.813  26.654  56.933  1.00  0.00     0.031 A 
BRANCH  11  14
HETATM   14  N   UNL     1       7.771  23.456  56.942  1.00  0.00    -0.260 NA
HETATM   15  H   UNL     1       8.680  23.345  57.390  1.00  0.00     0.134 HD
BRANCH  14  16
HETATM   16  C   UNL     1       7.788  22.705  55.737  1.00  0.00     0.012 A 
HETATM   17  C   UNL     1       7.858  23.344  54.498  1.00  0.00     0.024 A 
HETATM   18  C   UNL     1       7.930  22.596  53.319  1.00  0.00     0.002 A 
HETATM   19  C   UNL     1       7.948  21.202  53.377  1.00  0.00     0.000 A 
HETATM   20  C   UNL     1       7.898  20.556  54.610  1.00  0.00     0.002 A 
HETATM   21  C   UNL     1       7.824  21.304  55.786  1.00  0.00     0.024 A 
ENDBRANCH  14  16
ENDBRANCH  11  14
ENDBRANCH   5   8
ENDBRANCH   3   4
BRANCH   2  22
HETATM   22  N   UNL     1       5.412  31.713  60.098  1.00  0.00    -0.207 NA
HETATM   23  H   UNL     1       4.501  31.990  60.483  1.00  0.00     0.152 HD
BRANCH  22  24
HETATM   24  N   UNL     1       6.444  32.129  60.962  1.00  0.00    -0.279 N 
HETATM   25  C   UNL     1       6.225  32.004  62.322  1.00  0.00     0.323 C 
HETATM   26  O   UNL     1       5.312  31.361  62.822  1.00  0.00    -0.261 OA
HETATM   27  H   UNL     1       7.117  32.799  60.576  1.00  0.00     0.184 HD
BRANCH  25  28
HETATM   28  C   UNL     1       7.197  32.826  63.175  1.00  0.00     0.311 C 
HETATM   29  N   UNL     1       6.754  33.853  63.971  1.00  0.00    -0.348 N 
HETATM   30  H   UNL     1       7.523  34.293  64.461  1.00  0.00     0.163 HD
HETATM   31  O   UNL     1       8.393  32.544  63.140  1.00  0.00    -0.262 OA
BRANCH  29  32
HETATM   32  C   UNL     1       5.409  34.320  64.316  1.00  0.00     0.084 C 
HETATM   33  C   UNL     1       4.777  33.601  65.522  1.00  0.00     0.025 C 
HETATM   34  C   UNL     1       4.224  34.467  66.653  1.00  0.00     0.002 C 
HETATM   35  C   UNL     1       3.732  35.827  66.190  1.00  0.00     0.000 C 
HETATM   36  C   UNL     1       4.848  36.566  65.474  1.00  0.00     0.002 C 
HETATM   37  C   UNL     1       5.257  35.843  64.201  1.00  0.00     0.025 C 
ENDBRANCH  29  32
ENDBRANCH  25  28
ENDBRANCH  22  24
ENDBRANCH   2  22
TORSDOF 8
ENDMDL
MODEL 7
REMARK VINA RESULT:      -9.6      4.193      6.897
REMARK  8 active torsions:
REMARK  status: ('A' for Active; 'I' for Inactive)
REMARK    1  A    between atoms: C_2  and  N_3 
REMARK    2  A    between atoms: N_3  and  N_4 
REMARK       I    between atoms: N_4  and  C_5 
REMARK    3  A    between atoms: C_5  and  C_6 
REMARK       I    between atoms: C_6  and  N_7 
REMARK    4  A    between atoms: N_7  and  C_8 
REMARK    5  A    between atoms: C_16  and  C_17 
REMARK       I    between atoms: C_17  and  N_18 
REMARK    6  A    between atoms: N_18  and  C_19 
REMARK    7  A    between atoms: C_22  and  N_23 
REMARK    8  A    between atoms: N_23  and  C_24 
ROOT
HETATM    1  C   UNL     1       2.752  31.938  56.406  1.00  0.00     0.063 C 
HETATM    2  C   UNL     1       3.520  30.782  55.793  1.00  0.00     0.007 C 
HETATM    3  C   UNL     1       4.396  30.125  56.581  1.00  0.00     0.094 C 
ENDROOT
BRANCH   3   4
HETATM    4  C   UNL     1       5.330  29.035  56.171  1.00  0.00     0.247 C 
HETATM    5  N   UNL     1       5.207  27.924  56.985  1.00  0.00    -0.324 N 
HETATM    6  H   UNL     1       4.398  27.874  57.589  1.00  0.00     0.169 HD
HETATM    7  O   UNL     1       6.074  29.145  55.205  1.00  0.00    -0.268 OA
BRANCH   5   8
HETATM    8  C   UNL     1       6.028  26.777  56.961  1.00  0.00     0.035 A 
HETATM    9  C   UNL     1       5.617  25.550  56.442  1.00  0.00     0.031 A 
HETATM   10  C   UNL     1       6.483  24.451  56.446  1.00  0.00     0.026 A 
HETATM   11  C   UNL     1       7.759  24.541  57.013  1.00  0.00     0.012 A 
HETATM   12  C   UNL     1       8.185  25.787  57.484  1.00  0.00     0.026 A 
HETATM   13  C   UNL     1       7.332  26.897  57.451  1.00  0.00     0.031 A 
BRANCH  11  14
HETATM   14  N   UNL     1       8.604  23.397  57.019  1.00  0.00    -0.260 NA
HETATM   15  H   UNL     1       9.571  23.720  57.062  1.00  0.00     0.134 HD
BRANCH  14  16
HETATM   16  C   UNL     1       8.530  22.389  56.022  1.00  0.00     0.012 A 
HETATM   17  C   UNL     1       9.062  22.604  54.749  1.00  0.00     0.024 A 
HETATM   18  C   UNL     1       9.033  21.587  53.790  1.00  0.00     0.002 A 
HETATM   19  C   UNL     1       8.485  20.344  54.106  1.00  0.00     0.000 A 
HETATM   20  C   UNL     1       7.970  20.114  55.380  1.00  0.00     0.002 A 
HETATM   21  C   UNL     1       7.997  21.130  56.336  1.00  0.00     0.024 A 
ENDBRANCH  14  16
ENDBRANCH  11  14
ENDBRANCH   5   8
ENDBRANCH   3   4
BRANCH   2  22
HETATM   22  N   UNL     1       3.214  30.551  54.456  1.00  0.00    -0.207 NA
HETATM   23  H   UNL     1       2.598  29.739  54.328  1.00  0.00     0.152 HD
BRANCH  22  24
HETATM   24  N   UNL     1       4.231  30.540  53.481  1.00  0.00    -0.279 N 
HETATM   25  C   UNL     1       4.110  29.633  52.444  1.00  0.00     0.323 C 
HETATM   26  O   UNL     1       3.091  29.006  52.187  1.00  0.00    -0.261 OA
HETATM   27  H   UNL     1       5.136  30.927  53.765  1.00  0.00     0.184 HD
BRANCH  25  28
HETATM   28  C   UNL     1       5.414  29.411  51.672  1.00  0.00     0.311 C 
HETATM   29  N   UNL     1       6.202  28.312  51.906  1.00  0.00    -0.348 N 
HETATM   30  H   UNL     1       7.027  28.321  51.318  1.00  0.00     0.163 HD
HETATM   31  O   UNL     1       5.744  30.238  50.826  1.00  0.00    -0.262 OA
BRANCH  29  32
HETATM   32  C   UNL     1       6.005  27.118  52.732  1.00  0.00     0.084 C 
HETATM   33  C   UNL     1       4.876  26.189  52.246  1.00  0.00     0.025 C 
HETATM   34  C   UNL     1       5.210  24.711  52.051  1.00  0.00     0.002 C 
HETATM   35  C   UNL     1       6.310  24.211  52.970  1.00  0.00     0.000 C 
HETATM   36  C   UNL     1       7.562  25.050  52.784  1.00  0.00     0.002 C 
HETATM   37  C   UNL     1       7.324  26.491  53.204  1.00  0.00     0.025 C 
ENDBRANCH  29  32
ENDBRANCH  25  28
ENDBRANCH  22  24
ENDBRANCH   2  22
TORSDOF 8
ENDMDL
MODEL 8
REMARK VINA RESULT:      -9.6      2.447     11.408
REMARK  8 active torsions:
REMARK  status: ('A' for Active; 'I' for Inactive)
REMARK    1  A    between atoms: C_2  and  N_3 
REMARK    2  A    between atoms: N_3  and  N_4 
REMARK       I    between atoms: N_4  and  C_5 
REMARK    3  A    between atoms: C_5  and  C_6 
REMARK       I    between atoms: C_6  and  N_7 
REMARK    4  A    between atoms: N_7  and  C_8 
REMARK    5  A    between atoms: C_16  and  C_17 
REMARK       I    between atoms: C_17  and  N_18 
REMARK    6  A    between atoms: N_18  and  C_19 
REMARK    7  A    between atoms: C_22  and  N_23 
REMARK    8  A    between atoms: N_23  and  C_24 
ROOT
HETATM    1  C   UNL     1      11.186  29.560  56.816  1.00  0.00     0.063 C 
HETATM    2  C   UNL     1       9.764  29.869  57.242  1.00  0.00     0.007 C 
HETATM    3  C   UNL     1       9.583  30.425  58.460  1.00  0.00     0.094 C 
ENDROOT
BRANCH   3   4
HETATM    4  C   UNL     1       8.280  30.715  59.128  1.00  0.00     0.247 C 
HETATM    5  N   UNL     1       8.431  31.607  60.174  1.00  0.00    -0.324 N 
HETATM    6  H   UNL     1       9.305  32.113  60.235  1.00  0.00     0.169 HD
HETATM    7  O   UNL     1       7.227  30.225  58.742  1.00  0.00    -0.268 OA
BRANCH   5   8
HETATM    8  C   UNL     1       7.434  31.988  61.096  1.00  0.00     0.035 A 
HETATM    9  C   UNL     1       7.632  32.009  62.476  1.00  0.00     0.031 A 
HETATM   10  C   UNL     1       6.600  32.401  63.336  1.00  0.00     0.026 A 
HETATM   11  C   UNL     1       5.334  32.734  62.839  1.00  0.00     0.012 A 
HETATM   12  C   UNL     1       5.157  32.762  61.452  1.00  0.00     0.026 A 
HETATM   13  C   UNL     1       6.199  32.401  60.588  1.00  0.00     0.031 A 
BRANCH  11  14
HETATM   14  N   UNL     1       4.303  33.106  63.745  1.00  0.00    -0.260 NA
HETATM   15  H   UNL     1       3.459  33.288  63.202  1.00  0.00     0.134 HD
BRANCH  14  16
HETATM   16  C   UNL     1       4.454  34.167  64.677  1.00  0.00     0.012 A 
HETATM   17  C   UNL     1       4.530  35.492  64.243  1.00  0.00     0.024 A 
HETATM   18  C   UNL     1       4.622  36.535  65.170  1.00  0.00     0.002 A 
HETATM   19  C   UNL     1       4.624  36.256  66.536  1.00  0.00     0.000 A 
HETATM   20  C   UNL     1       4.529  34.938  66.978  1.00  0.00     0.002 A 
HETATM   21  C   UNL     1       4.438  33.898  66.053  1.00  0.00     0.024 A 
ENDBRANCH  14  16
ENDBRANCH  11  14
ENDBRANCH   5   8
ENDBRANCH   3   4
BRANCH   2  22
HETATM   22  N   UNL     1       8.806  29.521  56.297  1.00  0.00    -0.207 NA
HETATM   23  H   UNL     1       8.162  30.293  56.087  1.00  0.00     0.152 HD
BRANCH  22  24
HETATM   24  N   UNL     1       8.086  28.316  56.417  1.00  0.00    -0.279 N 
HETATM   25  C   UNL     1       7.535  27.786  55.265  1.00  0.00     0.323 C 
HETATM   26  O   UNL     1       7.810  28.153  54.131  1.00  0.00    -0.261 OA
HETATM   27  H   UNL     1       7.720  28.097  57.349  1.00  0.00     0.184 HD
BRANCH  25  28
HETATM   28  C   UNL     1       6.462  26.726  55.533  1.00  0.00     0.311 C 
HETATM   29  N   UNL     1       6.658  25.410  55.194  1.00  0.00    -0.348 N 
HETATM   30  H   UNL     1       5.852  24.847  55.434  1.00  0.00     0.163 HD
HETATM   31  O   UNL     1       5.412  27.075  56.069  1.00  0.00    -0.262 OA
BRANCH  29  32
HETATM   32  C   UNL     1       7.828  24.691  54.684  1.00  0.00     0.084 C 
HETATM   33  C   UNL     1       8.462  23.714  55.692  1.00  0.00     0.025 C 
HETATM   34  C   UNL     1       8.692  22.274  55.233  1.00  0.00     0.002 C 
HETATM   35  C   UNL     1       8.933  22.144  53.741  1.00  0.00     0.000 C 
HETATM   36  C   UNL     1       7.770  22.749  52.973  1.00  0.00     0.002 C 
HETATM   37  C   UNL     1       7.666  24.244  53.224  1.00  0.00     0.025 C 
ENDBRANCH  29  32
ENDBRANCH  25  28
ENDBRANCH  22  24
ENDBRANCH   2  22
TORSDOF 8
ENDMDL
MODEL 9
REMARK VINA RESULT:      -9.5      3.056      5.117
REMARK  8 active torsions:
REMARK  status: ('A' for Active; 'I' for Inactive)
REMARK    1  A    between atoms: C_2  and  N_3 
REMARK    2  A    between atoms: N_3  and  N_4 
REMARK       I    between atoms: N_4  and  C_5 
REMARK    3  A    between atoms: C_5  and  C_6 
REMARK       I    between atoms: C_6  and  N_7 
REMARK    4  A    between atoms: N_7  and  C_8 
REMARK    5  A    between atoms: C_16  and  C_17 
REMARK       I    between atoms: C_17  and  N_18 
REMARK    6  A    between atoms: N_18  and  C_19 
REMARK    7  A    between atoms: C_22  and  N_23 
REMARK    8  A    between atoms: N_23  and  C_24 
ROOT
HETATM    1  C   UNL     1       7.926  32.378  63.561  1.00  0.00     0.063 C 
HETATM    2  C   UNL     1       7.612  31.928  62.147  1.00  0.00     0.007 C 
HETATM    3  C   UNL     1       8.633  31.880  61.264  1.00  0.00     0.094 C 
ENDROOT
BRANCH   3   4
HETATM    4  C   UNL     1       8.544  31.572  59.807  1.00  0.00     0.247 C 
HETATM    5  N   UNL     1       7.921  30.359  59.579  1.00  0.00    -0.324 N 
HETATM    6  H   UNL     1       7.419  29.939  60.350  1.00  0.00     0.169 HD
HETATM    7  O   UNL     1       8.960  32.343  58.951  1.00  0.00    -0.268 OA
BRANCH   5   8
HETATM    8  C   UNL     1       7.796  29.706  58.335  1.00  0.00     0.035 A 
HETATM    9  C   UNL     1       8.872  29.137  57.655  1.00  0.00     0.031 A 
HETATM   10  C   UNL     1       8.679  28.500  56.424  1.00  0.00     0.026 A 
HETATM   11  C   UNL     1       7.415  28.461  55.823  1.00  0.00     0.012 A 
HETATM   12  C   UNL     1       6.331  28.987  56.533  1.00  0.00     0.026 A 
HETATM   13  C   UNL     1       6.517  29.596  57.781  1.00  0.00     0.031 A 
BRANCH  11  14
HETATM   14  N   UNL     1       7.260  27.825  54.560  1.00  0.00    -0.260 NA
HETATM   15  H   UNL     1       6.366  28.120  54.168  1.00  0.00     0.134 HD
BRANCH  14  16
HETATM   16  C   UNL     1       7.359  26.417  54.400  1.00  0.00     0.012 A 
HETATM   17  C   UNL     1       6.991  25.553  55.433  1.00  0.00     0.024 A 
HETATM   18  C   UNL     1       7.039  24.169  55.248  1.00  0.00     0.002 A 
HETATM   19  C   UNL     1       7.441  23.642  54.020  1.00  0.00     0.000 A 
HETATM   20  C   UNL     1       7.790  24.497  52.977  1.00  0.00     0.002 A 
HETATM   21  C   UNL     1       7.744  25.879  53.163  1.00  0.00     0.024 A 
ENDBRANCH  14  16
ENDBRANCH  11  14
ENDBRANCH   5   8
ENDBRANCH   3   4
BRANCH   2  22
HETATM   22  N   UNL     1       6.272  31.620  61.939  1.00  0.00    -0.207 NA
HETATM   23  H   UNL     1       6.009  31.654  60.947  1.00  0.00     0.152 HD
BRANCH  22  24
HETATM   24  N   UNL     1       5.270  32.226  62.722  1.00  0.00    -0.279 N 
HETATM   25  C   UNL     1       4.247  32.876  62.055  1.00  0.00     0.323 C 
HETATM   26  O   UNL     1       4.025  32.773  60.857  1.00  0.00    -0.261 OA
HETATM   27  H   UNL     1       5.524  32.455  63.688  1.00  0.00     0.184 HD
BRANCH  25  28
HETATM   28  C   UNL     1       3.441  33.824  62.949  1.00  0.00     0.311 C 
HETATM   29  N   UNL     1       3.878  35.099  63.212  1.00  0.00    -0.348 N 
HETATM   30  H   UNL     1       3.234  35.588  63.821  1.00  0.00     0.163 HD
HETATM   31  O   UNL     1       2.383  33.424  63.428  1.00  0.00    -0.262 OA
BRANCH  29  32
HETATM   32  C   UNL     1       4.999  35.882  62.686  1.00  0.00     0.084 C 
HETATM   33  C   UNL     1       4.713  36.578  61.342  1.00  0.00     0.025 C 
HETATM   34  C   UNL     1       4.994  38.077  61.247  1.00  0.00     0.002 C 
HETATM   35  C   UNL     1       6.112  38.544  62.162  1.00  0.00     0.000 C 
HETATM   36  C   UNL     1       5.795  38.169  63.600  1.00  0.00     0.002 C 
HETATM   37  C   UNL     1       5.749  36.661  63.776  1.00  0.00     0.025 C 
ENDBRANCH  29  32
ENDBRANCH  25  28
ENDBRANCH  22  24
ENDBRANCH   2  22
TORSDOF 8
ENDMDL
MODEL 10
REMARK VINA RESULT:      -9.4      5.531      8.927
REMARK  8 active torsions:
REMARK  status: ('A' for Active; 'I' for Inactive)
REMARK    1  A    between atoms: C_2  and  N_3 
REMARK    2  A    between atoms: N_3  and  N_4 
REMARK       I    between atoms: N_4  and  C_5 
REMARK    3  A    between atoms: C_5  and  C_6 
REMARK       I    between atoms: C_6  and  N_7 
REMARK    4  A    between atoms: N_7  and  C_8 
REMARK    5  A    between atoms: C_16  and  C_17 
REMARK       I    between atoms: C_17  and  N_18 
REMARK    6  A    between atoms: N_18  and  C_19 
REMARK    7  A    between atoms: C_22  and  N_23 
REMARK    8  A    between atoms: N_23  and  C_24 
ROOT
HETATM    1  C   UNL     1       3.000  31.738  53.828  1.00  0.00     0.063 C 
HETATM    2  C   UNL     1       3.427  30.284  53.759  1.00  0.00     0.007 C 
HETATM    3  C   UNL     1       4.081  29.772  54.824  1.00  0.00     0.094 C 
ENDROOT
BRANCH   3   4
HETATM    4  C   UNL     1       4.683  28.411  54.938  1.00  0.00     0.247 C 
HETATM    5  N   UNL     1       5.321  28.037  53.770  1.00  0.00    -0.324 N 
HETATM    6  H   UNL     1       5.502  28.757  53.084  1.00  0.00     0.169 HD
HETATM    7  O   UNL     1       4.620  27.756  55.970  1.00  0.00    -0.268 OA
BRANCH   5   8
HETATM    8  C   UNL     1       5.873  26.769  53.490  1.00  0.00     0.035 A 
HETATM    9  C   UNL     1       5.103  25.634  53.240  1.00  0.00     0.031 A 
HETATM   10  C   UNL     1       5.715  24.406  52.966  1.00  0.00     0.026 A 
HETATM   11  C   UNL     1       7.108  24.275  52.985  1.00  0.00     0.012 A 
HETATM   12  C   UNL     1       7.877  25.426  53.185  1.00  0.00     0.026 A 
HETATM   13  C   UNL     1       7.266  26.663  53.427  1.00  0.00     0.031 A 
BRANCH  11  14
HETATM   14  N   UNL     1       7.695  23.006  52.724  1.00  0.00    -0.260 NA
HETATM   15  H   UNL     1       7.114  22.526  52.037  1.00  0.00     0.134 HD
BRANCH  14  16
HETATM   16  C   UNL     1       7.996  22.079  53.757  1.00  0.00     0.012 A 
HETATM   17  C   UNL     1       7.666  22.358  55.085  1.00  0.00     0.024 A 
HETATM   18  C   UNL     1       7.915  21.417  56.088  1.00  0.00     0.002 A 
HETATM   19  C   UNL     1       8.483  20.184  55.764  1.00  0.00     0.000 A 
HETATM   20  C   UNL     1       8.797  19.890  54.439  1.00  0.00     0.002 A 
HETATM   21  C   UNL     1       8.549  20.830  53.438  1.00  0.00     0.024 A 
ENDBRANCH  14  16
ENDBRANCH  11  14
ENDBRANCH   5   8
ENDBRANCH   3   4
BRANCH   2  22
HETATM   22  N   UNL     1       3.083  29.654  52.568  1.00  0.00    -0.207 NA
HETATM   23  H   UNL     1       3.063  28.630  52.656  1.00  0.00     0.152 HD
BRANCH  22  24
HETATM   24  N   UNL     1       3.707  30.019  51.360  1.00  0.00    -0.279 N 
HETATM   25  C   UNL     1       4.332  29.019  50.637  1.00  0.00     0.323 C 
HETATM   26  O   UNL     1       4.193  27.822  50.846  1.00  0.00    -0.261 OA
HETATM   27  H   UNL     1       3.966  31.007  51.263  1.00  0.00     0.184 HD
BRANCH  25  28
HETATM   28  C   UNL     1       5.302  29.548  49.576  1.00  0.00     0.311 C 
HETATM   29  N   UNL     1       5.182  29.187  48.257  1.00  0.00    -0.348 N 
HETATM   30  H   UNL     1       5.904  29.618  47.693  1.00  0.00     0.163 HD
HETATM   31  O   UNL     1       6.197  30.314  49.927  1.00  0.00    -0.262 OA
BRANCH  29  32
HETATM   32  C   UNL     1       4.162  28.421  47.536  1.00  0.00     0.084 C 
HETATM   33  C   UNL     1       4.345  26.894  47.609  1.00  0.00     0.025 C 
HETATM   34  C   UNL     1       3.146  26.058  48.058  1.00  0.00     0.002 C 
HETATM   35  C   UNL     1       1.807  26.683  47.712  1.00  0.00     0.000 C 
HETATM   36  C   UNL     1       1.715  28.077  48.309  1.00  0.00     0.002 C 
HETATM   37  C   UNL     1       2.751  29.005  47.696  1.00  0.00     0.025 C 
ENDBRANCH  29  32
ENDBRANCH  25  28
ENDBRANCH  22  24
ENDBRANCH   2  22
TORSDOF 8
ENDMDL
