MODEL 1
REMARK VINA RESULT:      -8.5      0.000      0.000
REMARK  5 active torsions:
REMARK  status: ('A' for Active; 'I' for Inactive)
REMARK    1  A    between atoms: C_4  and  O_5 
REMARK    2  A    between atoms: C_6  and  C_7 
REMARK       I    between atoms: C_7  and  N_8 
REMARK    3  A    between atoms: N_8  and  C_9 
REMARK    4  A    between atoms: C_9  and  C_10 
REMARK    5  A    between atoms: C_10  and  C_11 
ROOT
HETATM    1  C   UNL     1       8.409  24.556  56.979  1.00  0.00     0.254 C 
HETATM    2  N   UNL     1       7.703  25.708  56.710  1.00  0.00    -0.356 N 
HETATM    3  O   UNL     1       9.091  24.423  57.991  1.00  0.00    -0.268 OA
HETATM    4  H   UNL     1       7.259  25.763  55.797  1.00  0.00     0.162 HD
ENDROOT
BRANCH   2   5
HETATM    5  C   UNL     1       7.846  26.891  57.536  1.00  0.00     0.136 C 
BRANCH   5   6
HETATM    6  C   UNL     1       7.531  28.237  56.818  1.00  0.00    -0.004 C 
HETATM    7  C   UNL     1       7.566  28.056  55.282  1.00  0.00     0.021 C 
HETATM    8  C   UNL     1       6.096  28.679  57.193  1.00  0.00     0.021 C 
BRANCH   6   9
HETATM    9  C   UNL     1       8.605  29.270  57.221  1.00  0.00    -0.046 A 
HETATM   10  C   UNL     1       8.343  30.206  58.238  1.00  0.00     0.027 A 
HETATM   11  C   UNL     1       9.316  31.132  58.589  1.00  0.00     0.116 A 
HETATM   12  N   UNL     1      10.530  31.199  58.010  1.00  0.00    -0.273 NA
HETATM   13  C   UNL     1      10.774  30.304  57.034  1.00  0.00     0.116 A 
HETATM   14  C   UNL     1       9.864  29.342  56.612  1.00  0.00     0.027 A 
ENDBRANCH   6   9
ENDBRANCH   5   6
ENDBRANCH   2   5
BRANCH   1  15
HETATM   15  C   UNL     1       8.334  23.455  55.964  1.00  0.00     0.065 A 
HETATM   16  C   UNL     1       8.307  22.086  56.269  1.00  0.00     0.081 A 
HETATM   17  C   UNL     1       8.218  21.129  55.250  1.00  0.00     0.044 A 
HETATM   18  C   UNL     1       8.163  21.524  53.907  1.00  0.00    -0.059 A 
HETATM   19  C   UNL     1       8.033  20.509  52.808  1.00  0.00     0.048 C 
HETATM   20  C   UNL     1       8.182  22.887  53.598  1.00  0.00     0.008 A 
HETATM   21  C   UNL     1       8.271  23.840  54.615  1.00  0.00     0.020 A 
BRANCH  16  22
HETATM   22  O   UNL     1       8.354  21.649  57.570  1.00  0.00    -0.360 OA
HETATM   23  H   UNL     1       8.031  20.732  57.602  1.00  0.00     0.217 HD
ENDBRANCH  16  22
ENDBRANCH   1  15
TORSDOF 5
ENDMDL
MODEL 2
REMARK VINA RESULT:      -8.5      1.385      1.828
REMARK  5 active torsions:
REMARK  status: ('A' for Active; 'I' for Inactive)
REMARK    1  A    between atoms: C_4  and  O_5 
REMARK    2  A    between atoms: C_6  and  C_7 
REMARK       I    between atoms: C_7  and  N_8 
REMARK    3  A    between atoms: N_8  and  C_9 
REMARK    4  A    between atoms: C_9  and  C_10 
REMARK    5  A    between atoms: C_10  and  C_11 
ROOT
HETATM    1  C   UNL     1       7.181  24.896  56.291  1.00  0.00     0.254 C 
HETATM    2  N   UNL     1       8.078  25.939  56.353  1.00  0.00    -0.356 N 
HETATM    3  O   UNL     1       6.186  24.839  57.010  1.00  0.00    -0.268 OA
HETATM    4  H   UNL     1       8.924  25.841  55.798  1.00  0.00     0.162 HD
ENDROOT
BRANCH   2   5
HETATM    5  C   UNL     1       7.979  26.960  57.377  1.00  0.00     0.136 C 
BRANCH   5   6
HETATM    6  C   UNL     1       7.562  28.370  56.864  1.00  0.00    -0.004 C 
HETATM    7  C   UNL     1       7.438  28.373  55.322  1.00  0.00     0.021 C 
HETATM    8  C   UNL     1       6.166  28.717  57.435  1.00  0.00     0.021 C 
BRANCH   6   9
HETATM    9  C   UNL     1       8.651  29.383  57.277  1.00  0.00    -0.046 A 
HETATM   10  C   UNL     1       8.381  30.355  58.258  1.00  0.00     0.027 A 
HETATM   11  C   UNL     1       9.368  31.262  58.618  1.00  0.00     0.116 A 
HETATM   12  N   UNL     1      10.602  31.280  58.080  1.00  0.00    -0.273 NA
HETATM   13  C   UNL     1      10.854  30.351  57.138  1.00  0.00     0.116 A 
HETATM   14  C   UNL     1       9.932  29.403  56.710  1.00  0.00     0.027 A 
ENDBRANCH   6   9
ENDBRANCH   5   6
ENDBRANCH   2   5
BRANCH   1  15
HETATM   15  C   UNL     1       7.475  23.797  55.315  1.00  0.00     0.065 A 
HETATM   16  C   UNL     1       7.664  23.980  53.937  1.00  0.00     0.081 A 
HETATM   17  C   UNL     1       7.953  22.890  53.105  1.00  0.00     0.044 A 
HETATM   18  C   UNL     1       8.050  21.597  53.635  1.00  0.00    -0.059 A 
HETATM   19  C   UNL     1       8.393  20.427  52.760  1.00  0.00     0.048 C 
HETATM   20  C   UNL     1       7.869  21.411  55.009  1.00  0.00     0.008 A 
HETATM   21  C   UNL     1       7.581  22.498  55.837  1.00  0.00     0.020 A 
BRANCH  16  22
HETATM   22  O   UNL     1       7.584  25.228  53.371  1.00  0.00    -0.360 OA
HETATM   23  H   UNL     1       7.450  25.883  54.078  1.00  0.00     0.217 HD
ENDBRANCH  16  22
ENDBRANCH   1  15
TORSDOF 5
ENDMDL
MODEL 3
REMARK VINA RESULT:      -8.0      1.755      2.230
REMARK  5 active torsions:
REMARK  status: ('A' for Active; 'I' for Inactive)
REMARK    1  A    between atoms: C_4  and  O_5 
REMARK    2  A    between atoms: C_6  and  C_7 
REMARK       I    between atoms: C_7  and  N_8 
REMARK    3  A    between atoms: N_8  and  C_9 
REMARK    4  A    between atoms: C_9  and  C_10 
REMARK    5  A    between atoms: C_10  and  C_11 
ROOT
HETATM    1  C   UNL     1       6.908  25.478  56.199  1.00  0.00     0.254 C 
HETATM    2  N   UNL     1       7.919  26.254  56.720  1.00  0.00    -0.356 N 
HETATM    3  O   UNL     1       5.721  25.764  56.335  1.00  0.00    -0.268 OA
HETATM    4  H   UNL     1       8.861  25.877  56.649  1.00  0.00     0.162 HD
ENDROOT
BRANCH   2   5
HETATM    5  C   UNL     1       7.635  27.377  57.591  1.00  0.00     0.136 C 
BRANCH   5   6
HETATM    6  C   UNL     1       8.126  28.759  57.065  1.00  0.00    -0.004 C 
HETATM    7  C   UNL     1       9.670  28.785  56.961  1.00  0.00     0.021 C 
HETATM    8  C   UNL     1       7.569  28.977  55.638  1.00  0.00     0.021 C 
BRANCH   6   9
HETATM    9  C   UNL     1       7.677  29.850  58.061  1.00  0.00    -0.046 A 
HETATM   10  C   UNL     1       6.550  30.644  57.783  1.00  0.00     0.027 A 
HETATM   11  C   UNL     1       6.158  31.624  58.685  1.00  0.00     0.116 A 
HETATM   12  N   UNL     1       6.799  31.876  59.842  1.00  0.00    -0.273 NA
HETATM   13  C   UNL     1       7.881  31.117  60.101  1.00  0.00     0.116 A 
HETATM   14  C   UNL     1       8.350  30.114  59.260  1.00  0.00     0.027 A 
ENDBRANCH   6   9
ENDBRANCH   5   6
ENDBRANCH   2   5
BRANCH   1  15
HETATM   15  C   UNL     1       7.309  24.235  55.464  1.00  0.00     0.065 A 
HETATM   16  C   UNL     1       7.927  23.121  56.052  1.00  0.00     0.081 A 
HETATM   17  C   UNL     1       8.249  21.994  55.284  1.00  0.00     0.044 A 
HETATM   18  C   UNL     1       7.967  21.964  53.912  1.00  0.00    -0.059 A 
HETATM   19  C   UNL     1       8.277  20.750  53.086  1.00  0.00     0.048 C 
HETATM   20  C   UNL     1       7.345  23.069  53.322  1.00  0.00     0.008 A 
HETATM   21  C   UNL     1       7.024  24.192  54.089  1.00  0.00     0.020 A 
BRANCH  16  22
HETATM   22  O   UNL     1       8.220  23.100  57.393  1.00  0.00    -0.360 OA
HETATM   23  H   UNL     1       9.102  22.708  57.513  1.00  0.00     0.217 HD
ENDBRANCH  16  22
ENDBRANCH   1  15
TORSDOF 5
ENDMDL
MODEL 4
REMARK VINA RESULT:      -8.0      2.448      7.846
REMARK  5 active torsions:
REMARK  status: ('A' for Active; 'I' for Inactive)
REMARK    1  A    between atoms: C_4  and  O_5 
REMARK    2  A    between atoms: C_6  and  C_7 
REMARK       I    between atoms: C_7  and  N_8 
REMARK    3  A    between atoms: N_8  and  C_9 
REMARK    4  A    between atoms: C_9  and  C_10 
REMARK    5  A    between atoms: C_10  and  C_11 
ROOT
HETATM    1  C   UNL     1       6.905  26.331  56.999  1.00  0.00     0.254 C 
HETATM    2  N   UNL     1       6.400  25.775  55.845  1.00  0.00    -0.356 N 
HETATM    3  O   UNL     1       7.593  25.693  57.791  1.00  0.00    -0.268 OA
HETATM    4  H   UNL     1       5.753  26.350  55.311  1.00  0.00     0.162 HD
ENDROOT
BRANCH   2   5
HETATM    5  C   UNL     1       6.528  24.357  55.571  1.00  0.00     0.136 C 
BRANCH   5   6
HETATM    6  C   UNL     1       7.014  24.006  54.134  1.00  0.00    -0.004 C 
HETATM    7  C   UNL     1       5.842  24.085  53.128  1.00  0.00     0.021 C 
HETATM    8  C   UNL     1       8.066  25.052  53.692  1.00  0.00     0.021 C 
BRANCH   6   9
HETATM    9  C   UNL     1       7.565  22.564  54.142  1.00  0.00    -0.046 A 
HETATM   10  C   UNL     1       7.888  21.921  52.933  1.00  0.00     0.027 A 
HETATM   11  C   UNL     1       8.380  20.623  52.954  1.00  0.00     0.116 A 
HETATM   12  N   UNL     1       8.578  19.914  54.082  1.00  0.00    -0.273 NA
HETATM   13  C   UNL     1       8.262  20.532  55.236  1.00  0.00     0.116 A 
HETATM   14  C   UNL     1       7.763  21.827  55.317  1.00  0.00     0.027 A 
ENDBRANCH   6   9
ENDBRANCH   5   6
ENDBRANCH   2   5
BRANCH   1  15
HETATM   15  C   UNL     1       6.561  27.763  57.276  1.00  0.00     0.065 A 
HETATM   16  C   UNL     1       5.297  28.337  57.074  1.00  0.00     0.081 A 
HETATM   17  C   UNL     1       5.067  29.685  57.381  1.00  0.00     0.044 A 
HETATM   18  C   UNL     1       6.099  30.485  57.886  1.00  0.00    -0.059 A 
HETATM   19  C   UNL     1       5.856  31.922  58.249  1.00  0.00     0.048 C 
HETATM   20  C   UNL     1       7.359  29.917  58.095  1.00  0.00     0.008 A 
HETATM   21  C   UNL     1       7.588  28.573  57.789  1.00  0.00     0.020 A 
BRANCH  16  22
HETATM   22  O   UNL     1       4.251  27.593  56.586  1.00  0.00    -0.360 OA
HETATM   23  H   UNL     1       4.188  27.737  55.626  1.00  0.00     0.217 HD
ENDBRANCH  16  22
ENDBRANCH   1  15
TORSDOF 5
ENDMDL
MODEL 5
REMARK VINA RESULT:      -7.8      5.455      8.418
REMARK  5 active torsions:
REMARK  status: ('A' for Active; 'I' for Inactive)
REMARK    1  A    between atoms: C_4  and  O_5 
REMARK    2  A    between atoms: C_6  and  C_7 
REMARK       I    between atoms: C_7  and  N_8 
REMARK    3  A    between atoms: N_8  and  C_9 
REMARK    4  A    between atoms: C_9  and  C_10 
REMARK    5  A    between atoms: C_10  and  C_11 
ROOT
HETATM    1  C   UNL     1       5.098  26.716  51.744  1.00  0.00     0.254 C 
HETATM    2  N   UNL     1       5.691  25.477  51.640  1.00  0.00    -0.356 N 
HETATM    3  O   UNL     1       4.731  27.183  52.819  1.00  0.00    -0.268 OA
HETATM    4  H   UNL     1       5.858  25.133  50.698  1.00  0.00     0.162 HD
ENDROOT
BRANCH   2   5
HETATM    5  C   UNL     1       5.780  24.585  52.780  1.00  0.00     0.136 C 
BRANCH   5   6
HETATM    6  C   UNL     1       7.176  24.532  53.467  1.00  0.00    -0.004 C 
HETATM    7  C   UNL     1       8.277  25.035  52.503  1.00  0.00     0.021 C 
HETATM    8  C   UNL     1       7.169  25.485  54.687  1.00  0.00     0.021 C 
BRANCH   6   9
HETATM    9  C   UNL     1       7.480  23.068  53.848  1.00  0.00    -0.046 A 
HETATM   10  C   UNL     1       7.461  22.666  55.196  1.00  0.00     0.027 A 
HETATM   11  C   UNL     1       7.738  21.346  55.525  1.00  0.00     0.116 A 
HETATM   12  N   UNL     1       8.033  20.394  54.619  1.00  0.00    -0.273 NA
HETATM   13  C   UNL     1       8.056  20.784  53.330  1.00  0.00     0.116 A 
HETATM   14  C   UNL     1       7.793  22.081  52.904  1.00  0.00     0.027 A 
ENDBRANCH   6   9
ENDBRANCH   5   6
ENDBRANCH   2   5
BRANCH   1  15
HETATM   15  C   UNL     1       4.891  27.483  50.474  1.00  0.00     0.065 A 
HETATM   16  C   UNL     1       4.269  26.974  49.323  1.00  0.00     0.081 A 
HETATM   17  C   UNL     1       4.104  27.776  48.186  1.00  0.00     0.044 A 
HETATM   18  C   UNL     1       4.565  29.099  48.176  1.00  0.00    -0.059 A 
HETATM   19  C   UNL     1       4.363  29.978  46.976  1.00  0.00     0.048 C 
HETATM   20  C   UNL     1       5.178  29.613  49.322  1.00  0.00     0.008 A 
HETATM   21  C   UNL     1       5.343  28.813  50.455  1.00  0.00     0.020 A 
BRANCH  16  22
HETATM   22  O   UNL     1       3.796  25.686  49.285  1.00  0.00    -0.360 OA
HETATM   23  H   UNL     1       4.083  25.273  48.451  1.00  0.00     0.217 HD
ENDBRANCH  16  22
ENDBRANCH   1  15
TORSDOF 5
ENDMDL
MODEL 6
REMARK VINA RESULT:      -7.8      1.830      3.283
REMARK  5 active torsions:
REMARK  status: ('A' for Active; 'I' for Inactive)
REMARK    1  A    between atoms: C_4  and  O_5 
REMARK    2  A    between atoms: C_6  and  C_7 
REMARK       I    between atoms: C_7  and  N_8 
REMARK    3  A    between atoms: N_8  and  C_9 
REMARK    4  A    between atoms: C_9  and  C_10 
REMARK    5  A    between atoms: C_10  and  C_11 
ROOT
HETATM    1  C   UNL     1       6.977  24.889  56.299  1.00  0.00     0.254 C 
HETATM    2  N   UNL     1       7.952  25.737  56.773  1.00  0.00    -0.356 N 
HETATM    3  O   UNL     1       5.781  25.077  56.508  1.00  0.00    -0.268 OA
HETATM    4  H   UNL     1       8.915  25.438  56.642  1.00  0.00     0.162 HD
ENDROOT
BRANCH   2   5
HETATM    5  C   UNL     1       7.632  26.824  57.678  1.00  0.00     0.136 C 
BRANCH   5   6
HETATM    6  C   UNL     1       7.772  28.250  57.068  1.00  0.00    -0.004 C 
HETATM    7  C   UNL     1       7.246  29.319  58.055  1.00  0.00     0.021 C 
HETATM    8  C   UNL     1       9.273  28.548  56.831  1.00  0.00     0.021 C 
BRANCH   6   9
HETATM    9  C   UNL     1       6.934  28.315  55.774  1.00  0.00    -0.046 A 
HETATM   10  C   UNL     1       7.548  28.140  54.520  1.00  0.00     0.027 A 
HETATM   11  C   UNL     1       6.783  28.203  53.363  1.00  0.00     0.116 A 
HETATM   12  N   UNL     1       5.455  28.425  53.355  1.00  0.00    -0.273 NA
HETATM   13  C   UNL     1       4.872  28.596  54.557  1.00  0.00     0.116 A 
HETATM   14  C   UNL     1       5.553  28.552  55.767  1.00  0.00     0.027 A 
ENDBRANCH   6   9
ENDBRANCH   5   6
ENDBRANCH   2   5
BRANCH   1  15
HETATM   15  C   UNL     1       7.431  23.690  55.522  1.00  0.00     0.065 A 
HETATM   16  C   UNL     1       8.040  22.557  56.081  1.00  0.00     0.081 A 
HETATM   17  C   UNL     1       8.415  21.475  55.273  1.00  0.00     0.044 A 
HETATM   18  C   UNL     1       8.195  21.511  53.890  1.00  0.00    -0.059 A 
HETATM   19  C   UNL     1       8.562  20.345  53.019  1.00  0.00     0.048 C 
HETATM   20  C   UNL     1       7.582  22.635  53.329  1.00  0.00     0.008 A 
HETATM   21  C   UNL     1       7.209  23.713  54.135  1.00  0.00     0.020 A 
BRANCH  16  22
HETATM   22  O   UNL     1       8.272  22.472  57.432  1.00  0.00    -0.360 OA
HETATM   23  H   UNL     1       7.432  22.274  57.880  1.00  0.00     0.217 HD
ENDBRANCH  16  22
ENDBRANCH   1  15
TORSDOF 5
ENDMDL
MODEL 7
REMARK VINA RESULT:      -7.7      4.065      8.037
REMARK  5 active torsions:
REMARK  status: ('A' for Active; 'I' for Inactive)
REMARK    1  A    between atoms: C_4  and  O_5 
REMARK    2  A    between atoms: C_6  and  C_7 
REMARK       I    between atoms: C_7  and  N_8 
REMARK    3  A    between atoms: N_8  and  C_9 
REMARK    4  A    between atoms: C_9  and  C_10 
REMARK    5  A    between atoms: C_10  and  C_11 
ROOT
HETATM    1  C   UNL     1       4.895  26.868  53.689  1.00  0.00     0.254 C 
HETATM    2  N   UNL     1       5.201  25.767  54.458  1.00  0.00    -0.356 N 
HETATM    3  O   UNL     1       4.936  26.846  52.462  1.00  0.00    -0.268 OA
HETATM    4  H   UNL     1       5.246  25.916  55.463  1.00  0.00     0.162 HD
ENDROOT
BRANCH   2   5
HETATM    5  C   UNL     1       5.736  24.557  53.865  1.00  0.00     0.136 C 
BRANCH   5   6
HETATM    6  C   UNL     1       7.282  24.400  53.970  1.00  0.00    -0.004 C 
HETATM    7  C   UNL     1       7.977  25.010  52.730  1.00  0.00     0.021 C 
HETATM    8  C   UNL     1       7.781  25.187  55.206  1.00  0.00     0.021 C 
BRANCH   6   9
HETATM    9  C   UNL     1       7.618  22.895  54.038  1.00  0.00    -0.046 A 
HETATM   10  C   UNL     1       7.645  22.229  55.276  1.00  0.00     0.027 A 
HETATM   11  C   UNL     1       7.952  20.875  55.323  1.00  0.00     0.116 A 
HETATM   12  N   UNL     1       8.234  20.133  54.236  1.00  0.00    -0.273 NA
HETATM   13  C   UNL     1       8.212  20.776  53.053  1.00  0.00     0.116 A 
HETATM   14  C   UNL     1       7.918  22.127  52.906  1.00  0.00     0.027 A 
ENDBRANCH   6   9
ENDBRANCH   5   6
ENDBRANCH   2   5
BRANCH   1  15
HETATM   15  C   UNL     1       4.526  28.127  54.414  1.00  0.00     0.065 A 
HETATM   16  C   UNL     1       4.302  28.219  55.796  1.00  0.00     0.081 A 
HETATM   17  C   UNL     1       3.978  29.448  56.386  1.00  0.00     0.044 A 
HETATM   18  C   UNL     1       3.862  30.604  55.604  1.00  0.00    -0.059 A 
HETATM   19  C   UNL     1       3.548  31.932  56.229  1.00  0.00     0.048 C 
HETATM   20  C   UNL     1       4.090  30.519  54.227  1.00  0.00     0.008 A 
HETATM   21  C   UNL     1       4.414  29.293  53.639  1.00  0.00     0.020 A 
BRANCH  16  22
HETATM   22  O   UNL     1       4.409  27.116  56.606  1.00  0.00    -0.360 OA
HETATM   23  H   UNL     1       3.828  27.239  57.377  1.00  0.00     0.217 HD
ENDBRANCH  16  22
ENDBRANCH   1  15
TORSDOF 5
ENDMDL
MODEL 8
REMARK VINA RESULT:      -7.7      2.766      7.738
REMARK  5 active torsions:
REMARK  status: ('A' for Active; 'I' for Inactive)
REMARK    1  A    between atoms: C_4  and  O_5 
REMARK    2  A    between atoms: C_6  and  C_7 
REMARK       I    between atoms: C_7  and  N_8 
REMARK    3  A    between atoms: N_8  and  C_9 
REMARK    4  A    between atoms: C_9  and  C_10 
REMARK    5  A    between atoms: C_10  and  C_11 
ROOT
HETATM    1  C   UNL     1       8.268  28.466  55.315  1.00  0.00     0.254 C 
HETATM    2  N   UNL     1       7.439  27.370  55.415  1.00  0.00    -0.356 N 
HETATM    3  O   UNL     1       8.804  28.792  54.260  1.00  0.00    -0.268 OA
HETATM    4  H   UNL     1       7.133  27.118  56.351  1.00  0.00     0.162 HD
ENDROOT
BRANCH   2   5
HETATM    5  C   UNL     1       7.270  26.448  54.309  1.00  0.00     0.136 C 
BRANCH   5   6
HETATM    6  C   UNL     1       6.228  25.316  54.548  1.00  0.00    -0.004 C 
HETATM    7  C   UNL     1       5.610  25.435  55.961  1.00  0.00     0.021 C 
HETATM    8  C   UNL     1       5.073  25.476  53.530  1.00  0.00     0.021 C 
BRANCH   6   9
HETATM    9  C   UNL     1       6.948  23.956  54.434  1.00  0.00    -0.046 A 
HETATM   10  C   UNL     1       7.270  23.427  53.171  1.00  0.00     0.027 A 
HETATM   11  C   UNL     1       7.915  22.200  53.082  1.00  0.00     0.116 A 
HETATM   12  N   UNL     1       8.265  21.459  54.150  1.00  0.00    -0.273 NA
HETATM   13  C   UNL     1       7.950  21.967  55.357  1.00  0.00     0.116 A 
HETATM   14  C   UNL     1       7.305  23.183  55.547  1.00  0.00     0.027 A 
ENDBRANCH   6   9
ENDBRANCH   5   6
ENDBRANCH   2   5
BRANCH   1  15
HETATM   15  C   UNL     1       8.518  29.250  56.568  1.00  0.00     0.065 A 
HETATM   16  C   UNL     1       9.752  29.814  56.926  1.00  0.00     0.081 A 
HETATM   17  C   UNL     1       9.884  30.548  58.112  1.00  0.00     0.044 A 
HETATM   18  C   UNL     1       8.787  30.724  58.966  1.00  0.00    -0.059 A 
HETATM   19  C   UNL     1       8.908  31.537  60.222  1.00  0.00     0.048 C 
HETATM   20  C   UNL     1       7.554  30.170  58.610  1.00  0.00     0.008 A 
HETATM   21  C   UNL     1       7.423  29.438  57.427  1.00  0.00     0.020 A 
BRANCH  16  22
HETATM   22  O   UNL     1      10.855  29.674  56.121  1.00  0.00    -0.360 OA
HETATM   23  H   UNL     1      10.592  29.844  55.200  1.00  0.00     0.217 HD
ENDBRANCH  16  22
ENDBRANCH   1  15
TORSDOF 5
ENDMDL
MODEL 9
REMARK VINA RESULT:      -7.6      3.136      8.375
REMARK  5 active torsions:
REMARK  status: ('A' for Active; 'I' for Inactive)
REMARK    1  A    between atoms: C_4  and  O_5 
REMARK    2  A    between atoms: C_6  and  C_7 
REMARK       I    between atoms: C_7  and  N_8 
REMARK    3  A    between atoms: N_8  and  C_9 
REMARK    4  A    between atoms: C_9  and  C_10 
REMARK    5  A    between atoms: C_10  and  C_11 
ROOT
HETATM    1  C   UNL     1       8.880  30.182  58.468  1.00  0.00     0.254 C 
HETATM    2  N   UNL     1       8.174  29.035  58.181  1.00  0.00    -0.356 N 
HETATM    3  O   UNL     1       9.768  30.610  57.735  1.00  0.00    -0.268 OA
HETATM    4  H   UNL     1       7.538  28.703  58.902  1.00  0.00     0.162 HD
ENDROOT
BRANCH   2   5
HETATM    5  C   UNL     1       8.540  28.182  57.068  1.00  0.00     0.136 C 
BRANCH   5   6
HETATM    6  C   UNL     1       7.345  27.495  56.343  1.00  0.00    -0.004 C 
HETATM    7  C   UNL     1       6.019  27.782  57.087  1.00  0.00     0.021 C 
HETATM    8  C   UNL     1       7.210  28.095  54.923  1.00  0.00     0.021 C 
BRANCH   6   9
HETATM    9  C   UNL     1       7.588  25.971  56.332  1.00  0.00    -0.046 A 
HETATM   10  C   UNL     1       6.973  25.161  55.361  1.00  0.00     0.027 A 
HETATM   11  C   UNL     1       7.199  23.791  55.364  1.00  0.00     0.116 A 
HETATM   12  N   UNL     1       7.987  23.163  56.256  1.00  0.00    -0.273 NA
HETATM   13  C   UNL     1       8.570  23.942  57.188  1.00  0.00     0.116 A 
HETATM   14  C   UNL     1       8.404  25.320  57.267  1.00  0.00     0.027 A 
ENDBRANCH   6   9
ENDBRANCH   5   6
ENDBRANCH   2   5
BRANCH   1  15
HETATM   15  C   UNL     1       8.541  30.893  59.743  1.00  0.00     0.065 A 
HETATM   16  C   UNL     1       7.265  31.372  60.077  1.00  0.00     0.081 A 
HETATM   17  C   UNL     1       7.040  32.010  61.304  1.00  0.00     0.044 A 
HETATM   18  C   UNL     1       8.089  32.189  62.215  1.00  0.00    -0.059 A 
HETATM   19  C   UNL     1       7.854  32.842  63.546  1.00  0.00     0.048 C 
HETATM   20  C   UNL     1       9.361  31.708  61.890  1.00  0.00     0.008 A 
HETATM   21  C   UNL     1       9.584  31.072  60.666  1.00  0.00     0.020 A 
BRANCH  16  22
HETATM   22  O   UNL     1       6.203  31.216  59.220  1.00  0.00    -0.360 OA
HETATM   23  H   UNL     1       5.615  31.987  59.310  1.00  0.00     0.217 HD
ENDBRANCH  16  22
ENDBRANCH   1  15
TORSDOF 5
ENDMDL
MODEL 10
REMARK VINA RESULT:      -7.6      4.694      8.428
REMARK  5 active torsions:
REMARK  status: ('A' for Active; 'I' for Inactive)
REMARK    1  A    between atoms: C_4  and  O_5 
REMARK    2  A    between atoms: C_6  and  C_7 
REMARK       I    between atoms: C_7  and  N_8 
REMARK    3  A    between atoms: N_8  and  C_9 
REMARK    4  A    between atoms: C_9  and  C_10 
REMARK    5  A    between atoms: C_10  and  C_11 
ROOT
HETATM    1  C   UNL     1       4.889  26.462  52.411  1.00  0.00     0.254 C 
HETATM    2  N   UNL     1       5.095  25.554  53.426  1.00  0.00    -0.356 N 
HETATM    3  O   UNL     1       5.114  26.196  51.234  1.00  0.00    -0.268 OA
HETATM    4  H   UNL     1       4.986  25.902  54.375  1.00  0.00     0.162 HD
ENDROOT
BRANCH   2   5
HETATM    5  C   UNL     1       5.734  24.276  53.177  1.00  0.00     0.136 C 
BRANCH   5   6
HETATM    6  C   UNL     1       7.249  24.217  53.536  1.00  0.00    -0.004 C 
HETATM    7  C   UNL     1       8.109  24.729  52.357  1.00  0.00     0.021 C 
HETATM    8  C   UNL     1       7.514  25.157  54.737  1.00  0.00     0.021 C 
BRANCH   6   9
HETATM    9  C   UNL     1       7.626  22.749  53.826  1.00  0.00    -0.046 A 
HETATM   10  C   UNL     1       7.675  22.276  55.150  1.00  0.00     0.027 A 
HETATM   11  C   UNL     1       8.019  20.953  55.396  1.00  0.00     0.116 A 
HETATM   12  N   UNL     1       8.318  20.064  54.431  1.00  0.00    -0.273 NA
HETATM   13  C   UNL     1       8.275  20.523  53.165  1.00  0.00     0.116 A 
HETATM   14  C   UNL     1       7.943  21.828  52.819  1.00  0.00     0.027 A 
ENDBRANCH   6   9
ENDBRANCH   5   6
ENDBRANCH   2   5
BRANCH   1  15
HETATM   15  C   UNL     1       4.393  27.822  52.801  1.00  0.00     0.065 A 
HETATM   16  C   UNL     1       3.605  28.650  51.987  1.00  0.00     0.081 A 
HETATM   17  C   UNL     1       3.173  29.901  52.447  1.00  0.00     0.044 A 
HETATM   18  C   UNL     1       3.528  30.350  53.726  1.00  0.00    -0.059 A 
HETATM   19  C   UNL     1       3.043  31.673  54.242  1.00  0.00     0.048 C 
HETATM   20  C   UNL     1       4.307  29.525  54.543  1.00  0.00     0.008 A 
HETATM   21  C   UNL     1       4.737  28.278  54.084  1.00  0.00     0.020 A 
BRANCH  16  22
HETATM   22  O   UNL     1       3.226  28.253  50.728  1.00  0.00    -0.360 OA
HETATM   23  H   UNL     1       3.865  28.606  50.085  1.00  0.00     0.217 HD
ENDBRANCH  16  22
ENDBRANCH   1  15
TORSDOF 5
ENDMDL
