MODEL 1
REMARK VINA RESULT:      -8.9      0.000      0.000
REMARK  3 active torsions:
REMARK  status: ('A' for Active; 'I' for Inactive)
REMARK    1  A    between atoms: C_2  and  N_3 
REMARK       I    between atoms: N_3  and  C_4 
REMARK    2  A    between atoms: C_4  and  C_5 
REMARK    3  A    between atoms: C_5  and  C_6 
ROOT
HETATM    1  C   UNL     1       7.636  25.497  55.646  1.00  0.00     0.286 C 
HETATM    2  N   UNL     1       7.839  24.399  54.595  1.00  0.00    -0.056 N 
HETATM    3  H   UNL     1       7.160  24.547  53.823  1.00  0.00     0.278 HD
HETATM    4  H   UNL     1       8.775  24.502  54.180  1.00  0.00     0.278 HD
HETATM    5  C   UNL     1       7.647  22.993  55.101  1.00  0.00     0.209 C 
HETATM    6  C   UNL     1       8.480  22.792  56.381  1.00  0.00     0.115 C 
HETATM    7  N   UNL     1       8.136  23.778  57.390  1.00  0.00    -0.353 N 
HETATM    8  C   UNL     1       7.950  25.104  57.100  1.00  0.00     0.249 C 
HETATM    9  O   UNL     1       8.002  25.941  57.996  1.00  0.00    -0.271 OA
HETATM   10  C   UNL     1       8.049  21.999  54.015  1.00  0.00     0.035 C 
HETATM   11  C   UNL     1       7.891  20.566  54.525  1.00  0.00     0.002 C 
HETATM   12  C   UNL     1       8.646  20.333  55.835  1.00  0.00     0.002 C 
HETATM   13  C   UNL     1       8.290  21.367  56.904  1.00  0.00     0.027 C 
HETATM   14  H   UNL     1       8.415  23.615  58.356  1.00  0.00     0.163 HD
ENDROOT
BRANCH   1  15
HETATM   15  C   UNL     1       6.273  26.186  55.528  1.00  0.00     0.146 C 
BRANCH  15  16
HETATM   16  C   UNL     1       6.344  27.412  54.671  1.00  0.00     0.224 C 
HETATM   17  N   UNL     1       6.993  28.559  54.965  1.00  0.00    -0.327 N 
HETATM   18  H   UNL     1       6.872  29.224  54.203  1.00  0.00     0.169 HD
HETATM   19  O   UNL     1       5.635  27.404  53.651  1.00  0.00    -0.273 OA
BRANCH  17  20
HETATM   20  C   UNL     1       7.765  29.055  56.033  1.00  0.00     0.034 A 
HETATM   21  C   UNL     1       9.139  29.289  56.029  1.00  0.00     0.032 A 
HETATM   22  C   UNL     1       9.788  29.756  57.182  1.00  0.00     0.044 A 
HETATM   23  C   UNL     1       9.065  29.997  58.340  1.00  0.00     0.116 A 
HETATM   24  C   UNL     1       7.697  29.787  58.367  1.00  0.00     0.044 A 
HETATM   25  F   UNL     1       9.693  30.438  59.435  1.00  0.00    -0.206 F 
HETATM   26  C   UNL     1       7.052  29.321  57.218  1.00  0.00     0.032 A 
ENDBRANCH  17  20
ENDBRANCH  15  16
ENDBRANCH   1  15
TORSDOF 3
ENDMDL
MODEL 2
REMARK VINA RESULT:      -8.8      2.999      7.170
REMARK  3 active torsions:
REMARK  status: ('A' for Active; 'I' for Inactive)
REMARK    1  A    between atoms: C_2  and  N_3 
REMARK       I    between atoms: N_3  and  C_4 
REMARK    2  A    between atoms: C_4  and  C_5 
REMARK    3  A    between atoms: C_5  and  C_6 
ROOT
HETATM    1  C   UNL     1       6.949  27.792  55.532  1.00  0.00     0.286 C 
HETATM    2  N   UNL     1       8.268  28.521  55.253  1.00  0.00    -0.056 N 
HETATM    3  H   UNL     1       8.886  27.895  54.703  1.00  0.00     0.278 HD
HETATM    4  H   UNL     1       8.079  29.339  54.657  1.00  0.00     0.278 HD
HETATM    5  C   UNL     1       9.033  28.942  56.482  1.00  0.00     0.209 C 
HETATM    6  C   UNL     1       8.090  29.701  57.436  1.00  0.00     0.115 C 
HETATM    7  N   UNL     1       6.930  28.896  57.774  1.00  0.00    -0.353 N 
HETATM    8  C   UNL     1       6.240  28.160  56.848  1.00  0.00     0.249 C 
HETATM    9  O   UNL     1       5.098  27.783  57.090  1.00  0.00    -0.271 OA
HETATM   10  C   UNL     1      10.221  29.806  56.073  1.00  0.00     0.035 C 
HETATM   11  C   UNL     1      10.990  30.269  57.312  1.00  0.00     0.002 C 
HETATM   12  C   UNL     1      10.083  30.969  58.325  1.00  0.00     0.002 C 
HETATM   13  C   UNL     1       8.858  30.130  58.688  1.00  0.00     0.027 C 
HETATM   14  H   UNL     1       6.362  29.160  58.578  1.00  0.00     0.163 HD
ENDROOT
BRANCH   1  15
HETATM   15  C   UNL     1       7.062  26.274  55.357  1.00  0.00     0.146 C 
BRANCH  15  16
HETATM   16  C   UNL     1       6.797  25.859  53.943  1.00  0.00     0.224 C 
HETATM   17  N   UNL     1       6.936  24.617  53.432  1.00  0.00    -0.327 N 
HETATM   18  H   UNL     1       6.689  24.624  52.445  1.00  0.00     0.169 HD
HETATM   19  O   UNL     1       6.544  26.777  53.145  1.00  0.00    -0.273 OA
BRANCH  17  20
HETATM   20  C   UNL     1       7.332  23.352  53.909  1.00  0.00     0.034 A 
HETATM   21  C   UNL     1       7.299  22.911  55.230  1.00  0.00     0.032 A 
HETATM   22  C   UNL     1       7.758  21.630  55.569  1.00  0.00     0.044 A 
HETATM   23  C   UNL     1       8.246  20.782  54.587  1.00  0.00     0.116 A 
HETATM   24  C   UNL     1       8.277  21.188  53.263  1.00  0.00     0.044 A 
HETATM   25  F   UNL     1       8.686  19.564  54.919  1.00  0.00    -0.206 F 
HETATM   26  C   UNL     1       7.819  22.466  52.928  1.00  0.00     0.032 A 
ENDBRANCH  17  20
ENDBRANCH  15  16
ENDBRANCH   1  15
TORSDOF 3
ENDMDL
MODEL 3
REMARK VINA RESULT:      -8.6      3.468      4.734
REMARK  3 active torsions:
REMARK  status: ('A' for Active; 'I' for Inactive)
REMARK    1  A    between atoms: C_2  and  N_3 
REMARK       I    between atoms: N_3  and  C_4 
REMARK    2  A    between atoms: C_4  and  C_5 
REMARK    3  A    between atoms: C_5  and  C_6 
ROOT
HETATM    1  C   UNL     1       8.054  25.493  55.925  1.00  0.00     0.286 C 
HETATM    2  N   UNL     1       8.144  24.650  54.648  1.00  0.00    -0.056 N 
HETATM    3  H   UNL     1       7.518  25.062  53.931  1.00  0.00     0.278 HD
HETATM    4  H   UNL     1       9.100  24.715  54.271  1.00  0.00     0.278 HD
HETATM    5  C   UNL     1       7.751  23.204  54.813  1.00  0.00     0.209 C 
HETATM    6  C   UNL     1       8.507  22.602  56.013  1.00  0.00     0.115 C 
HETATM    7  N   UNL     1       8.262  23.368  57.223  1.00  0.00    -0.353 N 
HETATM    8  C   UNL     1       8.264  24.737  57.249  1.00  0.00     0.249 C 
HETATM    9  O   UNL     1       8.396  25.331  58.314  1.00  0.00    -0.271 OA
HETATM   10  C   UNL     1       8.054  22.441  53.528  1.00  0.00     0.035 C 
HETATM   11  C   UNL     1       7.690  20.965  53.690  1.00  0.00     0.002 C 
HETATM   12  C   UNL     1       8.362  20.336  54.911  1.00  0.00     0.002 C 
HETATM   13  C   UNL     1       8.111  21.135  56.191  1.00  0.00     0.027 C 
HETATM   14  H   UNL     1       8.485  22.951  58.126  1.00  0.00     0.163 HD
ENDROOT
BRANCH   1  15
HETATM   15  C   UNL     1       6.800  26.371  55.968  1.00  0.00     0.146 C 
BRANCH  15  16
HETATM   16  C   UNL     1       5.555  25.570  55.737  1.00  0.00     0.224 C 
HETATM   17  N   UNL     1       4.827  25.531  54.601  1.00  0.00    -0.327 N 
HETATM   18  H   UNL     1       4.034  24.906  54.726  1.00  0.00     0.169 HD
HETATM   19  O   UNL     1       5.092  24.987  56.731  1.00  0.00    -0.273 OA
BRANCH  17  20
HETATM   20  C   UNL     1       4.884  26.127  53.326  1.00  0.00     0.034 A 
HETATM   21  C   UNL     1       4.655  27.467  53.022  1.00  0.00     0.032 A 
HETATM   22  C   UNL     1       4.714  27.920  51.696  1.00  0.00     0.044 A 
HETATM   23  C   UNL     1       5.008  27.036  50.669  1.00  0.00     0.116 A 
HETATM   24  C   UNL     1       5.255  25.702  50.944  1.00  0.00     0.044 A 
HETATM   25  F   UNL     1       5.058  27.476  49.407  1.00  0.00    -0.206 F 
HETATM   26  C   UNL     1       5.195  25.252  52.267  1.00  0.00     0.032 A 
ENDBRANCH  17  20
ENDBRANCH  15  16
ENDBRANCH   1  15
TORSDOF 3
ENDMDL
MODEL 4
REMARK VINA RESULT:      -8.5      3.736      7.664
REMARK  3 active torsions:
REMARK  status: ('A' for Active; 'I' for Inactive)
REMARK    1  A    between atoms: C_2  and  N_3 
REMARK       I    between atoms: N_3  and  C_4 
REMARK    2  A    between atoms: C_4  and  C_5 
REMARK    3  A    between atoms: C_5  and  C_6 
ROOT
HETATM    1  C   UNL     1       5.899  26.060  54.677  1.00  0.00     0.286 C 
HETATM    2  N   UNL     1       5.930  27.553  55.024  1.00  0.00    -0.056 N 
HETATM    3  H   UNL     1       6.044  27.655  56.050  1.00  0.00     0.278 HD
HETATM    4  H   UNL     1       6.764  27.978  54.596  1.00  0.00     0.278 HD
HETATM    5  C   UNL     1       4.696  28.322  54.628  1.00  0.00     0.209 C 
HETATM    6  C   UNL     1       4.362  28.031  53.153  1.00  0.00     0.115 C 
HETATM    7  N   UNL     1       4.204  26.606  52.923  1.00  0.00    -0.353 N 
HETATM    8  C   UNL     1       5.051  25.669  53.453  1.00  0.00     0.249 C 
HETATM    9  O   UNL     1       5.097  24.541  52.973  1.00  0.00    -0.271 OA
HETATM   10  C   UNL     1       4.924  29.812  54.862  1.00  0.00     0.035 C 
HETATM   11  C   UNL     1       3.692  30.610  54.436  1.00  0.00     0.002 C 
HETATM   12  C   UNL     1       3.277  30.304  52.996  1.00  0.00     0.002 C 
HETATM   13  C   UNL     1       3.108  28.806  52.743  1.00  0.00     0.027 C 
HETATM   14  H   UNL     1       3.742  26.290  52.071  1.00  0.00     0.163 HD
ENDROOT
BRANCH   1  15
HETATM   15  C   UNL     1       5.583  25.176  55.888  1.00  0.00     0.146 C 
BRANCH  15  16
HETATM   16  C   UNL     1       6.817  24.845  56.668  1.00  0.00     0.224 C 
HETATM   17  N   UNL     1       7.682  23.840  56.412  1.00  0.00    -0.327 N 
HETATM   18  H   UNL     1       8.428  23.848  57.104  1.00  0.00     0.169 HD
HETATM   19  O   UNL     1       6.984  25.486  57.720  1.00  0.00    -0.273 OA
BRANCH  17  20
HETATM   20  C   UNL     1       7.802  22.810  55.460  1.00  0.00     0.034 A 
HETATM   21  C   UNL     1       7.708  21.440  55.698  1.00  0.00     0.032 A 
HETATM   22  C   UNL     1       7.883  20.519  54.655  1.00  0.00     0.044 A 
HETATM   23  C   UNL     1       8.145  20.964  53.368  1.00  0.00     0.116 A 
HETATM   24  C   UNL     1       8.229  22.319  53.100  1.00  0.00     0.044 A 
HETATM   25  F   UNL     1       8.314  20.079  52.380  1.00  0.00    -0.206 F 
HETATM   26  C   UNL     1       8.056  23.236  54.142  1.00  0.00     0.032 A 
ENDBRANCH  17  20
ENDBRANCH  15  16
ENDBRANCH   1  15
TORSDOF 3
ENDMDL
MODEL 5
REMARK VINA RESULT:      -8.3      3.036      7.421
REMARK  3 active torsions:
REMARK  status: ('A' for Active; 'I' for Inactive)
REMARK    1  A    between atoms: C_2  and  N_3 
REMARK       I    between atoms: N_3  and  C_4 
REMARK    2  A    between atoms: C_4  and  C_5 
REMARK    3  A    between atoms: C_5  and  C_6 
ROOT
HETATM    1  C   UNL     1       5.991  26.950  54.894  1.00  0.00     0.286 C 
HETATM    2  N   UNL     1       7.174  27.355  55.780  1.00  0.00    -0.056 N 
HETATM    3  H   UNL     1       7.552  26.506  56.242  1.00  0.00     0.278 HD
HETATM    4  H   UNL     1       7.929  27.721  55.183  1.00  0.00     0.278 HD
HETATM    5  C   UNL     1       6.844  28.349  56.864  1.00  0.00     0.209 C 
HETATM    6  C   UNL     1       6.087  29.542  56.250  1.00  0.00     0.115 C 
HETATM    7  N   UNL     1       4.897  29.100  55.546  1.00  0.00    -0.353 N 
HETATM    8  C   UNL     1       4.884  28.005  54.723  1.00  0.00     0.249 C 
HETATM    9  O   UNL     1       3.986  27.868  53.899  1.00  0.00    -0.271 OA
HETATM   10  C   UNL     1       8.129  28.801  57.551  1.00  0.00     0.035 C 
HETATM   11  C   UNL     1       7.814  29.835  58.633  1.00  0.00     0.002 C 
HETATM   12  C   UNL     1       7.001  31.011  58.089  1.00  0.00     0.002 C 
HETATM   13  C   UNL     1       5.745  30.556  57.344  1.00  0.00     0.027 C 
HETATM   14  H   UNL     1       4.177  29.783  55.313  1.00  0.00     0.163 HD
ENDROOT
BRANCH   1  15
HETATM   15  C   UNL     1       5.414  25.581  55.265  1.00  0.00     0.146 C 
BRANCH  15  16
HETATM   16  C   UNL     1       6.215  24.915  56.341  1.00  0.00     0.224 C 
HETATM   17  N   UNL     1       7.020  23.841  56.193  1.00  0.00    -0.327 N 
HETATM   18  H   UNL     1       7.438  23.602  57.090  1.00  0.00     0.169 HD
HETATM   19  O   UNL     1       6.018  25.324  57.498  1.00  0.00    -0.273 OA
BRANCH  17  20
HETATM   20  C   UNL     1       7.408  22.989  55.142  1.00  0.00     0.034 A 
HETATM   21  C   UNL     1       7.528  23.327  53.795  1.00  0.00     0.032 A 
HETATM   22  C   UNL     1       7.894  22.363  52.845  1.00  0.00     0.044 A 
HETATM   23  C   UNL     1       8.150  21.059  53.238  1.00  0.00     0.116 A 
HETATM   24  C   UNL     1       8.053  20.697  54.571  1.00  0.00     0.044 A 
HETATM   25  F   UNL     1       8.494  20.145  52.324  1.00  0.00    -0.206 F 
HETATM   26  C   UNL     1       7.686  21.660  55.517  1.00  0.00     0.032 A 
ENDBRANCH  17  20
ENDBRANCH  15  16
ENDBRANCH   1  15
TORSDOF 3
ENDMDL
MODEL 6
REMARK VINA RESULT:      -8.1      4.507      5.925
REMARK  3 active torsions:
REMARK  status: ('A' for Active; 'I' for Inactive)
REMARK    1  A    between atoms: C_2  and  N_3 
REMARK       I    between atoms: N_3  and  C_4 
REMARK    2  A    between atoms: C_4  and  C_5 
REMARK    3  A    between atoms: C_5  and  C_6 
ROOT
HETATM    1  C   UNL     1       7.418  25.977  53.860  1.00  0.00     0.286 C 
HETATM    2  N   UNL     1       7.817  24.770  53.004  1.00  0.00    -0.056 N 
HETATM    3  H   UNL     1       7.334  24.836  52.088  1.00  0.00     0.278 HD
HETATM    4  H   UNL     1       8.825  24.819  52.805  1.00  0.00     0.278 HD
HETATM    5  C   UNL     1       7.471  23.429  53.599  1.00  0.00     0.209 C 
HETATM    6  C   UNL     1       7.988  23.363  55.048  1.00  0.00     0.115 C 
HETATM    7  N   UNL     1       7.457  24.457  55.843  1.00  0.00    -0.353 N 
HETATM    8  C   UNL     1       7.383  25.744  55.381  1.00  0.00     0.249 C 
HETATM    9  O   UNL     1       7.260  26.674  56.172  1.00  0.00    -0.271 OA
HETATM   10  C   UNL     1       8.075  22.319  52.744  1.00  0.00     0.035 C 
HETATM   11  C   UNL     1       7.761  20.952  53.352  1.00  0.00     0.002 C 
HETATM   12  C   UNL     1       8.193  20.858  54.816  1.00  0.00     0.002 C 
HETATM   13  C   UNL     1       7.639  22.006  55.661  1.00  0.00     0.027 C 
HETATM   14  H   UNL     1       7.506  24.399  56.859  1.00  0.00     0.163 HD
ENDROOT
BRANCH   1  15
HETATM   15  C   UNL     1       6.139  26.660  53.365  1.00  0.00     0.146 C 
BRANCH  15  16
HETATM   16  C   UNL     1       5.217  25.688  52.695  1.00  0.00     0.224 C 
HETATM   17  N   UNL     1       4.775  25.750  51.421  1.00  0.00    -0.327 N 
HETATM   18  H   UNL     1       4.160  24.961  51.235  1.00  0.00     0.169 HD
HETATM   19  O   UNL     1       4.723  24.814  53.428  1.00  0.00    -0.273 OA
BRANCH  17  20
HETATM   20  C   UNL     1       4.940  26.612  50.320  1.00  0.00     0.034 A 
HETATM   21  C   UNL     1       5.435  27.914  50.348  1.00  0.00     0.032 A 
HETATM   22  C   UNL     1       5.515  28.675  49.173  1.00  0.00     0.044 A 
HETATM   23  C   UNL     1       5.107  28.135  47.963  1.00  0.00     0.116 A 
HETATM   24  C   UNL     1       4.624  26.839  47.903  1.00  0.00     0.044 A 
HETATM   25  F   UNL     1       5.182  28.869  46.848  1.00  0.00    -0.206 F 
HETATM   26  C   UNL     1       4.545  26.082  49.076  1.00  0.00     0.032 A 
ENDBRANCH  17  20
ENDBRANCH  15  16
ENDBRANCH   1  15
TORSDOF 3
ENDMDL
MODEL 7
REMARK VINA RESULT:      -8.1      3.111      7.051
REMARK  3 active torsions:
REMARK  status: ('A' for Active; 'I' for Inactive)
REMARK    1  A    between atoms: C_2  and  N_3 
REMARK       I    between atoms: N_3  and  C_4 
REMARK    2  A    between atoms: C_4  and  C_5 
REMARK    3  A    between atoms: C_5  and  C_6 
ROOT
HETATM    1  C   UNL     1       5.490  25.939  56.646  1.00  0.00     0.286 C 
HETATM    2  N   UNL     1       4.559  27.157  56.602  1.00  0.00    -0.056 N 
HETATM    3  H   UNL     1       3.935  27.071  55.778  1.00  0.00     0.278 HD
HETATM    4  H   UNL     1       3.949  27.141  57.431  1.00  0.00     0.278 HD
HETATM    5  C   UNL     1       5.260  28.487  56.500  1.00  0.00     0.209 C 
HETATM    6  C   UNL     1       6.352  28.575  57.583  1.00  0.00     0.115 C 
HETATM    7  N   UNL     1       7.284  27.466  57.477  1.00  0.00    -0.353 N 
HETATM    8  C   UNL     1       6.882  26.176  57.256  1.00  0.00     0.249 C 
HETATM    9  O   UNL     1       7.640  25.245  57.511  1.00  0.00    -0.271 OA
HETATM   10  C   UNL     1       4.242  29.614  56.645  1.00  0.00     0.035 C 
HETATM   11  C   UNL     1       4.943  30.972  56.576  1.00  0.00     0.002 C 
HETATM   12  C   UNL     1       6.084  31.085  57.588  1.00  0.00     0.002 C 
HETATM   13  C   UNL     1       7.071  29.922  57.485  1.00  0.00     0.027 C 
HETATM   14  H   UNL     1       8.183  27.529  57.954  1.00  0.00     0.163 HD
ENDROOT
BRANCH   1  15
HETATM   15  C   UNL     1       5.578  25.212  55.301  1.00  0.00     0.146 C 
BRANCH  15  16
HETATM   16  C   UNL     1       6.746  25.684  54.492  1.00  0.00     0.224 C 
HETATM   17  N   UNL     1       7.731  24.915  53.980  1.00  0.00    -0.327 N 
HETATM   18  H   UNL     1       8.394  25.500  53.477  1.00  0.00     0.169 HD
HETATM   19  O   UNL     1       6.876  26.916  54.393  1.00  0.00    -0.273 OA
BRANCH  17  20
HETATM   20  C   UNL     1       8.065  23.547  53.976  1.00  0.00     0.034 A 
HETATM   21  C   UNL     1       7.785  22.624  52.969  1.00  0.00     0.032 A 
HETATM   22  C   UNL     1       8.149  21.278  53.112  1.00  0.00     0.044 A 
HETATM   23  C   UNL     1       8.800  20.849  54.259  1.00  0.00     0.116 A 
HETATM   24  C   UNL     1       9.103  21.746  55.268  1.00  0.00     0.044 A 
HETATM   25  F   UNL     1       9.139  19.562  54.389  1.00  0.00    -0.206 F 
HETATM   26  C   UNL     1       8.739  23.089  55.124  1.00  0.00     0.032 A 
ENDBRANCH  17  20
ENDBRANCH  15  16
ENDBRANCH   1  15
TORSDOF 3
ENDMDL
MODEL 8
REMARK VINA RESULT:      -8.0      2.056      2.627
REMARK  3 active torsions:
REMARK  status: ('A' for Active; 'I' for Inactive)
REMARK    1  A    between atoms: C_2  and  N_3 
REMARK       I    between atoms: N_3  and  C_4 
REMARK    2  A    between atoms: C_4  and  C_5 
REMARK    3  A    between atoms: C_5  and  C_6 
ROOT
HETATM    1  C   UNL     1       7.864  25.501  55.639  1.00  0.00     0.286 C 
HETATM    2  N   UNL     1       8.065  24.491  54.503  1.00  0.00    -0.056 N 
HETATM    3  H   UNL     1       7.469  24.768  53.701  1.00  0.00     0.278 HD
HETATM    4  H   UNL     1       9.039  24.547  54.174  1.00  0.00     0.278 HD
HETATM    5  C   UNL     1       7.719  23.066  54.852  1.00  0.00     0.209 C 
HETATM    6  C   UNL     1       8.422  22.676  56.166  1.00  0.00     0.115 C 
HETATM    7  N   UNL     1       8.074  23.592  57.238  1.00  0.00    -0.353 N 
HETATM    8  C   UNL     1       8.021  24.950  57.067  1.00  0.00     0.249 C 
HETATM    9  O   UNL     1       8.065  25.693  58.042  1.00  0.00    -0.271 OA
HETATM   10  C   UNL     1       8.129  22.145  53.708  1.00  0.00     0.035 C 
HETATM   11  C   UNL     1       7.813  20.691  54.060  1.00  0.00     0.002 C 
HETATM   12  C   UNL     1       8.433  20.272  55.394  1.00  0.00     0.002 C 
HETATM   13  C   UNL     1       8.073  21.231  56.530  1.00  0.00     0.027 C 
HETATM   14  H   UNL     1       8.257  23.317  58.202  1.00  0.00     0.163 HD
ENDROOT
BRANCH   1  15
HETATM   15  C   UNL     1       6.577  26.316  55.486  1.00  0.00     0.146 C 
BRANCH  15  16
HETATM   16  C   UNL     1       6.771  27.494  54.583  1.00  0.00     0.224 C 
HETATM   17  N   UNL     1       6.267  28.734  54.761  1.00  0.00    -0.327 N 
HETATM   18  H   UNL     1       6.557  29.334  53.993  1.00  0.00     0.169 HD
HETATM   19  O   UNL     1       7.351  27.265  53.508  1.00  0.00    -0.273 OA
BRANCH  17  20
HETATM   20  C   UNL     1       5.457  29.383  55.714  1.00  0.00     0.034 A 
HETATM   21  C   UNL     1       4.068  29.492  55.691  1.00  0.00     0.032 A 
HETATM   22  C   UNL     1       3.389  30.199  56.694  1.00  0.00     0.044 A 
HETATM   23  C   UNL     1       4.096  30.795  57.727  1.00  0.00     0.116 A 
HETATM   24  C   UNL     1       5.475  30.691  57.783  1.00  0.00     0.044 A 
HETATM   25  F   UNL     1       3.441  31.472  58.676  1.00  0.00    -0.206 F 
HETATM   26  C   UNL     1       6.150  29.986  56.781  1.00  0.00     0.032 A 
ENDBRANCH  17  20
ENDBRANCH  15  16
ENDBRANCH   1  15
TORSDOF 3
ENDMDL
MODEL 9
REMARK VINA RESULT:      -8.0      3.241      4.997
REMARK  3 active torsions:
REMARK  status: ('A' for Active; 'I' for Inactive)
REMARK    1  A    between atoms: C_2  and  N_3 
REMARK       I    between atoms: N_3  and  C_4 
REMARK    2  A    between atoms: C_4  and  C_5 
REMARK    3  A    between atoms: C_5  and  C_6 
ROOT
HETATM    1  C   UNL     1       6.196  28.122  57.065  1.00  0.00     0.286 C 
HETATM    2  N   UNL     1       7.356  27.244  57.549  1.00  0.00    -0.056 N 
HETATM    3  H   UNL     1       8.224  27.813  57.555  1.00  0.00     0.278 HD
HETATM    4  H   UNL     1       7.183  26.970  58.526  1.00  0.00     0.278 HD
HETATM    5  C   UNL     1       7.622  26.023  56.707  1.00  0.00     0.209 C 
HETATM    6  C   UNL     1       6.306  25.253  56.492  1.00  0.00     0.115 C 
HETATM    7  N   UNL     1       5.292  26.106  55.897  1.00  0.00    -0.353 N 
HETATM    8  C   UNL     1       5.073  27.395  56.304  1.00  0.00     0.249 C 
HETATM    9  O   UNL     1       4.015  27.953  56.031  1.00  0.00    -0.271 OA
HETATM   10  C   UNL     1       8.671  25.150  57.390  1.00  0.00     0.035 C 
HETATM   11  C   UNL     1       8.929  23.890  56.563  1.00  0.00     0.002 C 
HETATM   12  C   UNL     1       7.640  23.122  56.263  1.00  0.00     0.002 C 
HETATM   13  C   UNL     1       6.566  24.012  55.636  1.00  0.00     0.027 C 
HETATM   14  H   UNL     1       4.472  25.675  55.472  1.00  0.00     0.163 HD
ENDROOT
BRANCH   1  15
HETATM   15  C   UNL     1       6.669  29.370  56.315  1.00  0.00     0.146 C 
BRANCH  15  16
HETATM   16  C   UNL     1       7.958  29.127  55.592  1.00  0.00     0.224 C 
HETATM   17  N   UNL     1       8.111  28.469  54.423  1.00  0.00    -0.327 N 
HETATM   18  H   UNL     1       9.095  28.452  54.167  1.00  0.00     0.169 HD
HETATM   19  O   UNL     1       8.991  29.460  56.197  1.00  0.00    -0.273 OA
BRANCH  17  20
HETATM   20  C   UNL     1       7.273  27.812  53.501  1.00  0.00     0.034 A 
HETATM   21  C   UNL     1       6.123  28.327  52.906  1.00  0.00     0.032 A 
HETATM   22  C   UNL     1       5.362  27.546  52.025  1.00  0.00     0.044 A 
HETATM   23  C   UNL     1       5.751  26.248  51.729  1.00  0.00     0.116 A 
HETATM   24  C   UNL     1       6.898  25.716  52.294  1.00  0.00     0.044 A 
HETATM   25  F   UNL     1       5.017  25.509  50.891  1.00  0.00    -0.206 F 
HETATM   26  C   UNL     1       7.655  26.497  53.173  1.00  0.00     0.032 A 
ENDBRANCH  17  20
ENDBRANCH  15  16
ENDBRANCH   1  15
TORSDOF 3
ENDMDL
MODEL 10
REMARK VINA RESULT:      -7.9      3.272      7.267
REMARK  3 active torsions:
REMARK  status: ('A' for Active; 'I' for Inactive)
REMARK    1  A    between atoms: C_2  and  N_3 
REMARK       I    between atoms: N_3  and  C_4 
REMARK    2  A    between atoms: C_4  and  C_5 
REMARK    3  A    between atoms: C_5  and  C_6 
ROOT
HETATM    1  C   UNL     1       6.464  26.640  56.117  1.00  0.00     0.286 C 
HETATM    2  N   UNL     1       5.238  27.370  55.558  1.00  0.00    -0.056 N 
HETATM    3  H   UNL     1       5.223  27.257  54.527  1.00  0.00     0.278 HD
HETATM    4  H   UNL     1       4.386  26.914  55.912  1.00  0.00     0.278 HD
HETATM    5  C   UNL     1       5.192  28.848  55.849  1.00  0.00     0.209 C 
HETATM    6  C   UNL     1       5.423  29.081  57.354  1.00  0.00     0.115 C 
HETATM    7  N   UNL     1       6.675  28.485  57.789  1.00  0.00    -0.353 N 
HETATM    8  C   UNL     1       7.082  27.239  57.393  1.00  0.00     0.249 C 
HETATM    9  O   UNL     1       7.944  26.644  58.031  1.00  0.00    -0.271 OA
HETATM   10  C   UNL     1       3.850  29.417  55.399  1.00  0.00     0.035 C 
HETATM   11  C   UNL     1       3.776  30.911  55.718  1.00  0.00     0.002 C 
HETATM   12  C   UNL     1       4.066  31.203  57.190  1.00  0.00     0.002 C 
HETATM   13  C   UNL     1       5.382  30.579  57.659  1.00  0.00     0.027 C 
HETATM   14  H   UNL     1       7.074  28.771  58.682  1.00  0.00     0.163 HD
ENDROOT
BRANCH   1  15
HETATM   15  C   UNL     1       7.527  26.363  55.051  1.00  0.00     0.146 C 
BRANCH  15  16
HETATM   16  C   UNL     1       6.919  25.847  53.783  1.00  0.00     0.224 C 
HETATM   17  N   UNL     1       6.862  24.557  53.388  1.00  0.00    -0.327 N 
HETATM   18  H   UNL     1       6.395  24.498  52.486  1.00  0.00     0.169 HD
HETATM   19  O   UNL     1       6.544  26.709  52.970  1.00  0.00    -0.273 OA
BRANCH  17  20
HETATM   20  C   UNL     1       7.282  23.312  53.893  1.00  0.00     0.034 A 
HETATM   21  C   UNL     1       7.253  22.899  55.224  1.00  0.00     0.032 A 
HETATM   22  C   UNL     1       7.736  21.636  55.592  1.00  0.00     0.044 A 
HETATM   23  C   UNL     1       8.246  20.776  54.630  1.00  0.00     0.116 A 
HETATM   24  C   UNL     1       8.274  21.154  53.299  1.00  0.00     0.044 A 
HETATM   25  F   UNL     1       8.709  19.575  54.991  1.00  0.00    -0.206 F 
HETATM   26  C   UNL     1       7.792  22.415  52.934  1.00  0.00     0.032 A 
ENDBRANCH  17  20
ENDBRANCH  15  16
ENDBRANCH   1  15
TORSDOF 3
ENDMDL
