MODEL 1
REMARK VINA RESULT:      -8.7      0.000      0.000
REMARK  3 active torsions:
REMARK  status: ('A' for Active; 'I' for Inactive)
REMARK       I    between atoms: C_2  and  N_3 
REMARK    1  A    between atoms: N_3  and  N_4 
REMARK       I    between atoms: N_4  and  C_5 
REMARK    2  A    between atoms: C_5  and  C_6 
REMARK    3  A    between atoms: C_11  and  C_12 
ROOT
HETATM    1  C   UNL     1       7.118  25.612  56.732  1.00  0.00     0.115 A 
HETATM    2  N   UNL     1       7.659  24.525  57.390  1.00  0.00    -0.350 N 
HETATM    3  H   UNL     1       7.906  24.512  58.370  1.00  0.00     0.166 HD
HETATM    4  C   UNL     1       7.876  23.473  56.535  1.00  0.00     0.044 A 
HETATM    5  C   UNL     1       7.476  23.890  55.269  1.00  0.00     0.005 A 
HETATM    6  C   UNL     1       7.008  25.240  55.395  1.00  0.00     0.019 A 
HETATM    7  C   UNL     1       8.402  22.201  56.787  1.00  0.00     0.032 A 
HETATM    8  C   UNL     1       8.514  21.321  55.706  1.00  0.00     0.021 A 
HETATM    9  C   UNL     1       8.113  21.710  54.431  1.00  0.00     0.012 A 
HETATM   10 BR   UNL     1       8.278  20.492  52.991  1.00  0.00    -0.051 Br
HETATM   11  C   UNL     1       7.591  22.984  54.193  1.00  0.00     0.033 A 
ENDROOT
BRANCH   1  12
HETATM   12  C   UNL     1       6.821  26.872  57.383  1.00  0.00     0.287 C 
HETATM   13  N   UNL     1       5.522  27.319  57.195  1.00  0.00    -0.262 N 
HETATM   14  H   UNL     1       4.966  27.003  56.403  1.00  0.00     0.190 HD
HETATM   15  O   UNL     1       7.620  27.529  58.051  1.00  0.00    -0.264 OA
BRANCH  13  16
HETATM   16  N   UNL     1       5.196  28.602  57.669  1.00  0.00    -0.268 N 
HETATM   17  C   UNL     1       4.849  29.549  56.730  1.00  0.00     0.232 C 
HETATM   18  C   UNL     1       4.671  30.937  57.280  1.00  0.00     0.119 C 
HETATM   19  O   UNL     1       4.679  29.274  55.544  1.00  0.00    -0.272 OA
HETATM   20  H   UNL     1       5.586  28.848  58.580  1.00  0.00     0.190 HD
ENDBRANCH  13  16
ENDBRANCH   1  12
BRANCH   6  21
HETATM   21  C   UNL     1       6.497  26.098  54.336  1.00  0.00    -0.023 A 
HETATM   22  C   UNL     1       7.234  27.204  53.892  1.00  0.00     0.012 A 
HETATM   23  C   UNL     1       6.717  28.039  52.899  1.00  0.00     0.001 A 
HETATM   24  C   UNL     1       5.461  27.780  52.351  1.00  0.00     0.000 A 
HETATM   25  C   UNL     1       4.720  26.686  52.793  1.00  0.00     0.001 A 
HETATM   26  C   UNL     1       5.236  25.847  53.783  1.00  0.00     0.012 A 
ENDBRANCH   6  21
TORSDOF 3
ENDMDL
MODEL 2
REMARK VINA RESULT:      -8.7      3.156      5.702
REMARK  3 active torsions:
REMARK  status: ('A' for Active; 'I' for Inactive)
REMARK       I    between atoms: C_2  and  N_3 
REMARK    1  A    between atoms: N_3  and  N_4 
REMARK       I    between atoms: N_4  and  C_5 
REMARK    2  A    between atoms: C_5  and  C_6 
REMARK    3  A    between atoms: C_11  and  C_12 
ROOT
HETATM    1  C   UNL     1       6.430  28.052  52.713  1.00  0.00     0.115 A 
HETATM    2  N   UNL     1       5.784  28.961  51.897  1.00  0.00    -0.350 N 
HETATM    3  H   UNL     1       5.764  29.959  52.054  1.00  0.00     0.166 HD
HETATM    4  C   UNL     1       5.119  28.336  50.873  1.00  0.00     0.044 A 
HETATM    5  C   UNL     1       5.325  26.968  51.029  1.00  0.00     0.005 A 
HETATM    6  C   UNL     1       6.144  26.793  52.194  1.00  0.00     0.019 A 
HETATM    7  C   UNL     1       4.349  28.877  49.836  1.00  0.00     0.032 A 
HETATM    8  C   UNL     1       3.778  27.985  48.921  1.00  0.00     0.021 A 
HETATM    9  C   UNL     1       3.976  26.614  49.050  1.00  0.00     0.012 A 
HETATM   10 BR   UNL     1       3.187  25.438  47.794  1.00  0.00    -0.051 Br
HETATM   11  C   UNL     1       4.745  26.087  50.092  1.00  0.00     0.033 A 
ENDROOT
BRANCH   1  12
HETATM   12  C   UNL     1       7.180  28.433  53.894  1.00  0.00     0.287 C 
HETATM   13  N   UNL     1       6.435  29.111  54.848  1.00  0.00    -0.262 N 
HETATM   14  H   UNL     1       5.581  29.605  54.596  1.00  0.00     0.190 HD
HETATM   15  O   UNL     1       8.375  28.203  54.078  1.00  0.00    -0.264 OA
BRANCH  13  16
HETATM   16  N   UNL     1       7.119  29.644  55.954  1.00  0.00    -0.268 N 
HETATM   17  C   UNL     1       6.916  29.033  57.173  1.00  0.00     0.232 C 
HETATM   18  C   UNL     1       7.541  29.744  58.340  1.00  0.00     0.119 C 
HETATM   19  O   UNL     1       6.292  27.980  57.289  1.00  0.00    -0.272 OA
HETATM   20  H   UNL     1       7.399  30.622  55.871  1.00  0.00     0.190 HD
ENDBRANCH  13  16
ENDBRANCH   1  12
BRANCH   6  21
HETATM   21  C   UNL     1       6.614  25.538  52.760  1.00  0.00    -0.023 A 
HETATM   22  C   UNL     1       6.113  25.070  53.982  1.00  0.00     0.012 A 
HETATM   23  C   UNL     1       6.598  23.881  54.531  1.00  0.00     0.001 A 
HETATM   24  C   UNL     1       7.589  23.157  53.867  1.00  0.00     0.000 A 
HETATM   25  C   UNL     1       8.096  23.619  52.655  1.00  0.00     0.001 A 
HETATM   26  C   UNL     1       7.610  24.806  52.102  1.00  0.00     0.012 A 
ENDBRANCH   6  21
TORSDOF 3
ENDMDL
MODEL 3
REMARK VINA RESULT:      -8.7      1.547      1.854
REMARK  3 active torsions:
REMARK  status: ('A' for Active; 'I' for Inactive)
REMARK       I    between atoms: C_2  and  N_3 
REMARK    1  A    between atoms: N_3  and  N_4 
REMARK       I    between atoms: N_4  and  C_5 
REMARK    2  A    between atoms: C_5  and  C_6 
REMARK    3  A    between atoms: C_11  and  C_12 
ROOT
HETATM    1  C   UNL     1       6.961  25.771  56.601  1.00  0.00     0.115 A 
HETATM    2  N   UNL     1       7.533  24.725  57.300  1.00  0.00    -0.350 N 
HETATM    3  H   UNL     1       7.770  24.754  58.282  1.00  0.00     0.166 HD
HETATM    4  C   UNL     1       7.794  23.655  56.482  1.00  0.00     0.044 A 
HETATM    5  C   UNL     1       7.392  24.016  55.199  1.00  0.00     0.005 A 
HETATM    6  C   UNL     1       6.876  25.352  55.276  1.00  0.00     0.019 A 
HETATM    7  C   UNL     1       8.361  22.410  56.781  1.00  0.00     0.032 A 
HETATM    8  C   UNL     1       8.514  21.500  55.730  1.00  0.00     0.021 A 
HETATM    9  C   UNL     1       8.113  21.833  54.440  1.00  0.00     0.012 A 
HETATM   10 BR   UNL     1       8.335  20.575  53.043  1.00  0.00    -0.051 Br
HETATM   11  C   UNL     1       7.549  23.080  54.155  1.00  0.00     0.033 A 
ENDROOT
BRANCH   1  12
HETATM   12  C   UNL     1       6.614  27.041  57.208  1.00  0.00     0.287 C 
HETATM   13  N   UNL     1       7.690  27.724  57.755  1.00  0.00    -0.262 N 
HETATM   14  H   UNL     1       8.540  27.235  58.029  1.00  0.00     0.190 HD
HETATM   15  O   UNL     1       5.478  27.512  57.263  1.00  0.00    -0.264 OA
BRANCH  13  16
HETATM   16  N   UNL     1       7.419  28.890  58.492  1.00  0.00    -0.268 N 
HETATM   17  C   UNL     1       8.426  29.827  58.578  1.00  0.00     0.232 C 
HETATM   18  C   UNL     1       8.136  30.971  59.509  1.00  0.00     0.119 C 
HETATM   19  O   UNL     1       9.466  29.742  57.929  1.00  0.00    -0.272 OA
HETATM   20  H   UNL     1       6.684  28.807  59.196  1.00  0.00     0.190 HD
ENDBRANCH  13  16
ENDBRANCH   1  12
BRANCH   6  21
HETATM   21  C   UNL     1       6.347  26.157  54.186  1.00  0.00    -0.023 A 
HETATM   22  C   UNL     1       7.002  27.323  53.772  1.00  0.00     0.012 A 
HETATM   23  C   UNL     1       6.465  28.105  52.746  1.00  0.00     0.001 A 
HETATM   24  C   UNL     1       5.269  27.730  52.135  1.00  0.00     0.000 A 
HETATM   25  C   UNL     1       4.608  26.574  52.545  1.00  0.00     0.001 A 
HETATM   26  C   UNL     1       5.145  25.789  53.568  1.00  0.00     0.012 A 
ENDBRANCH   6  21
TORSDOF 3
ENDMDL
MODEL 4
REMARK VINA RESULT:      -8.6      3.386      4.803
REMARK  3 active torsions:
REMARK  status: ('A' for Active; 'I' for Inactive)
REMARK       I    between atoms: C_2  and  N_3 
REMARK    1  A    between atoms: N_3  and  N_4 
REMARK       I    between atoms: N_4  and  C_5 
REMARK    2  A    between atoms: C_5  and  C_6 
REMARK    3  A    between atoms: C_11  and  C_12 
ROOT
HETATM    1  C   UNL     1       6.768  25.406  52.803  1.00  0.00     0.115 A 
HETATM    2  N   UNL     1       7.105  24.215  52.190  1.00  0.00    -0.350 N 
HETATM    3  H   UNL     1       7.048  24.046  51.195  1.00  0.00     0.166 HD
HETATM    4  C   UNL     1       7.474  23.262  53.106  1.00  0.00     0.044 A 
HETATM    5  C   UNL     1       7.362  23.845  54.365  1.00  0.00     0.005 A 
HETATM    6  C   UNL     1       6.909  25.192  54.171  1.00  0.00     0.019 A 
HETATM    7  C   UNL     1       7.884  21.938  52.913  1.00  0.00     0.032 A 
HETATM    8  C   UNL     1       8.200  21.186  54.049  1.00  0.00     0.021 A 
HETATM    9  C   UNL     1       8.105  21.747  55.320  1.00  0.00     0.012 A 
HETATM   10 BR   UNL     1       8.540  20.700  56.835  1.00  0.00    -0.051 Br
HETATM   11  C   UNL     1       7.692  23.071  55.498  1.00  0.00     0.033 A 
ENDROOT
BRANCH   1  12
HETATM   12  C   UNL     1       6.305  26.574  52.078  1.00  0.00     0.287 C 
HETATM   13  N   UNL     1       5.870  26.308  50.788  1.00  0.00    -0.262 N 
HETATM   14  H   UNL     1       6.183  25.478  50.287  1.00  0.00     0.190 HD
HETATM   15  O   UNL     1       6.285  27.721  52.523  1.00  0.00    -0.264 OA
BRANCH  13  16
HETATM   16  N   UNL     1       5.545  27.403  49.968  1.00  0.00    -0.268 N 
HETATM   17  C   UNL     1       4.570  27.206  49.015  1.00  0.00     0.232 C 
HETATM   18  C   UNL     1       4.383  28.358  48.066  1.00  0.00     0.119 C 
HETATM   19  O   UNL     1       3.895  26.180  48.960  1.00  0.00    -0.272 OA
HETATM   20  H   UNL     1       6.272  28.113  49.872  1.00  0.00     0.190 HD
ENDBRANCH  13  16
ENDBRANCH   1  12
BRANCH   6  21
HETATM   21  C   UNL     1       6.638  26.188  55.197  1.00  0.00    -0.023 A 
HETATM   22  C   UNL     1       7.661  27.011  55.684  1.00  0.00     0.012 A 
HETATM   23  C   UNL     1       7.395  27.940  56.694  1.00  0.00     0.001 A 
HETATM   24  C   UNL     1       6.110  28.045  57.226  1.00  0.00     0.000 A 
HETATM   25  C   UNL     1       5.089  27.225  56.750  1.00  0.00     0.001 A 
HETATM   26  C   UNL     1       5.352  26.299  55.739  1.00  0.00     0.012 A 
ENDBRANCH   6  21
TORSDOF 3
ENDMDL
MODEL 5
REMARK VINA RESULT:      -8.0      4.028      5.694
REMARK  3 active torsions:
REMARK  status: ('A' for Active; 'I' for Inactive)
REMARK       I    between atoms: C_2  and  N_3 
REMARK    1  A    between atoms: N_3  and  N_4 
REMARK       I    between atoms: N_4  and  C_5 
REMARK    2  A    between atoms: C_5  and  C_6 
REMARK    3  A    between atoms: C_11  and  C_12 
ROOT
HETATM    1  C   UNL     1       3.978  27.833  52.556  1.00  0.00     0.115 A 
HETATM    2  N   UNL     1       4.195  27.376  53.842  1.00  0.00    -0.350 N 
HETATM    3  H   UNL     1       3.791  27.786  54.672  1.00  0.00     0.166 HD
HETATM    4  C   UNL     1       5.078  26.326  53.862  1.00  0.00     0.044 A 
HETATM    5  C   UNL     1       5.464  26.094  52.545  1.00  0.00     0.005 A 
HETATM    6  C   UNL     1       4.776  27.050  51.727  1.00  0.00     0.019 A 
HETATM    7  C   UNL     1       5.566  25.579  54.941  1.00  0.00     0.032 A 
HETATM    8  C   UNL     1       6.474  24.553  54.661  1.00  0.00     0.021 A 
HETATM    9  C   UNL     1       6.869  24.295  53.351  1.00  0.00     0.012 A 
HETATM   10 BR   UNL     1       8.100  22.898  53.009  1.00  0.00    -0.051 Br
HETATM   11  C   UNL     1       6.376  25.049  52.283  1.00  0.00     0.033 A 
ENDROOT
BRANCH   1  12
HETATM   12  C   UNL     1       3.118  28.958  52.244  1.00  0.00     0.287 C 
HETATM   13  N   UNL     1       2.069  28.653  51.390  1.00  0.00    -0.262 N 
HETATM   14  H   UNL     1       2.112  27.847  50.769  1.00  0.00     0.190 HD
HETATM   15  O   UNL     1       3.268  30.102  52.670  1.00  0.00    -0.264 OA
BRANCH  13  16
HETATM   16  N   UNL     1       1.277  29.716  50.921  1.00  0.00    -0.268 N 
HETATM   17  C   UNL     1       1.403  30.054  49.592  1.00  0.00     0.232 C 
HETATM   18  C   UNL     1       0.657  31.296  49.190  1.00  0.00     0.119 C 
HETATM   19  O   UNL     1       2.056  29.381  48.796  1.00  0.00    -0.272 OA
HETATM   20  H   UNL     1       0.967  30.381  51.631  1.00  0.00     0.190 HD
ENDBRANCH  13  16
ENDBRANCH   1  12
BRANCH   6  21
HETATM   21  C   UNL     1       4.867  27.203  50.282  1.00  0.00    -0.023 A 
HETATM   22  C   UNL     1       4.389  26.204  49.425  1.00  0.00     0.012 A 
HETATM   23  C   UNL     1       4.514  26.347  48.040  1.00  0.00     0.001 A 
HETATM   24  C   UNL     1       5.122  27.484  47.508  1.00  0.00     0.000 A 
HETATM   25  C   UNL     1       5.605  28.479  48.355  1.00  0.00     0.001 A 
HETATM   26  C   UNL     1       5.478  28.339  49.739  1.00  0.00     0.012 A 
ENDBRANCH   6  21
TORSDOF 3
ENDMDL
MODEL 6
REMARK VINA RESULT:      -7.9      3.237      5.058
REMARK  3 active torsions:
REMARK  status: ('A' for Active; 'I' for Inactive)
REMARK       I    between atoms: C_2  and  N_3 
REMARK    1  A    between atoms: N_3  and  N_4 
REMARK       I    between atoms: N_4  and  C_5 
REMARK    2  A    between atoms: C_5  and  C_6 
REMARK    3  A    between atoms: C_11  and  C_12 
ROOT
HETATM    1  C   UNL     1       5.902  29.300  57.336  1.00  0.00     0.115 A 
HETATM    2  N   UNL     1       4.958  28.299  57.216  1.00  0.00    -0.350 N 
HETATM    3  H   UNL     1       3.958  28.446  57.253  1.00  0.00     0.166 HD
HETATM    4  C   UNL     1       5.544  27.064  57.094  1.00  0.00     0.044 A 
HETATM    5  C   UNL     1       6.920  27.261  57.151  1.00  0.00     0.005 A 
HETATM    6  C   UNL     1       7.142  28.669  57.312  1.00  0.00     0.019 A 
HETATM    7  C   UNL     1       4.960  25.800  56.950  1.00  0.00     0.032 A 
HETATM    8  C   UNL     1       5.817  24.699  56.852  1.00  0.00     0.021 A 
HETATM    9  C   UNL     1       7.198  24.869  56.898  1.00  0.00     0.012 A 
HETATM   10 BR   UNL     1       8.327  23.356  56.761  1.00  0.00    -0.051 Br
HETATM   11  C   UNL     1       7.767  26.137  57.043  1.00  0.00     0.033 A 
ENDROOT
BRANCH   1  12
HETATM   12  C   UNL     1       5.563  30.699  57.516  1.00  0.00     0.287 C 
HETATM   13  N   UNL     1       5.382  31.076  58.838  1.00  0.00    -0.262 N 
HETATM   14  H   UNL     1       5.148  30.391  59.554  1.00  0.00     0.190 HD
HETATM   15  O   UNL     1       5.431  31.517  56.606  1.00  0.00    -0.264 OA
BRANCH  13  16
HETATM   16  N   UNL     1       4.909  32.376  59.089  1.00  0.00    -0.268 N 
HETATM   17  C   UNL     1       3.600  32.499  59.501  1.00  0.00     0.232 C 
HETATM   18  C   UNL     1       3.105  33.915  59.595  1.00  0.00     0.119 C 
HETATM   19  O   UNL     1       2.902  31.528  59.788  1.00  0.00    -0.272 OA
HETATM   20  H   UNL     1       5.406  33.127  58.609  1.00  0.00     0.190 HD
ENDBRANCH  13  16
ENDBRANCH   1  12
BRANCH   6  21
HETATM   21  C   UNL     1       8.421  29.352  57.429  1.00  0.00    -0.023 A 
HETATM   22  C   UNL     1       8.749  30.066  58.589  1.00  0.00     0.012 A 
HETATM   23  C   UNL     1       9.966  30.746  58.676  1.00  0.00     0.001 A 
HETATM   24  C   UNL     1      10.857  30.723  57.603  1.00  0.00     0.000 A 
HETATM   25  C   UNL     1      10.536  30.020  56.444  1.00  0.00     0.001 A 
HETATM   26  C   UNL     1       9.321  29.336  56.357  1.00  0.00     0.012 A 
ENDBRANCH   6  21
TORSDOF 3
ENDMDL
MODEL 7
REMARK VINA RESULT:      -7.9      1.740      2.628
REMARK  3 active torsions:
REMARK  status: ('A' for Active; 'I' for Inactive)
REMARK       I    between atoms: C_2  and  N_3 
REMARK    1  A    between atoms: N_3  and  N_4 
REMARK       I    between atoms: N_4  and  C_5 
REMARK    2  A    between atoms: C_5  and  C_6 
REMARK    3  A    between atoms: C_11  and  C_12 
ROOT
HETATM    1  C   UNL     1       5.762  26.836  54.768  1.00  0.00     0.115 A 
HETATM    2  N   UNL     1       6.267  26.083  55.810  1.00  0.00    -0.350 N 
HETATM    3  H   UNL     1       6.318  26.394  56.770  1.00  0.00     0.166 HD
HETATM    4  C   UNL     1       6.747  24.873  55.373  1.00  0.00     0.044 A 
HETATM    5  C   UNL     1       6.562  24.838  53.994  1.00  0.00     0.005 A 
HETATM    6  C   UNL     1       5.951  26.079  53.615  1.00  0.00     0.019 A 
HETATM    7  C   UNL     1       7.334  23.824  56.091  1.00  0.00     0.032 A 
HETATM    8  C   UNL     1       7.738  22.695  55.371  1.00  0.00     0.021 A 
HETATM    9  C   UNL     1       7.558  22.631  53.993  1.00  0.00     0.012 A 
HETATM   10 BR   UNL     1       8.117  21.086  53.052  1.00  0.00    -0.051 Br
HETATM   11  C   UNL     1       6.972  23.686  53.288  1.00  0.00     0.033 A 
ENDROOT
BRANCH   1  12
HETATM   12  C   UNL     1       5.224  28.171  54.936  1.00  0.00     0.287 C 
HETATM   13  N   UNL     1       6.179  29.141  55.204  1.00  0.00    -0.262 N 
HETATM   14  H   UNL     1       7.084  28.894  55.600  1.00  0.00     0.190 HD
HETATM   15  O   UNL     1       4.032  28.468  54.863  1.00  0.00    -0.264 OA
BRANCH  13  16
HETATM   16  N   UNL     1       5.727  30.433  55.526  1.00  0.00    -0.268 N 
HETATM   17  C   UNL     1       5.816  30.818  56.846  1.00  0.00     0.232 C 
HETATM   18  C   UNL     1       5.170  32.140  57.155  1.00  0.00     0.119 C 
HETATM   19  O   UNL     1       6.395  30.144  57.695  1.00  0.00    -0.272 OA
HETATM   20  H   UNL     1       5.047  30.836  54.881  1.00  0.00     0.190 HD
ENDBRANCH  13  16
ENDBRANCH   1  12
BRANCH   6  21
HETATM   21  C   UNL     1       5.575  26.503  52.275  1.00  0.00    -0.023 A 
HETATM   22  C   UNL     1       5.010  25.598  51.368  1.00  0.00     0.012 A 
HETATM   23  C   UNL     1       4.685  26.010  50.073  1.00  0.00     0.001 A 
HETATM   24  C   UNL     1       4.930  27.324  49.676  1.00  0.00     0.000 A 
HETATM   25  C   UNL     1       5.498  28.229  50.571  1.00  0.00     0.001 A 
HETATM   26  C   UNL     1       5.820  27.820  51.867  1.00  0.00     0.012 A 
ENDBRANCH   6  21
TORSDOF 3
ENDMDL
MODEL 8
REMARK VINA RESULT:      -7.8      7.048     10.890
REMARK  3 active torsions:
REMARK  status: ('A' for Active; 'I' for Inactive)
REMARK       I    between atoms: C_2  and  N_3 
REMARK    1  A    between atoms: N_3  and  N_4 
REMARK       I    between atoms: N_4  and  C_5 
REMARK    2  A    between atoms: C_5  and  C_6 
REMARK    3  A    between atoms: C_11  and  C_12 
ROOT
HETATM    1  C   UNL     1       7.334  32.715  61.806  1.00  0.00     0.115 A 
HETATM    2  N   UNL     1       7.879  32.737  63.076  1.00  0.00    -0.350 N 
HETATM    3  H   UNL     1       8.783  32.355  63.318  1.00  0.00     0.166 HD
HETATM    4  C   UNL     1       7.015  33.291  63.987  1.00  0.00     0.044 A 
HETATM    5  C   UNL     1       5.858  33.634  63.293  1.00  0.00     0.005 A 
HETATM    6  C   UNL     1       6.059  33.261  61.922  1.00  0.00     0.019 A 
HETATM    7  C   UNL     1       7.170  33.503  65.362  1.00  0.00     0.032 A 
HETATM    8  C   UNL     1       6.105  34.094  66.049  1.00  0.00     0.021 A 
HETATM    9  C   UNL     1       4.940  34.454  65.377  1.00  0.00     0.012 A 
HETATM   10 BR   UNL     1       3.519  35.252  66.340  1.00  0.00    -0.051 Br
HETATM   11  C   UNL     1       4.798  34.235  64.004  1.00  0.00     0.033 A 
ENDROOT
BRANCH   1  12
HETATM   12  C   UNL     1       8.013  32.150  60.656  1.00  0.00     0.287 C 
HETATM   13  N   UNL     1       7.825  30.786  60.497  1.00  0.00    -0.262 N 
HETATM   14  H   UNL     1       7.561  30.195  61.283  1.00  0.00     0.190 HD
HETATM   15  O   UNL     1       8.711  32.784  59.866  1.00  0.00    -0.264 OA
BRANCH  13  16
HETATM   16  N   UNL     1       8.567  30.136  59.495  1.00  0.00    -0.268 N 
HETATM   17  C   UNL     1       7.882  29.729  58.370  1.00  0.00     0.232 C 
HETATM   18  C   UNL     1       8.691  28.899  57.412  1.00  0.00     0.119 C 
HETATM   19  O   UNL     1       6.711  30.039  58.160  1.00  0.00    -0.272 OA
HETATM   20  H   UNL     1       9.429  29.686  59.806  1.00  0.00     0.190 HD
ENDBRANCH  13  16
ENDBRANCH   1  12
BRANCH   6  21
HETATM   21  C   UNL     1       5.121  33.415  60.820  1.00  0.00    -0.023 A 
HETATM   22  C   UNL     1       4.604  32.294  60.158  1.00  0.00     0.012 A 
HETATM   23  C   UNL     1       3.731  32.456  59.079  1.00  0.00     0.001 A 
HETATM   24  C   UNL     1       3.376  33.736  58.654  1.00  0.00     0.000 A 
HETATM   25  C   UNL     1       3.891  34.855  59.304  1.00  0.00     0.001 A 
HETATM   26  C   UNL     1       4.761  34.695  60.385  1.00  0.00     0.012 A 
ENDBRANCH   6  21
TORSDOF 3
ENDMDL
MODEL 9
REMARK VINA RESULT:      -7.6      3.647      6.263
REMARK  3 active torsions:
REMARK  status: ('A' for Active; 'I' for Inactive)
REMARK       I    between atoms: C_2  and  N_3 
REMARK    1  A    between atoms: N_3  and  N_4 
REMARK       I    between atoms: N_4  and  C_5 
REMARK    2  A    between atoms: C_5  and  C_6 
REMARK    3  A    between atoms: C_11  and  C_12 
ROOT
HETATM    1  C   UNL     1       6.318  29.791  56.989  1.00  0.00     0.115 A 
HETATM    2  N   UNL     1       5.776  30.973  56.521  1.00  0.00    -0.350 N 
HETATM    3  H   UNL     1       5.876  31.869  56.977  1.00  0.00     0.166 HD
HETATM    4  C   UNL     1       5.032  30.772  55.385  1.00  0.00     0.044 A 
HETATM    5  C   UNL     1       5.077  29.409  55.106  1.00  0.00     0.005 A 
HETATM    6  C   UNL     1       5.880  28.794  56.122  1.00  0.00     0.019 A 
HETATM    7  C   UNL     1       4.322  31.688  54.600  1.00  0.00     0.032 A 
HETATM    8  C   UNL     1       3.641  31.192  53.484  1.00  0.00     0.021 A 
HETATM    9  C   UNL     1       3.676  29.835  53.177  1.00  0.00     0.012 A 
HETATM   10 BR   UNL     1       2.743  29.199  51.658  1.00  0.00    -0.051 Br
HETATM   11  C   UNL     1       4.388  28.931  53.970  1.00  0.00     0.033 A 
ENDROOT
BRANCH   1  12
HETATM   12  C   UNL     1       7.119  29.703  58.194  1.00  0.00     0.287 C 
HETATM   13  N   UNL     1       6.869  30.706  59.119  1.00  0.00    -0.262 N 
HETATM   14  H   UNL     1       6.456  31.593  58.836  1.00  0.00     0.190 HD
HETATM   15  O   UNL     1       7.963  28.837  58.421  1.00  0.00    -0.264 OA
BRANCH  13  16
HETATM   16  N   UNL     1       7.704  30.779  60.247  1.00  0.00    -0.268 N 
HETATM   17  C   UNL     1       8.708  31.723  60.226  1.00  0.00     0.232 C 
HETATM   18  C   UNL     1       9.664  31.644  61.383  1.00  0.00     0.119 C 
HETATM   19  O   UNL     1       8.798  32.573  59.343  1.00  0.00    -0.272 OA
HETATM   20  H   UNL     1       7.762  29.929  60.809  1.00  0.00     0.190 HD
ENDBRANCH  13  16
ENDBRANCH   1  12
BRANCH   6  21
HETATM   21  C   UNL     1       6.205  27.381  56.254  1.00  0.00    -0.023 A 
HETATM   22  C   UNL     1       7.374  26.859  55.686  1.00  0.00     0.012 A 
HETATM   23  C   UNL     1       7.657  25.494  55.791  1.00  0.00     0.001 A 
HETATM   24  C   UNL     1       6.772  24.646  56.456  1.00  0.00     0.000 A 
HETATM   25  C   UNL     1       5.604  25.158  57.018  1.00  0.00     0.001 A 
HETATM   26  C   UNL     1       5.321  26.522  56.918  1.00  0.00     0.012 A 
ENDBRANCH   6  21
TORSDOF 3
ENDMDL
MODEL 10
REMARK VINA RESULT:      -7.6      3.431      6.305
REMARK  3 active torsions:
REMARK  status: ('A' for Active; 'I' for Inactive)
REMARK       I    between atoms: C_2  and  N_3 
REMARK    1  A    between atoms: N_3  and  N_4 
REMARK       I    between atoms: N_4  and  C_5 
REMARK    2  A    between atoms: C_5  and  C_6 
REMARK    3  A    between atoms: C_11  and  C_12 
ROOT
HETATM    1  C   UNL     1       6.465  25.511  54.002  1.00  0.00     0.115 A 
HETATM    2  N   UNL     1       5.993  25.060  52.784  1.00  0.00    -0.350 N 
HETATM    3  H   UNL     1       5.927  24.087  52.519  1.00  0.00     0.166 HD
HETATM    4  C   UNL     1       5.674  26.102  51.949  1.00  0.00     0.044 A 
HETATM    5  C   UNL     1       5.960  27.277  52.638  1.00  0.00     0.005 A 
HETATM    6  C   UNL     1       6.467  26.901  53.927  1.00  0.00     0.019 A 
HETATM    7  C   UNL     1       5.168  26.088  50.644  1.00  0.00     0.032 A 
HETATM    8  C   UNL     1       4.939  27.321  50.026  1.00  0.00     0.021 A 
HETATM    9  C   UNL     1       5.209  28.511  50.696  1.00  0.00     0.012 A 
HETATM   10 BR   UNL     1       4.887  30.162  49.828  1.00  0.00    -0.051 Br
HETATM   11  C   UNL     1       5.715  28.510  51.998  1.00  0.00     0.033 A 
ENDROOT
BRANCH   1  12
HETATM   12  C   UNL     1       6.911  24.627  55.061  1.00  0.00     0.287 C 
HETATM   13  N   UNL     1       8.082  23.941  54.776  1.00  0.00    -0.262 N 
HETATM   14  H   UNL     1       8.384  23.790  53.815  1.00  0.00     0.190 HD
HETATM   15  O   UNL     1       6.332  24.461  56.134  1.00  0.00    -0.264 OA
BRANCH  13  16
HETATM   16  N   UNL     1       8.502  22.955  55.687  1.00  0.00    -0.268 N 
HETATM   17  C   UNL     1       8.212  21.646  55.373  1.00  0.00     0.232 C 
HETATM   18  C   UNL     1       8.539  20.656  56.457  1.00  0.00     0.119 C 
HETATM   19  O   UNL     1       7.745  21.313  54.285  1.00  0.00    -0.272 OA
HETATM   20  H   UNL     1       8.639  23.273  56.647  1.00  0.00     0.190 HD
ENDBRANCH  13  16
ENDBRANCH   1  12
BRANCH   6  21
HETATM   21  C   UNL     1       6.909  27.786  54.993  1.00  0.00    -0.023 A 
HETATM   22  C   UNL     1       8.168  28.398  54.941  1.00  0.00     0.012 A 
HETATM   23  C   UNL     1       8.594  29.220  55.987  1.00  0.00     0.001 A 
HETATM   24  C   UNL     1       7.769  29.428  57.092  1.00  0.00     0.000 A 
HETATM   25  C   UNL     1       6.518  28.818  57.154  1.00  0.00     0.001 A 
HETATM   26  C   UNL     1       6.089  28.000  56.108  1.00  0.00     0.012 A 
ENDBRANCH   6  21
TORSDOF 3
ENDMDL
