MODEL 1
REMARK VINA RESULT:     -11.0      0.000      0.000
REMARK  6 active torsions:
REMARK  status: ('A' for Active; 'I' for Inactive)
REMARK    1  A    between atoms: C_6  and  C_8 
REMARK    2  A    between atoms: C_6  and  O_7 
REMARK    3  A    between atoms: C_8  and  N_9 
REMARK       I    between atoms: N_9  and  C_10 
REMARK    4  A    between atoms: C_10  and  C_11 
REMARK       I    between atoms: C_11  and  N_12 
REMARK    5  A    between atoms: N_12  and  C_13 
REMARK       I    between atoms: N_17  and  C_18 
REMARK    6  A    between atoms: C_18  and  C_19 
ROOT
HETATM    1  C   UNL     1      10.198  30.160  57.724  1.00  0.00     0.313 C 
HETATM    2  N   UNL     1       9.967  31.435  58.194  1.00  0.00    -0.319 N 
HETATM    3  O   UNL     1      11.204  29.855  57.093  1.00  0.00    -0.262 OA
HETATM    4  H   UNL     1      10.466  32.152  57.683  1.00  0.00     0.169 HD
ENDROOT
BRANCH   1   5
HETATM    5  C   UNL     1       9.072  29.126  57.890  1.00  0.00     0.309 C 
HETATM    6  N   UNL     1       8.966  28.209  56.867  1.00  0.00    -0.350 N 
HETATM    7  H   UNL     1       9.669  28.191  56.136  1.00  0.00     0.163 HD
HETATM    8  O   UNL     1       8.361  29.152  58.887  1.00  0.00    -0.262 OA
BRANCH   6   9
HETATM    9  C   UNL     1       8.034  27.103  56.970  1.00  0.00     0.161 C 
BRANCH   9  10
HETATM   10  C   UNL     1       6.683  27.378  56.272  1.00  0.00     0.078 C 
HETATM   11  C   UNL     1       6.000  26.088  55.780  1.00  0.00     0.078 C 
HETATM   12  C   UNL     1       6.642  25.498  54.551  1.00  0.00    -0.049 A 
HETATM   13  C   UNL     1       7.421  26.283  53.682  1.00  0.00    -0.052 A 
HETATM   14  C   UNL     1       6.422  24.145  54.253  1.00  0.00     0.007 A 
HETATM   15  C   UNL     1       7.998  25.685  52.551  1.00  0.00     0.007 A 
HETATM   16  C   UNL     1       7.721  27.734  53.970  1.00  0.00     0.042 C 
HETATM   17  C   UNL     1       7.784  24.334  52.273  1.00  0.00     0.001 A 
HETATM   18  C   UNL     1       6.994  23.566  53.122  1.00  0.00     0.001 A 
HETATM   19  C   UNL     1       6.858  28.333  55.081  1.00  0.00     0.044 C 
BRANCH  10  20
HETATM   20  O   UNL     1       5.827  28.016  57.241  1.00  0.00    -0.388 OA
HETATM   21  H   UNL     1       6.383  28.592  57.795  1.00  0.00     0.210 HD
ENDBRANCH  10  20
ENDBRANCH   9  10
ENDBRANCH   6   9
ENDBRANCH   1   5
BRANCH   2  22
HETATM   22  C   UNL     1       9.032  31.836  59.160  1.00  0.00     0.035 A 
HETATM   23  C   UNL     1       7.677  31.975  58.869  1.00  0.00     0.039 A 
HETATM   24  C   UNL     1       6.753  32.343  59.866  1.00  0.00    -0.029 A 
HETATM   25  C   UNL     1       7.189  32.629  61.177  1.00  0.00     0.043 A 
HETATM   26  C   UNL     1       5.306  32.440  59.462  1.00  0.00     0.042 C 
HETATM   27  N   UNL     1       6.251  33.117  62.158  1.00  0.00    -0.313 N 
HETATM   28  C   UNL     1       8.555  32.458  61.451  1.00  0.00     0.032 A 
HETATM   29  C   UNL     1       6.597  33.351  63.511  1.00  0.00     0.265 C 
HETATM   30  C   UNL     1       4.872  33.355  61.705  1.00  0.00     0.133 C 
HETATM   31  O   UNL     1       7.519  32.767  64.079  1.00  0.00    -0.267 OA
HETATM   32  C   UNL     1       4.407  32.342  60.677  1.00  0.00     0.025 C 
HETATM   33  C   UNL     1       9.459  32.034  60.466  1.00  0.00     0.032 A 
BRANCH  29  34
HETATM   34  C   UNL     1       5.791  34.339  64.229  1.00  0.00     0.073 A 
HETATM   35  S   UNL     1       4.861  33.843  65.580  1.00  0.00    -0.097 SA
HETATM   36  C   UNL     1       4.260  35.424  65.832  1.00  0.00     0.050 A 
HETATM   37  C   UNL     1       4.777  36.324  64.928  1.00  0.00     0.009 A 
HETATM   38  C   UNL     1       5.677  35.702  64.014  1.00  0.00     0.025 A 
ENDBRANCH  29  34
ENDBRANCH   2  22
TORSDOF 6
ENDMDL
MODEL 2
REMARK VINA RESULT:     -10.7      2.761      5.018
REMARK  6 active torsions:
REMARK  status: ('A' for Active; 'I' for Inactive)
REMARK    1  A    between atoms: C_6  and  C_8 
REMARK    2  A    between atoms: C_6  and  O_7 
REMARK    3  A    between atoms: C_8  and  N_9 
REMARK       I    between atoms: N_9  and  C_10 
REMARK    4  A    between atoms: C_10  and  C_11 
REMARK       I    between atoms: C_11  and  N_12 
REMARK    5  A    between atoms: N_12  and  C_13 
REMARK       I    between atoms: N_17  and  C_18 
REMARK    6  A    between atoms: C_18  and  C_19 
ROOT
HETATM    1  C   UNL     1       5.537  26.847  54.462  1.00  0.00     0.313 C 
HETATM    2  N   UNL     1       5.561  28.217  54.612  1.00  0.00    -0.319 N 
HETATM    3  O   UNL     1       5.334  26.299  53.383  1.00  0.00    -0.262 OA
HETATM    4  H   UNL     1       5.047  28.713  53.895  1.00  0.00     0.169 HD
ENDROOT
BRANCH   1   5
HETATM    5  C   UNL     1       5.636  25.989  55.733  1.00  0.00     0.309 C 
HETATM    6  N   UNL     1       6.596  25.001  55.698  1.00  0.00    -0.350 N 
HETATM    7  H   UNL     1       7.237  24.953  54.913  1.00  0.00     0.163 HD
HETATM    8  O   UNL     1       4.901  26.221  56.685  1.00  0.00    -0.262 OA
BRANCH   6   9
HETATM    9  C   UNL     1       6.879  24.213  56.883  1.00  0.00     0.161 C 
BRANCH   9  10
HETATM   10  C   UNL     1       8.353  23.760  56.975  1.00  0.00     0.078 C 
HETATM   11  C   UNL     1       9.048  23.731  55.601  1.00  0.00     0.078 C 
HETATM   12  C   UNL     1       8.628  22.569  54.739  1.00  0.00    -0.049 A 
HETATM   13  C   UNL     1       8.079  21.400  55.299  1.00  0.00    -0.052 A 
HETATM   14  C   UNL     1       8.829  22.644  53.353  1.00  0.00     0.007 A 
HETATM   15  C   UNL     1       7.704  20.347  54.451  1.00  0.00     0.007 A 
HETATM   16  C   UNL     1       7.808  21.276  56.778  1.00  0.00     0.042 C 
HETATM   17  C   UNL     1       7.894  20.440  53.072  1.00  0.00     0.001 A 
HETATM   18  C   UNL     1       8.460  21.587  52.524  1.00  0.00     0.001 A 
HETATM   19  C   UNL     1       8.467  22.370  57.620  1.00  0.00     0.044 C 
BRANCH  10  20
HETATM   20  O   UNL     1       9.035  24.708  57.821  1.00  0.00    -0.388 OA
HETATM   21  H   UNL     1       9.812  24.261  58.201  1.00  0.00     0.210 HD
ENDBRANCH  10  20
ENDBRANCH   9  10
ENDBRANCH   6   9
ENDBRANCH   1   5
BRANCH   2  22
HETATM   22  C   UNL     1       6.066  28.951  55.696  1.00  0.00     0.035 A 
HETATM   23  C   UNL     1       7.419  28.949  56.029  1.00  0.00     0.039 A 
HETATM   24  C   UNL     1       7.905  29.724  57.100  1.00  0.00    -0.029 A 
HETATM   25  C   UNL     1       7.021  30.484  57.893  1.00  0.00     0.043 A 
HETATM   26  C   UNL     1       9.386  29.678  57.365  1.00  0.00     0.042 C 
HETATM   27  N   UNL     1       7.516  31.181  59.056  1.00  0.00    -0.313 N 
HETATM   28  C   UNL     1       5.667  30.489  57.523  1.00  0.00     0.032 A 
HETATM   29  C   UNL     1       6.706  32.025  59.855  1.00  0.00     0.265 C 
HETATM   30  C   UNL     1       8.936  31.000  59.392  1.00  0.00     0.133 C 
HETATM   31  O   UNL     1       5.707  32.600  59.425  1.00  0.00    -0.267 OA
HETATM   32  C   UNL     1       9.820  30.888  58.165  1.00  0.00     0.025 C 
HETATM   33  C   UNL     1       5.201  29.761  56.419  1.00  0.00     0.032 A 
BRANCH  29  34
HETATM   34  C   UNL     1       7.118  32.194  61.250  1.00  0.00     0.073 A 
HETATM   35  S   UNL     1       6.685  33.627  62.085  1.00  0.00    -0.097 SA
HETATM   36  C   UNL     1       7.469  33.111  63.514  1.00  0.00     0.050 A 
HETATM   37  C   UNL     1       8.025  31.859  63.376  1.00  0.00     0.009 A 
HETATM   38  C   UNL     1       7.806  31.321  62.074  1.00  0.00     0.025 A 
ENDBRANCH  29  34
ENDBRANCH   2  22
TORSDOF 6
ENDMDL
MODEL 3
REMARK VINA RESULT:     -10.4      3.250      5.727
REMARK  6 active torsions:
REMARK  status: ('A' for Active; 'I' for Inactive)
REMARK    1  A    between atoms: C_6  and  C_8 
REMARK    2  A    between atoms: C_6  and  O_7 
REMARK    3  A    between atoms: C_8  and  N_9 
REMARK       I    between atoms: N_9  and  C_10 
REMARK    4  A    between atoms: C_10  and  C_11 
REMARK       I    between atoms: C_11  and  N_12 
REMARK    5  A    between atoms: N_12  and  C_13 
REMARK       I    between atoms: N_17  and  C_18 
REMARK    6  A    between atoms: C_18  and  C_19 
ROOT
HETATM    1  C   UNL     1       3.929  28.339  53.017  1.00  0.00     0.313 C 
HETATM    2  N   UNL     1       4.070  29.497  53.751  1.00  0.00    -0.319 N 
HETATM    3  O   UNL     1       3.323  28.296  51.952  1.00  0.00    -0.262 OA
HETATM    4  H   UNL     1       3.355  30.188  53.561  1.00  0.00     0.169 HD
ENDROOT
BRANCH   1   5
HETATM    5  C   UNL     1       4.442  27.032  53.644  1.00  0.00     0.309 C 
HETATM    6  N   UNL     1       5.110  26.192  52.779  1.00  0.00    -0.350 N 
HETATM    7  H   UNL     1       5.317  26.506  51.837  1.00  0.00     0.163 HD
HETATM    8  O   UNL     1       4.256  26.812  54.834  1.00  0.00    -0.262 OA
BRANCH   6   9
HETATM    9  C   UNL     1       5.757  24.994  53.277  1.00  0.00     0.161 C 
BRANCH   9  10
HETATM   10  C   UNL     1       7.275  25.172  53.503  1.00  0.00     0.078 C 
HETATM   11  C   UNL     1       8.104  24.052  52.846  1.00  0.00     0.078 C 
HETATM   12  C   UNL     1       8.034  22.739  53.584  1.00  0.00    -0.049 A 
HETATM   13  C   UNL     1       7.687  22.681  54.946  1.00  0.00    -0.052 A 
HETATM   14  C   UNL     1       8.362  21.558  52.901  1.00  0.00     0.007 A 
HETATM   15  C   UNL     1       7.637  21.433  55.586  1.00  0.00     0.007 A 
HETATM   16  C   UNL     1       7.292  23.914  55.722  1.00  0.00     0.042 C 
HETATM   17  C   UNL     1       7.950  20.264  54.893  1.00  0.00     0.001 A 
HETATM   18  C   UNL     1       8.315  20.327  53.552  1.00  0.00     0.001 A 
HETATM   19  C   UNL     1       7.612  25.224  55.002  1.00  0.00     0.044 C 
BRANCH  10  20
HETATM   20  O   UNL     1       7.648  26.433  52.912  1.00  0.00    -0.388 OA
HETATM   21  H   UNL     1       7.183  27.137  53.397  1.00  0.00     0.210 HD
ENDBRANCH  10  20
ENDBRANCH   9  10
ENDBRANCH   6   9
ENDBRANCH   1   5
BRANCH   2  22
HETATM   22  C   UNL     1       4.968  29.742  54.800  1.00  0.00     0.035 A 
HETATM   23  C   UNL     1       6.199  29.096  54.892  1.00  0.00     0.039 A 
HETATM   24  C   UNL     1       7.098  29.388  55.936  1.00  0.00    -0.029 A 
HETATM   25  C   UNL     1       6.748  30.309  56.946  1.00  0.00     0.043 A 
HETATM   26  C   UNL     1       8.415  28.660  55.934  1.00  0.00     0.042 C 
HETATM   27  N   UNL     1       7.628  30.512  58.071  1.00  0.00    -0.313 N 
HETATM   28  C   UNL     1       5.513  30.964  56.819  1.00  0.00     0.032 A 
HETATM   29  C   UNL     1       7.383  31.473  59.082  1.00  0.00     0.265 C 
HETATM   30  C   UNL     1       8.838  29.678  58.134  1.00  0.00     0.133 C 
HETATM   31  O   UNL     1       6.714  32.489  58.894  1.00  0.00    -0.267 OA
HETATM   32  C   UNL     1       9.436  29.405  56.768  1.00  0.00     0.025 C 
HETATM   33  C   UNL     1       4.650  30.711  55.743  1.00  0.00     0.032 A 
BRANCH  29  34
HETATM   34  C   UNL     1       7.975  31.206  60.394  1.00  0.00     0.073 A 
HETATM   35  S   UNL     1       7.113  31.643  61.809  1.00  0.00    -0.097 SA
HETATM   36  C   UNL     1       8.359  31.066  62.827  1.00  0.00     0.050 A 
HETATM   37  C   UNL     1       9.401  30.520  62.112  1.00  0.00     0.009 A 
HETATM   38  C   UNL     1       9.171  30.584  60.706  1.00  0.00     0.025 A 
ENDBRANCH  29  34
ENDBRANCH   2  22
TORSDOF 6
ENDMDL
MODEL 4
REMARK VINA RESULT:     -10.3      3.307      5.835
REMARK  6 active torsions:
REMARK  status: ('A' for Active; 'I' for Inactive)
REMARK    1  A    between atoms: C_6  and  C_8 
REMARK    2  A    between atoms: C_6  and  O_7 
REMARK    3  A    between atoms: C_8  and  N_9 
REMARK       I    between atoms: N_9  and  C_10 
REMARK    4  A    between atoms: C_10  and  C_11 
REMARK       I    between atoms: C_11  and  N_12 
REMARK    5  A    between atoms: N_12  and  C_13 
REMARK       I    between atoms: N_17  and  C_18 
REMARK    6  A    between atoms: C_18  and  C_19 
ROOT
HETATM    1  C   UNL     1       3.575  29.624  52.552  1.00  0.00     0.313 C 
HETATM    2  N   UNL     1       3.384  29.996  53.865  1.00  0.00    -0.319 N 
HETATM    3  O   UNL     1       2.734  29.809  51.678  1.00  0.00    -0.262 OA
HETATM    4  H   UNL     1       2.409  30.076  54.126  1.00  0.00     0.169 HD
ENDROOT
BRANCH   1   5
HETATM    5  C   UNL     1       4.844  28.823  52.216  1.00  0.00     0.309 C 
HETATM    6  N   UNL     1       4.811  27.495  52.585  1.00  0.00    -0.350 N 
HETATM    7  H   UNL     1       3.951  27.098  52.948  1.00  0.00     0.163 HD
HETATM    8  O   UNL     1       5.779  29.371  51.648  1.00  0.00    -0.262 OA
BRANCH   6   9
HETATM    9  C   UNL     1       5.890  26.604  52.205  1.00  0.00     0.161 C 
BRANCH   9  10
HETATM   10  C   UNL     1       5.561  25.113  52.446  1.00  0.00     0.078 C 
HETATM   11  C   UNL     1       4.952  24.861  53.838  1.00  0.00     0.078 C 
HETATM   12  C   UNL     1       5.958  24.937  54.958  1.00  0.00    -0.049 A 
HETATM   13  C   UNL     1       7.332  24.750  54.723  1.00  0.00    -0.052 A 
HETATM   14  C   UNL     1       5.502  25.159  56.266  1.00  0.00     0.007 A 
HETATM   15  C   UNL     1       8.227  24.831  55.801  1.00  0.00     0.007 A 
HETATM   16  C   UNL     1       7.883  24.542  53.333  1.00  0.00     0.042 C 
HETATM   17  C   UNL     1       7.764  25.067  57.095  1.00  0.00     0.001 A 
HETATM   18  C   UNL     1       6.401  25.228  57.328  1.00  0.00     0.001 A 
HETATM   19  C   UNL     1       6.813  24.236  52.286  1.00  0.00     0.044 C 
BRANCH  10  20
HETATM   20  O   UNL     1       4.603  24.722  51.442  1.00  0.00    -0.388 OA
HETATM   21  H   UNL     1       4.637  25.380  50.726  1.00  0.00     0.210 HD
ENDBRANCH  10  20
ENDBRANCH   9  10
ENDBRANCH   6   9
ENDBRANCH   1   5
BRANCH   2  22
HETATM   22  C   UNL     1       4.353  30.113  54.872  1.00  0.00     0.035 A 
HETATM   23  C   UNL     1       5.427  29.232  54.976  1.00  0.00     0.039 A 
HETATM   24  C   UNL     1       6.407  29.394  55.974  1.00  0.00    -0.029 A 
HETATM   25  C   UNL     1       6.296  30.429  56.926  1.00  0.00     0.043 A 
HETATM   26  C   UNL     1       7.545  28.408  55.989  1.00  0.00     0.042 C 
HETATM   27  N   UNL     1       7.242  30.514  58.012  1.00  0.00    -0.313 N 
HETATM   28  C   UNL     1       5.219  31.318  56.786  1.00  0.00     0.032 A 
HETATM   29  C   UNL     1       7.242  31.567  58.959  1.00  0.00     0.265 C 
HETATM   30  C   UNL     1       8.255  29.451  58.102  1.00  0.00     0.133 C 
HETATM   31  O   UNL     1       6.790  32.686  58.718  1.00  0.00    -0.267 OA
HETATM   32  C   UNL     1       8.729  28.974  56.743  1.00  0.00     0.025 C 
HETATM   33  C   UNL     1       4.280  31.184  55.753  1.00  0.00     0.032 A 
BRANCH  29  34
HETATM   34  C   UNL     1       7.818  31.265  60.271  1.00  0.00     0.073 A 
HETATM   35  S   UNL     1       6.960  31.709  61.687  1.00  0.00    -0.097 SA
HETATM   36  C   UNL     1       8.182  31.081  62.704  1.00  0.00     0.050 A 
HETATM   37  C   UNL     1       9.211  30.513  61.988  1.00  0.00     0.009 A 
HETATM   38  C   UNL     1       8.992  30.602  60.581  1.00  0.00     0.025 A 
ENDBRANCH  29  34
ENDBRANCH   2  22
TORSDOF 6
ENDMDL
MODEL 5
REMARK VINA RESULT:     -10.2      3.535      9.586
REMARK  6 active torsions:
REMARK  status: ('A' for Active; 'I' for Inactive)
REMARK    1  A    between atoms: C_6  and  C_8 
REMARK    2  A    between atoms: C_6  and  O_7 
REMARK    3  A    between atoms: C_8  and  N_9 
REMARK       I    between atoms: N_9  and  C_10 
REMARK    4  A    between atoms: C_10  and  C_11 
REMARK       I    between atoms: C_11  and  N_12 
REMARK    5  A    between atoms: N_12  and  C_13 
REMARK       I    between atoms: N_17  and  C_18 
REMARK    6  A    between atoms: C_18  and  C_19 
ROOT
HETATM    1  C   UNL     1       3.145  33.209  58.086  1.00  0.00     0.313 C 
HETATM    2  N   UNL     1       3.874  32.673  57.046  1.00  0.00    -0.319 N 
HETATM    3  O   UNL     1       2.356  34.136  57.936  1.00  0.00    -0.262 OA
HETATM    4  H   UNL     1       4.000  33.309  56.268  1.00  0.00     0.169 HD
ENDROOT
BRANCH   1   5
HETATM    5  C   UNL     1       3.448  32.701  59.504  1.00  0.00     0.309 C 
HETATM    6  N   UNL     1       4.321  33.483  60.230  1.00  0.00    -0.350 N 
HETATM    7  H   UNL     1       4.627  34.374  59.853  1.00  0.00     0.163 HD
HETATM    8  O   UNL     1       2.913  31.679  59.914  1.00  0.00    -0.262 OA
BRANCH   6   9
HETATM    9  C   UNL     1       4.582  33.185  61.625  1.00  0.00     0.161 C 
BRANCH   9  10
HETATM   10  C   UNL     1       5.682  34.078  62.243  1.00  0.00     0.078 C 
HETATM   11  C   UNL     1       6.970  34.097  61.398  1.00  0.00     0.078 C 
HETATM   12  C   UNL     1       7.779  32.830  61.506  1.00  0.00    -0.049 A 
HETATM   13  C   UNL     1       7.649  31.969  62.611  1.00  0.00    -0.052 A 
HETATM   14  C   UNL     1       8.709  32.531  60.500  1.00  0.00     0.007 A 
HETATM   15  C   UNL     1       8.427  30.802  62.663  1.00  0.00     0.007 A 
HETATM   16  C   UNL     1       6.641  32.222  63.706  1.00  0.00     0.042 C 
HETATM   17  C   UNL     1       9.337  30.507  61.648  1.00  0.00     0.001 A 
HETATM   18  C   UNL     1       9.481  31.372  60.569  1.00  0.00     0.001 A 
HETATM   19  C   UNL     1       6.030  33.623  63.669  1.00  0.00     0.044 C 
BRANCH  10  20
HETATM   20  O   UNL     1       5.152  35.417  62.312  1.00  0.00    -0.388 OA
HETATM   21  H   UNL     1       4.596  35.475  63.109  1.00  0.00     0.210 HD
ENDBRANCH  10  20
ENDBRANCH   9  10
ENDBRANCH   6   9
ENDBRANCH   1   5
BRANCH   2  22
HETATM   22  C   UNL     1       4.564  31.452  57.024  1.00  0.00     0.035 A 
HETATM   23  C   UNL     1       5.929  31.364  57.286  1.00  0.00     0.039 A 
HETATM   24  C   UNL     1       6.590  30.120  57.294  1.00  0.00    -0.029 A 
HETATM   25  C   UNL     1       5.889  28.935  56.988  1.00  0.00     0.043 A 
HETATM   26  C   UNL     1       8.060  30.124  57.615  1.00  0.00     0.042 C 
HETATM   27  N   UNL     1       6.601  27.684  56.885  1.00  0.00    -0.313 N 
HETATM   28  C   UNL     1       4.510  29.046  56.751  1.00  0.00     0.032 A 
HETATM   29  C   UNL     1       5.957  26.443  56.658  1.00  0.00     0.265 C 
HETATM   30  C   UNL     1       8.062  27.729  57.048  1.00  0.00     0.133 C 
HETATM   31  O   UNL     1       4.787  26.227  56.973  1.00  0.00    -0.267 OA
HETATM   32  C   UNL     1       8.508  28.752  58.074  1.00  0.00     0.025 C 
HETATM   33  C   UNL     1       3.849  30.282  56.803  1.00  0.00     0.032 A 
BRANCH  29  34
HETATM   34  C   UNL     1       6.760  25.398  56.021  1.00  0.00     0.073 A 
HETATM   35  S   UNL     1       7.017  25.453  54.327  1.00  0.00    -0.097 SA
HETATM   36  C   UNL     1       7.951  24.022  54.355  1.00  0.00     0.050 A 
HETATM   37  C   UNL     1       8.096  23.523  55.629  1.00  0.00     0.009 A 
HETATM   38  C   UNL     1       7.424  24.329  56.595  1.00  0.00     0.025 A 
ENDBRANCH  29  34
ENDBRANCH   2  22
TORSDOF 6
ENDMDL
MODEL 6
REMARK VINA RESULT:     -10.0      3.948     10.563
REMARK  6 active torsions:
REMARK  status: ('A' for Active; 'I' for Inactive)
REMARK    1  A    between atoms: C_6  and  C_8 
REMARK    2  A    between atoms: C_6  and  O_7 
REMARK    3  A    between atoms: C_8  and  N_9 
REMARK       I    between atoms: N_9  and  C_10 
REMARK    4  A    between atoms: C_10  and  C_11 
REMARK       I    between atoms: C_11  and  N_12 
REMARK    5  A    between atoms: N_12  and  C_13 
REMARK       I    between atoms: N_17  and  C_18 
REMARK    6  A    between atoms: C_18  and  C_19 
ROOT
HETATM    1  C   UNL     1       4.490  34.245  65.336  1.00  0.00     0.313 C 
HETATM    2  N   UNL     1       4.692  33.031  64.714  1.00  0.00    -0.319 N 
HETATM    3  O   UNL     1       4.158  34.343  66.512  1.00  0.00    -0.262 OA
HETATM    4  H   UNL     1       4.202  32.263  65.156  1.00  0.00     0.169 HD
ENDROOT
BRANCH   1   5
HETATM    5  C   UNL     1       4.557  35.510  64.465  1.00  0.00     0.309 C 
HETATM    6  N   UNL     1       3.400  35.806  63.776  1.00  0.00    -0.350 N 
HETATM    7  H   UNL     1       2.561  35.262  63.949  1.00  0.00     0.163 HD
HETATM    8  O   UNL     1       5.583  36.176  64.434  1.00  0.00    -0.262 OA
BRANCH   6   9
HETATM    9  C   UNL     1       3.292  37.043  63.027  1.00  0.00     0.161 C 
BRANCH   9  10
HETATM   10  C   UNL     1       3.644  36.883  61.532  1.00  0.00     0.078 C 
HETATM   11  C   UNL     1       5.156  37.007  61.264  1.00  0.00     0.078 C 
HETATM   12  C   UNL     1       5.667  38.423  61.349  1.00  0.00    -0.049 A 
HETATM   13  C   UNL     1       4.808  39.524  61.182  1.00  0.00    -0.052 A 
HETATM   14  C   UNL     1       7.037  38.638  61.559  1.00  0.00     0.007 A 
HETATM   15  C   UNL     1       5.335  40.822  61.270  1.00  0.00     0.007 A 
HETATM   16  C   UNL     1       3.321  39.354  60.988  1.00  0.00     0.042 C 
HETATM   17  C   UNL     1       6.697  41.024  61.494  1.00  0.00     0.001 A 
HETATM   18  C   UNL     1       7.548  39.932  61.635  1.00  0.00     0.001 A 
HETATM   19  C   UNL     1       2.901  37.918  60.672  1.00  0.00     0.044 C 
BRANCH  10  20
HETATM   20  O   UNL     1       3.208  35.568  61.132  1.00  0.00    -0.388 OA
HETATM   21  H   UNL     1       2.664  35.666  60.331  1.00  0.00     0.210 HD
ENDBRANCH  10  20
ENDBRANCH   9  10
ENDBRANCH   6   9
ENDBRANCH   1   5
BRANCH   2  22
HETATM   22  C   UNL     1       5.347  32.790  63.498  1.00  0.00     0.035 A 
HETATM   23  C   UNL     1       4.662  32.718  62.287  1.00  0.00     0.039 A 
HETATM   24  C   UNL     1       5.348  32.512  61.074  1.00  0.00    -0.029 A 
HETATM   25  C   UNL     1       6.746  32.323  61.065  1.00  0.00     0.043 A 
HETATM   26  C   UNL     1       4.526  32.477  59.814  1.00  0.00     0.042 C 
HETATM   27  N   UNL     1       7.421  31.997  59.832  1.00  0.00    -0.313 N 
HETATM   28  C   UNL     1       7.416  32.424  62.295  1.00  0.00     0.032 A 
HETATM   29  C   UNL     1       8.828  31.870  59.730  1.00  0.00     0.265 C 
HETATM   30  C   UNL     1       6.583  31.813  58.638  1.00  0.00     0.133 C 
HETATM   31  O   UNL     1       9.611  32.441  60.489  1.00  0.00    -0.267 OA
HETATM   32  C   UNL     1       5.393  32.752  58.605  1.00  0.00     0.025 C 
HETATM   33  C   UNL     1       6.732  32.688  63.490  1.00  0.00     0.032 A 
BRANCH  29  34
HETATM   34  C   UNL     1       9.329  31.013  58.655  1.00  0.00     0.073 A 
HETATM   35  S   UNL     1       8.492  29.566  58.275  1.00  0.00    -0.097 SA
HETATM   36  C   UNL     1       9.604  29.168  57.039  1.00  0.00     0.050 A 
HETATM   37  C   UNL     1      10.578  30.129  56.890  1.00  0.00     0.009 A 
HETATM   38  C   UNL     1      10.409  31.204  57.811  1.00  0.00     0.025 A 
ENDBRANCH  29  34
ENDBRANCH   2  22
TORSDOF 6
ENDMDL
MODEL 7
REMARK VINA RESULT:     -10.0      5.443      9.338
REMARK  6 active torsions:
REMARK  status: ('A' for Active; 'I' for Inactive)
REMARK    1  A    between atoms: C_6  and  C_8 
REMARK    2  A    between atoms: C_6  and  O_7 
REMARK    3  A    between atoms: C_8  and  N_9 
REMARK       I    between atoms: N_9  and  C_10 
REMARK    4  A    between atoms: C_10  and  C_11 
REMARK       I    between atoms: C_11  and  N_12 
REMARK    5  A    between atoms: N_12  and  C_13 
REMARK       I    between atoms: N_17  and  C_18 
REMARK    6  A    between atoms: C_18  and  C_19 
ROOT
HETATM    1  C   UNL     1       6.672  30.270  57.344  1.00  0.00     0.313 C 
HETATM    2  N   UNL     1       5.790  30.812  56.434  1.00  0.00    -0.319 N 
HETATM    3  O   UNL     1       6.798  30.700  58.485  1.00  0.00    -0.262 OA
HETATM    4  H   UNL     1       5.545  31.774  56.629  1.00  0.00     0.169 HD
ENDROOT
BRANCH   1   5
HETATM    5  C   UNL     1       7.625  29.172  56.845  1.00  0.00     0.309 C 
HETATM    6  N   UNL     1       7.339  27.902  57.296  1.00  0.00    -0.350 N 
HETATM    7  H   UNL     1       6.490  27.738  57.826  1.00  0.00     0.163 HD
HETATM    8  O   UNL     1       8.545  29.459  56.090  1.00  0.00    -0.262 OA
BRANCH   6   9
HETATM    9  C   UNL     1       8.080  26.762  56.791  1.00  0.00     0.161 C 
BRANCH   9  10
HETATM   10  C   UNL     1       7.655  25.424  57.436  1.00  0.00     0.078 C 
HETATM   11  C   UNL     1       8.501  24.236  56.943  1.00  0.00     0.078 C 
HETATM   12  C   UNL     1       8.163  23.796  55.541  1.00  0.00    -0.049 A 
HETATM   13  C   UNL     1       6.914  24.086  54.963  1.00  0.00    -0.052 A 
HETATM   14  C   UNL     1       9.105  23.048  54.819  1.00  0.00     0.007 A 
HETATM   15  C   UNL     1       6.650  23.654  53.654  1.00  0.00     0.007 A 
HETATM   16  C   UNL     1       5.877  24.916  55.679  1.00  0.00     0.042 C 
HETATM   17  C   UNL     1       7.599  22.924  52.940  1.00  0.00     0.001 A 
HETATM   18  C   UNL     1       8.825  22.618  53.523  1.00  0.00     0.001 A 
HETATM   19  C   UNL     1       6.172  25.124  57.165  1.00  0.00     0.044 C 
BRANCH  10  20
HETATM   20  O   UNL     1       7.835  25.564  58.860  1.00  0.00    -0.388 OA
HETATM   21  H   UNL     1       8.776  25.746  59.024  1.00  0.00     0.210 HD
ENDBRANCH  10  20
ENDBRANCH   9  10
ENDBRANCH   6   9
ENDBRANCH   1   5
BRANCH   2  22
HETATM   22  C   UNL     1       5.343  30.244  55.231  1.00  0.00     0.035 A 
HETATM   23  C   UNL     1       5.921  29.097  54.691  1.00  0.00     0.039 A 
HETATM   24  C   UNL     1       5.429  28.526  53.502  1.00  0.00    -0.029 A 
HETATM   25  C   UNL     1       4.367  29.134  52.801  1.00  0.00     0.043 A 
HETATM   26  C   UNL     1       6.101  27.271  53.012  1.00  0.00     0.042 C 
HETATM   27  N   UNL     1       3.950  28.604  51.525  1.00  0.00    -0.313 N 
HETATM   28  C   UNL     1       3.786  30.274  53.377  1.00  0.00     0.032 A 
HETATM   29  C   UNL     1       2.843  29.112  50.801  1.00  0.00     0.265 C 
HETATM   30  C   UNL     1       4.718  27.473  50.986  1.00  0.00     0.133 C 
HETATM   31  O   UNL     1       1.897  29.687  51.337  1.00  0.00    -0.267 OA
HETATM   32  C   UNL     1       5.193  26.517  52.063  1.00  0.00     0.025 C 
HETATM   33  C   UNL     1       4.243  30.802  54.593  1.00  0.00     0.032 A 
BRANCH  29  34
HETATM   34  C   UNL     1       2.868  28.917  49.350  1.00  0.00     0.073 A 
HETATM   35  S   UNL     1       1.698  27.901  48.619  1.00  0.00    -0.097 SA
HETATM   36  C   UNL     1       2.347  28.163  47.059  1.00  0.00     0.050 A 
HETATM   37  C   UNL     1       3.415  29.032  47.082  1.00  0.00     0.009 A 
HETATM   38  C   UNL     1       3.704  29.483  48.403  1.00  0.00     0.025 A 
ENDBRANCH  29  34
ENDBRANCH   2  22
TORSDOF 6
ENDMDL
MODEL 8
REMARK VINA RESULT:     -10.0      5.228     10.452
REMARK  6 active torsions:
REMARK  status: ('A' for Active; 'I' for Inactive)
REMARK    1  A    between atoms: C_6  and  C_8 
REMARK    2  A    between atoms: C_6  and  O_7 
REMARK    3  A    between atoms: C_8  and  N_9 
REMARK       I    between atoms: N_9  and  C_10 
REMARK    4  A    between atoms: C_10  and  C_11 
REMARK       I    between atoms: C_11  and  N_12 
REMARK    5  A    between atoms: N_12  and  C_13 
REMARK       I    between atoms: N_17  and  C_18 
REMARK    6  A    between atoms: C_18  and  C_19 
ROOT
HETATM    1  C   UNL     1       5.434  34.998  67.110  1.00  0.00     0.313 C 
HETATM    2  N   UNL     1       5.743  33.772  66.560  1.00  0.00    -0.319 N 
HETATM    3  O   UNL     1       5.683  35.286  68.275  1.00  0.00    -0.262 OA
HETATM    4  H   UNL     1       5.831  33.031  67.244  1.00  0.00     0.169 HD
ENDROOT
BRANCH   1   5
HETATM    5  C   UNL     1       4.623  35.980  66.249  1.00  0.00     0.309 C 
HETATM    6  N   UNL     1       5.355  36.678  65.312  1.00  0.00    -0.350 N 
HETATM    7  H   UNL     1       6.332  36.446  65.166  1.00  0.00     0.163 HD
HETATM    8  O   UNL     1       3.415  36.084  66.416  1.00  0.00    -0.262 OA
BRANCH   6   9
HETATM    9  C   UNL     1       4.686  37.533  64.351  1.00  0.00     0.161 C 
BRANCH   9  10
HETATM   10  C   UNL     1       5.625  38.048  63.238  1.00  0.00     0.078 C 
HETATM   11  C   UNL     1       4.950  39.095  62.333  1.00  0.00     0.078 C 
HETATM   12  C   UNL     1       3.949  38.505  61.372  1.00  0.00    -0.049 A 
HETATM   13  C   UNL     1       4.004  37.150  60.997  1.00  0.00    -0.052 A 
HETATM   14  C   UNL     1       2.971  39.340  60.812  1.00  0.00     0.007 A 
HETATM   15  C   UNL     1       3.049  36.650  60.099  1.00  0.00     0.007 A 
HETATM   16  C   UNL     1       5.012  36.198  61.593  1.00  0.00     0.042 C 
HETATM   17  C   UNL     1       2.071  37.487  59.561  1.00  0.00     0.001 A 
HETATM   18  C   UNL     1       2.034  38.832  59.915  1.00  0.00     0.001 A 
HETATM   19  C   UNL     1       6.136  36.892  62.363  1.00  0.00     0.044 C 
BRANCH  10  20
HETATM   20  O   UNL     1       6.759  38.658  63.887  1.00  0.00    -0.388 OA
HETATM   21  H   UNL     1       7.184  37.980  64.441  1.00  0.00     0.210 HD
ENDBRANCH  10  20
ENDBRANCH   9  10
ENDBRANCH   6   9
ENDBRANCH   1   5
BRANCH   2  22
HETATM   22  C   UNL     1       5.786  33.430  65.200  1.00  0.00     0.035 A 
HETATM   23  C   UNL     1       6.984  33.185  64.533  1.00  0.00     0.039 A 
HETATM   24  C   UNL     1       6.997  32.807  63.176  1.00  0.00    -0.029 A 
HETATM   25  C   UNL     1       5.794  32.715  62.447  1.00  0.00     0.043 A 
HETATM   26  C   UNL     1       8.339  32.536  62.550  1.00  0.00     0.042 C 
HETATM   27  N   UNL     1       5.829  32.440  61.031  1.00  0.00    -0.313 N 
HETATM   28  C   UNL     1       4.599  32.943  63.147  1.00  0.00     0.032 A 
HETATM   29  C   UNL     1       4.663  32.257  60.248  1.00  0.00     0.265 C 
HETATM   30  C   UNL     1       7.155  32.333  60.402  1.00  0.00     0.133 C 
HETATM   31  O   UNL     1       3.595  31.864  60.717  1.00  0.00    -0.267 OA
HETATM   32  C   UNL     1       8.184  31.685  61.307  1.00  0.00     0.025 C 
HETATM   33  C   UNL     1       4.591  33.261  64.513  1.00  0.00     0.032 A 
BRANCH  29  34
HETATM   34  C   UNL     1       4.782  32.558  58.820  1.00  0.00     0.073 A 
HETATM   35  S   UNL     1       4.914  31.268  57.699  1.00  0.00    -0.097 SA
HETATM   36  C   UNL     1       5.012  32.343  56.373  1.00  0.00     0.050 A 
HETATM   37  C   UNL     1       4.915  33.659  56.765  1.00  0.00     0.009 A 
HETATM   38  C   UNL     1       4.763  33.783  58.177  1.00  0.00     0.025 A 
ENDBRANCH  29  34
ENDBRANCH   2  22
TORSDOF 6
ENDMDL
MODEL 9
REMARK VINA RESULT:      -9.9      4.897     10.373
REMARK  6 active torsions:
REMARK  status: ('A' for Active; 'I' for Inactive)
REMARK    1  A    between atoms: C_6  and  C_8 
REMARK    2  A    between atoms: C_6  and  O_7 
REMARK    3  A    between atoms: C_8  and  N_9 
REMARK       I    between atoms: N_9  and  C_10 
REMARK    4  A    between atoms: C_10  and  C_11 
REMARK       I    between atoms: C_11  and  N_12 
REMARK    5  A    between atoms: N_12  and  C_13 
REMARK       I    between atoms: N_17  and  C_18 
REMARK    6  A    between atoms: C_18  and  C_19 
ROOT
HETATM    1  C   UNL     1       7.443  24.088  55.985  1.00  0.00     0.313 C 
HETATM    2  N   UNL     1       6.830  23.931  54.760  1.00  0.00    -0.319 N 
HETATM    3  O   UNL     1       8.182  23.240  56.473  1.00  0.00    -0.262 OA
HETATM    4  H   UNL     1       6.725  22.963  54.480  1.00  0.00     0.169 HD
ENDROOT
BRANCH   1   5
HETATM    5  C   UNL     1       7.064  25.323  56.817  1.00  0.00     0.309 C 
HETATM    6  N   UNL     1       7.985  26.349  56.793  1.00  0.00    -0.350 N 
HETATM    7  H   UNL     1       8.784  26.289  56.171  1.00  0.00     0.163 HD
HETATM    8  O   UNL     1       6.002  25.348  57.425  1.00  0.00    -0.262 OA
BRANCH   6   9
HETATM    9  C   UNL     1       7.683  27.618  57.426  1.00  0.00     0.161 C 
BRANCH   9  10
HETATM   10  C   UNL     1       7.867  28.828  56.484  1.00  0.00     0.078 C 
HETATM   11  C   UNL     1       9.046  29.727  56.901  1.00  0.00     0.078 C 
HETATM   12  C   UNL     1       8.759  30.573  58.114  1.00  0.00    -0.049 A 
HETATM   13  C   UNL     1       7.440  30.882  58.497  1.00  0.00    -0.052 A 
HETATM   14  C   UNL     1       9.834  31.093  58.850  1.00  0.00     0.007 A 
HETATM   15  C   UNL     1       7.227  31.674  59.635  1.00  0.00     0.007 A 
HETATM   16  C   UNL     1       6.245  30.323  57.765  1.00  0.00     0.042 C 
HETATM   17  C   UNL     1       8.304  32.173  60.368  1.00  0.00     0.001 A 
HETATM   18  C   UNL     1       9.607  31.885  59.974  1.00  0.00     0.001 A 
HETATM   19  C   UNL     1       6.591  29.682  56.420  1.00  0.00     0.044 C 
BRANCH  10  20
HETATM   20  O   UNL     1       8.126  28.304  55.166  1.00  0.00    -0.388 OA
HETATM   21  H   UNL     1       7.390  28.574  54.589  1.00  0.00     0.210 HD
ENDBRANCH  10  20
ENDBRANCH   9  10
ENDBRANCH   6   9
ENDBRANCH   1   5
BRANCH   2  22
HETATM   22  C   UNL     1       6.222  24.920  53.974  1.00  0.00     0.035 A 
HETATM   23  C   UNL     1       5.497  25.971  54.531  1.00  0.00     0.039 A 
HETATM   24  C   UNL     1       4.927  26.972  53.720  1.00  0.00    -0.029 A 
HETATM   25  C   UNL     1       5.037  26.905  52.315  1.00  0.00     0.043 A 
HETATM   26  C   UNL     1       4.186  28.082  54.416  1.00  0.00     0.042 C 
HETATM   27  N   UNL     1       4.351  27.871  51.493  1.00  0.00    -0.313 N 
HETATM   28  C   UNL     1       5.792  25.850  51.779  1.00  0.00     0.032 A 
HETATM   29  C   UNL     1       4.476  27.915  50.082  1.00  0.00     0.265 C 
HETATM   30  C   UNL     1       3.504  28.857  52.181  1.00  0.00     0.133 C 
HETATM   31  O   UNL     1       5.463  27.490  49.482  1.00  0.00    -0.267 OA
HETATM   32  C   UNL     1       4.077  29.294  53.515  1.00  0.00     0.025 C 
HETATM   33  C   UNL     1       6.406  24.890  52.597  1.00  0.00     0.032 A 
BRANCH  29  34
HETATM   34  C   UNL     1       3.356  28.504  49.346  1.00  0.00     0.073 A 
HETATM   35  S   UNL     1       3.474  30.123  48.795  1.00  0.00    -0.097 SA
HETATM   36  C   UNL     1       1.910  30.072  48.104  1.00  0.00     0.050 A 
HETATM   37  C   UNL     1       1.317  28.839  48.259  1.00  0.00     0.009 A 
HETATM   38  C   UNL     1       2.160  27.927  48.960  1.00  0.00     0.025 A 
ENDBRANCH  29  34
ENDBRANCH   2  22
TORSDOF 6
ENDMDL
MODEL 10
REMARK VINA RESULT:      -9.8      3.255      5.055
REMARK  6 active torsions:
REMARK  status: ('A' for Active; 'I' for Inactive)
REMARK    1  A    between atoms: C_6  and  C_8 
REMARK    2  A    between atoms: C_6  and  O_7 
REMARK    3  A    between atoms: C_8  and  N_9 
REMARK       I    between atoms: N_9  and  C_10 
REMARK    4  A    between atoms: C_10  and  C_11 
REMARK       I    between atoms: C_11  and  N_12 
REMARK    5  A    between atoms: N_12  and  C_13 
REMARK       I    between atoms: N_17  and  C_18 
REMARK    6  A    between atoms: C_18  and  C_19 
ROOT
HETATM    1  C   UNL     1       4.786  27.284  53.990  1.00  0.00     0.313 C 
HETATM    2  N   UNL     1       3.974  28.395  54.084  1.00  0.00    -0.319 N 
HETATM    3  O   UNL     1       4.847  26.588  52.983  1.00  0.00    -0.262 OA
HETATM    4  H   UNL     1       3.188  28.377  53.446  1.00  0.00     0.169 HD
ENDROOT
BRANCH   1   5
HETATM    5  C   UNL     1       5.533  26.841  55.258  1.00  0.00     0.309 C 
HETATM    6  N   UNL     1       5.544  25.481  55.484  1.00  0.00    -0.350 N 
HETATM    7  H   UNL     1       5.168  24.854  54.780  1.00  0.00     0.163 HD
HETATM    8  O   UNL     1       6.074  27.675  55.972  1.00  0.00    -0.262 OA
BRANCH   6   9
HETATM    9  C   UNL     1       6.328  24.926  56.571  1.00  0.00     0.161 C 
BRANCH   9  10
HETATM   10  C   UNL     1       7.849  24.960  56.303  1.00  0.00     0.078 C 
HETATM   11  C   UNL     1       8.198  24.640  54.837  1.00  0.00     0.078 C 
HETATM   12  C   UNL     1       8.056  23.180  54.490  1.00  0.00    -0.049 A 
HETATM   13  C   UNL     1       8.102  22.183  55.481  1.00  0.00    -0.052 A 
HETATM   14  C   UNL     1       7.915  22.813  53.143  1.00  0.00     0.007 A 
HETATM   15  C   UNL     1       7.964  20.838  55.105  1.00  0.00     0.007 A 
HETATM   16  C   UNL     1       8.216  22.520  56.948  1.00  0.00     0.042 C 
HETATM   17  C   UNL     1       7.809  20.486  53.764  1.00  0.00     0.001 A 
HETATM   18  C   UNL     1       7.788  21.473  52.783  1.00  0.00     0.001 A 
HETATM   19  C   UNL     1       8.596  23.976  57.217  1.00  0.00     0.044 C 
BRANCH  10  20
HETATM   20  O   UNL     1       8.304  26.294  56.607  1.00  0.00    -0.388 OA
HETATM   21  H   UNL     1       8.845  26.602  55.859  1.00  0.00     0.210 HD
ENDBRANCH  10  20
ENDBRANCH   9  10
ENDBRANCH   6   9
ENDBRANCH   1   5
BRANCH   2  22
HETATM   22  C   UNL     1       4.032  29.421  55.038  1.00  0.00     0.035 A 
HETATM   23  C   UNL     1       4.489  30.699  54.727  1.00  0.00     0.039 A 
HETATM   24  C   UNL     1       4.503  31.722  55.695  1.00  0.00    -0.029 A 
HETATM   25  C   UNL     1       4.099  31.459  57.021  1.00  0.00     0.043 A 
HETATM   26  C   UNL     1       4.988  33.079  55.257  1.00  0.00     0.042 C 
HETATM   27  N   UNL     1       4.229  32.483  58.029  1.00  0.00    -0.313 N 
HETATM   28  C   UNL     1       3.621  30.170  57.304  1.00  0.00     0.032 A 
HETATM   29  C   UNL     1       3.774  32.320  59.361  1.00  0.00     0.265 C 
HETATM   30  C   UNL     1       4.849  33.752  57.620  1.00  0.00     0.133 C 
HETATM   31  O   UNL     1       2.865  31.550  59.670  1.00  0.00    -0.267 OA
HETATM   32  C   UNL     1       4.490  34.152  56.202  1.00  0.00     0.025 C 
HETATM   33  C   UNL     1       3.555  29.174  56.319  1.00  0.00     0.032 A 
BRANCH  29  34
HETATM   34  C   UNL     1       4.442  33.128  60.382  1.00  0.00     0.073 A 
HETATM   35  S   UNL     1       3.562  34.358  61.189  1.00  0.00    -0.097 SA
HETATM   36  C   UNL     1       4.918  34.804  62.129  1.00  0.00     0.050 A 
HETATM   37  C   UNL     1       6.015  34.016  61.863  1.00  0.00     0.009 A 
HETATM   38  C   UNL     1       5.735  33.035  60.867  1.00  0.00     0.025 A 
ENDBRANCH  29  34
ENDBRANCH   2  22
TORSDOF 6
ENDMDL
