MODEL 1
REMARK VINA RESULT:     -10.6      0.000      0.000
REMARK  4 active torsions:
REMARK  status: ('A' for Active; 'I' for Inactive)
REMARK    1  A    between atoms: C_2  and  C_3 
REMARK       I    between atoms: C_3  and  N_4 
REMARK    2  A    between atoms: N_4  and  N_5 
REMARK    3  A    between atoms: N_5  and  C_6 
REMARK    4  A    between atoms: N_7  and  C_8 
ROOT
HETATM    1  C   UNL     1       5.359  26.467  50.864  1.00  0.00     0.729 C 
HETATM    2  N   UNL     1       5.018  27.651  51.516  1.00  0.00    -0.108 N 
HETATM    3  C   UNL     1       5.529  27.895  52.785  1.00  0.00     0.276 C 
HETATM    4  O   UNL     1       5.657  29.010  53.288  1.00  0.00    -0.266 OA
HETATM    5  C   UNL     1       5.945  26.693  53.568  1.00  0.00     0.050 C 
HETATM    6  C   UNL     1       6.163  25.582  52.841  1.00  0.00     0.099 C 
HETATM    7  C   UNL     1       6.767  24.395  53.503  1.00  0.00     0.000 A 
HETATM    8  C   UNL     1       6.777  24.296  54.901  1.00  0.00    -0.044 A 
HETATM    9  C   UNL     1       7.345  23.178  55.531  1.00  0.00     0.008 A 
HETATM   10  C   UNL     1       7.926  22.164  54.772  1.00  0.00     0.001 A 
HETATM   11  C   UNL     1       7.931  22.255  53.385  1.00  0.00     0.001 A 
HETATM   12  C   UNL     1       7.354  23.361  52.756  1.00  0.00     0.014 A 
HETATM   13  C   UNL     1       6.099  25.362  55.716  1.00  0.00     0.054 C 
HETATM   14  C   UNL     1       6.180  26.794  55.091  1.00  0.00    -0.002 C 
HETATM   15  C   UNL     1       7.583  27.421  55.331  1.00  0.00     0.015 C 
HETATM   16  C   UNL     1       7.896  27.719  56.798  1.00  0.00     0.001 C 
HETATM   17  C   UNL     1       6.798  28.538  57.467  1.00  0.00     0.000 C 
HETATM   18  C   UNL     1       5.426  27.893  57.307  1.00  0.00     0.001 C 
HETATM   19  C   UNL     1       5.098  27.643  55.832  1.00  0.00     0.015 C 
HETATM   20  N   UNL     1       5.930  25.478  51.497  1.00  0.00    -0.061 NA
ENDROOT
BRANCH   1  21
HETATM   21  N   UNL     1       5.171  26.327  49.496  1.00  0.00    -0.127 N 
HETATM   22  H   UNL     1       5.624  26.979  48.859  1.00  0.00     0.206 HD
BRANCH  21  23
HETATM   23  N   UNL     1       3.862  25.985  49.094  1.00  0.00    -0.256 N 
HETATM   24  C   UNL     1       3.450  26.512  47.886  1.00  0.00     0.236 C 
HETATM   25  O   UNL     1       4.233  27.045  47.098  1.00  0.00    -0.272 OA
HETATM   26  H   UNL     1       3.217  25.904  49.879  1.00  0.00     0.190 HD
BRANCH  24  27
HETATM   27  C   UNL     1       1.990  26.292  47.548  1.00  0.00     0.100 C 
HETATM   28  C   UNL     1       1.073  27.420  47.984  1.00  0.00     0.014 C 
ENDBRANCH  24  27
ENDBRANCH  21  23
ENDBRANCH   1  21
BRANCH   2  29
HETATM   29  C   UNL     1       4.284  28.684  50.843  1.00  0.00     0.060 A 
HETATM   30  C   UNL     1       4.887  29.530  49.903  1.00  0.00     0.030 A 
HETATM   31  C   UNL     1       4.147  30.524  49.258  1.00  0.00     0.002 A 
HETATM   32  C   UNL     1       2.796  30.693  49.551  1.00  0.00     0.000 A 
HETATM   33  C   UNL     1       2.185  29.875  50.497  1.00  0.00     0.002 A 
HETATM   34  C   UNL     1       2.926  28.884  51.144  1.00  0.00     0.030 A 
ENDBRANCH   2  29
TORSDOF 4
ENDMDL
MODEL 2
REMARK VINA RESULT:      -9.1      3.677      6.998
REMARK  4 active torsions:
REMARK  status: ('A' for Active; 'I' for Inactive)
REMARK    1  A    between atoms: C_2  and  C_3 
REMARK       I    between atoms: C_3  and  N_4 
REMARK    2  A    between atoms: N_4  and  N_5 
REMARK    3  A    between atoms: N_5  and  C_6 
REMARK    4  A    between atoms: N_7  and  C_8 
ROOT
HETATM    1  C   UNL     1       5.888  29.007  57.005  1.00  0.00     0.729 C 
HETATM    2  N   UNL     1       5.190  29.393  55.861  1.00  0.00    -0.108 N 
HETATM    3  C   UNL     1       4.968  28.456  54.858  1.00  0.00     0.276 C 
HETATM    4  O   UNL     1       4.061  28.518  54.029  1.00  0.00    -0.266 OA
HETATM    5  C   UNL     1       5.917  27.304  54.813  1.00  0.00     0.050 C 
HETATM    6  C   UNL     1       6.601  27.079  55.950  1.00  0.00     0.099 C 
HETATM    7  C   UNL     1       7.419  25.843  56.066  1.00  0.00     0.000 A 
HETATM    8  C   UNL     1       7.763  25.114  54.919  1.00  0.00    -0.044 A 
HETATM    9  C   UNL     1       8.536  23.947  55.023  1.00  0.00     0.008 A 
HETATM   10  C   UNL     1       8.948  23.487  56.272  1.00  0.00     0.001 A 
HETATM   11  C   UNL     1       8.605  24.194  57.418  1.00  0.00     0.001 A 
HETATM   12  C   UNL     1       7.848  25.364  57.315  1.00  0.00     0.014 A 
HETATM   13  C   UNL     1       7.367  25.643  53.569  1.00  0.00     0.054 C 
HETATM   14  C   UNL     1       6.003  26.410  53.558  1.00  0.00    -0.002 C 
HETATM   15  C   UNL     1       4.810  25.412  53.582  1.00  0.00     0.015 C 
HETATM   16  C   UNL     1       4.680  24.556  52.320  1.00  0.00     0.001 C 
HETATM   17  C   UNL     1       4.677  25.398  51.050  1.00  0.00     0.000 C 
HETATM   18  C   UNL     1       5.884  26.326  50.976  1.00  0.00     0.001 C 
HETATM   19  C   UNL     1       5.979  27.215  52.219  1.00  0.00     0.015 C 
HETATM   20  N   UNL     1       6.550  27.883  57.056  1.00  0.00    -0.061 NA
ENDROOT
BRANCH   1  21
HETATM   21  N   UNL     1       5.840  29.774  58.161  1.00  0.00    -0.127 N 
HETATM   22  H   UNL     1       5.177  30.544  58.224  1.00  0.00     0.206 HD
BRANCH  21  23
HETATM   23  N   UNL     1       7.090  30.075  58.742  1.00  0.00    -0.256 N 
HETATM   24  C   UNL     1       7.435  31.413  58.761  1.00  0.00     0.236 C 
HETATM   25  O   UNL     1       6.625  32.306  58.509  1.00  0.00    -0.272 OA
HETATM   26  H   UNL     1       7.790  29.355  58.570  1.00  0.00     0.190 HD
BRANCH  24  27
HETATM   27  C   UNL     1       8.847  31.711  59.219  1.00  0.00     0.100 C 
HETATM   28  C   UNL     1       8.935  32.322  60.605  1.00  0.00     0.014 C 
ENDBRANCH  24  27
ENDBRANCH  21  23
ENDBRANCH   1  21
BRANCH   2  29
HETATM   29  C   UNL     1       4.566  30.681  55.772  1.00  0.00     0.060 A 
HETATM   30  C   UNL     1       5.266  31.816  55.342  1.00  0.00     0.030 A 
HETATM   31  C   UNL     1       4.631  33.059  55.260  1.00  0.00     0.002 A 
HETATM   32  C   UNL     1       3.290  33.185  55.616  1.00  0.00     0.000 A 
HETATM   33  C   UNL     1       2.585  32.072  56.065  1.00  0.00     0.002 A 
HETATM   34  C   UNL     1       3.221  30.831  56.150  1.00  0.00     0.030 A 
ENDBRANCH   2  29
TORSDOF 4
ENDMDL
MODEL 3
REMARK VINA RESULT:      -8.9      1.795      6.971
REMARK  4 active torsions:
REMARK  status: ('A' for Active; 'I' for Inactive)
REMARK    1  A    between atoms: C_2  and  C_3 
REMARK       I    between atoms: C_3  and  N_4 
REMARK    2  A    between atoms: N_4  and  N_5 
REMARK    3  A    between atoms: N_5  and  C_6 
REMARK    4  A    between atoms: N_7  and  C_8 
ROOT
HETATM    1  C   UNL     1       5.532  26.248  52.890  1.00  0.00     0.729 C 
HETATM    2  N   UNL     1       5.689  27.534  53.403  1.00  0.00    -0.108 N 
HETATM    3  C   UNL     1       5.079  28.600  52.752  1.00  0.00     0.276 C 
HETATM    4  O   UNL     1       4.788  29.671  53.282  1.00  0.00    -0.266 OA
HETATM    5  C   UNL     1       4.768  28.395  51.306  1.00  0.00     0.050 C 
HETATM    6  C   UNL     1       4.728  27.112  50.903  1.00  0.00     0.099 C 
HETATM    7  C   UNL     1       4.236  26.801  49.535  1.00  0.00     0.000 A 
HETATM    8  C   UNL     1       4.157  27.812  48.567  1.00  0.00    -0.044 A 
HETATM    9  C   UNL     1       3.693  27.523  47.274  1.00  0.00     0.008 A 
HETATM   10  C   UNL     1       3.284  26.233  46.946  1.00  0.00     0.001 A 
HETATM   11  C   UNL     1       3.348  25.223  47.900  1.00  0.00     0.001 A 
HETATM   12  C   UNL     1       3.822  25.506  49.183  1.00  0.00     0.014 A 
HETATM   13  C   UNL     1       4.652  29.190  48.905  1.00  0.00     0.054 C 
HETATM   14  C   UNL     1       4.435  29.599  50.399  1.00  0.00    -0.002 C 
HETATM   15  C   UNL     1       2.955  30.007  50.649  1.00  0.00     0.015 C 
HETATM   16  C   UNL     1       2.523  31.284  49.924  1.00  0.00     0.001 C 
HETATM   17  C   UNL     1       3.473  32.446  50.189  1.00  0.00     0.000 C 
HETATM   18  C   UNL     1       4.920  32.085  49.874  1.00  0.00     0.001 C 
HETATM   19  C   UNL     1       5.361  30.834  50.641  1.00  0.00     0.015 C 
HETATM   20  N   UNL     1       5.049  26.042  51.694  1.00  0.00    -0.061 NA
ENDROOT
BRANCH   1  21
HETATM   21  N   UNL     1       5.814  25.131  53.665  1.00  0.00    -0.127 N 
HETATM   22  H   UNL     1       6.000  25.246  54.659  1.00  0.00     0.206 HD
BRANCH  21  23
HETATM   23  N   UNL     1       6.644  24.164  53.058  1.00  0.00    -0.256 N 
HETATM   24  C   UNL     1       7.345  23.349  53.925  1.00  0.00     0.236 C 
HETATM   25  O   UNL     1       7.097  23.300  55.131  1.00  0.00    -0.272 OA
HETATM   26  H   UNL     1       7.064  24.493  52.190  1.00  0.00     0.190 HD
BRANCH  24  27
HETATM   27  C   UNL     1       8.365  22.438  53.274  1.00  0.00     0.100 C 
HETATM   28  C   UNL     1       7.979  20.970  53.274  1.00  0.00     0.014 C 
ENDBRANCH  24  27
ENDBRANCH  21  23
ENDBRANCH   1  21
BRANCH   2  29
HETATM   29  C   UNL     1       6.329  27.755  54.667  1.00  0.00     0.060 A 
HETATM   30  C   UNL     1       5.656  27.571  55.882  1.00  0.00     0.030 A 
HETATM   31  C   UNL     1       6.307  27.788  57.100  1.00  0.00     0.002 A 
HETATM   32  C   UNL     1       7.636  28.203  57.120  1.00  0.00     0.000 A 
HETATM   33  C   UNL     1       8.314  28.411  55.923  1.00  0.00     0.002 A 
HETATM   34  C   UNL     1       7.663  28.197  54.705  1.00  0.00     0.030 A 
ENDBRANCH   2  29
TORSDOF 4
ENDMDL
MODEL 4
REMARK VINA RESULT:      -8.6      2.331      8.079
REMARK  4 active torsions:
REMARK  status: ('A' for Active; 'I' for Inactive)
REMARK    1  A    between atoms: C_2  and  C_3 
REMARK       I    between atoms: C_3  and  N_4 
REMARK    2  A    between atoms: N_4  and  N_5 
REMARK    3  A    between atoms: N_5  and  C_6 
REMARK    4  A    between atoms: N_7  and  C_8 
ROOT
HETATM    1  C   UNL     1       6.196  27.108  54.358  1.00  0.00     0.729 C 
HETATM    2  N   UNL     1       6.409  26.087  53.433  1.00  0.00    -0.108 N 
HETATM    3  C   UNL     1       6.153  26.329  52.088  1.00  0.00     0.276 C 
HETATM    4  O   UNL     1       6.660  25.708  51.155  1.00  0.00    -0.266 OA
HETATM    5  C   UNL     1       5.190  27.431  51.791  1.00  0.00     0.050 C 
HETATM    6  C   UNL     1       4.998  28.311  52.790  1.00  0.00     0.099 C 
HETATM    7  C   UNL     1       4.213  29.545  52.522  1.00  0.00     0.000 A 
HETATM    8  C   UNL     1       3.395  29.629  51.387  1.00  0.00    -0.044 A 
HETATM    9  C   UNL     1       2.652  30.791  51.130  1.00  0.00     0.008 A 
HETATM   10  C   UNL     1       2.737  31.885  51.990  1.00  0.00     0.001 A 
HETATM   11  C   UNL     1       3.553  31.818  53.114  1.00  0.00     0.001 A 
HETATM   12  C   UNL     1       4.283  30.657  53.378  1.00  0.00     0.014 A 
HETATM   13  C   UNL     1       3.259  28.429  50.493  1.00  0.00     0.054 C 
HETATM   14  C   UNL     1       4.554  27.558  50.390  1.00  0.00    -0.002 C 
HETATM   15  C   UNL     1       5.591  28.221  49.438  1.00  0.00     0.015 C 
HETATM   16  C   UNL     1       5.154  28.279  47.973  1.00  0.00     0.001 C 
HETATM   17  C   UNL     1       4.709  26.918  47.450  1.00  0.00     0.000 C 
HETATM   18  C   UNL     1       3.636  26.290  48.331  1.00  0.00     0.001 C 
HETATM   19  C   UNL     1       4.100  26.190  49.787  1.00  0.00     0.015 C 
HETATM   20  N   UNL     1       5.536  28.190  54.043  1.00  0.00    -0.061 NA
ENDROOT
BRANCH   1  21
HETATM   21  N   UNL     1       6.749  27.045  55.629  1.00  0.00    -0.127 N 
HETATM   22  H   UNL     1       6.135  26.969  56.438  1.00  0.00     0.206 HD
BRANCH  21  23
HETATM   23  N   UNL     1       7.854  27.893  55.855  1.00  0.00    -0.256 N 
HETATM   24  C   UNL     1       8.215  28.067  57.177  1.00  0.00     0.236 C 
HETATM   25  O   UNL     1       7.768  27.360  58.081  1.00  0.00    -0.272 OA
HETATM   26  H   UNL     1       7.902  28.665  55.191  1.00  0.00     0.190 HD
BRANCH  24  27
HETATM   27  C   UNL     1       9.282  29.114  57.424  1.00  0.00     0.100 C 
HETATM   28  C   UNL     1       9.991  29.587  56.169  1.00  0.00     0.014 C 
ENDBRANCH  24  27
ENDBRANCH  21  23
ENDBRANCH   1  21
BRANCH   2  29
HETATM   29  C   UNL     1       7.030  24.854  53.820  1.00  0.00     0.060 A 
HETATM   30  C   UNL     1       7.979  24.215  53.011  1.00  0.00     0.030 A 
HETATM   31  C   UNL     1       8.573  23.016  53.416  1.00  0.00     0.002 A 
HETATM   32  C   UNL     1       8.219  22.434  54.630  1.00  0.00     0.000 A 
HETATM   33  C   UNL     1       7.263  23.044  55.438  1.00  0.00     0.002 A 
HETATM   34  C   UNL     1       6.667  24.240  55.031  1.00  0.00     0.030 A 
ENDBRANCH   2  29
TORSDOF 4
ENDMDL
MODEL 5
REMARK VINA RESULT:      -8.4      8.816     11.712
REMARK  4 active torsions:
REMARK  status: ('A' for Active; 'I' for Inactive)
REMARK    1  A    between atoms: C_2  and  C_3 
REMARK       I    between atoms: C_3  and  N_4 
REMARK    2  A    between atoms: N_4  and  N_5 
REMARK    3  A    between atoms: N_5  and  C_6 
REMARK    4  A    between atoms: N_7  and  C_8 
ROOT
HETATM    1  C   UNL     1       3.617  33.937  60.652  1.00  0.00     0.729 C 
HETATM    2  N   UNL     1       4.485  33.374  59.718  1.00  0.00    -0.108 N 
HETATM    3  C   UNL     1       5.571  32.632  60.167  1.00  0.00     0.276 C 
HETATM    4  O   UNL     1       6.152  31.771  59.508  1.00  0.00    -0.266 OA
HETATM    5  C   UNL     1       6.039  32.926  61.554  1.00  0.00     0.050 C 
HETATM    6  C   UNL     1       5.145  33.551  62.341  1.00  0.00     0.099 C 
HETATM    7  C   UNL     1       5.447  33.709  63.789  1.00  0.00     0.000 A 
HETATM    8  C   UNL     1       6.757  33.545  64.259  1.00  0.00    -0.044 A 
HETATM    9  C   UNL     1       7.046  33.694  65.624  1.00  0.00     0.008 A 
HETATM   10  C   UNL     1       6.029  33.983  66.531  1.00  0.00     0.001 A 
HETATM   11  C   UNL     1       4.723  34.139  66.079  1.00  0.00     0.001 A 
HETATM   12  C   UNL     1       4.436  34.004  64.718  1.00  0.00     0.014 A 
HETATM   13  C   UNL     1       7.862  33.291  63.273  1.00  0.00     0.054 C 
HETATM   14  C   UNL     1       7.428  32.447  62.029  1.00  0.00    -0.002 C 
HETATM   15  C   UNL     1       7.327  30.938  62.394  1.00  0.00     0.015 C 
HETATM   16  C   UNL     1       8.666  30.285  62.745  1.00  0.00     0.001 C 
HETATM   17  C   UNL     1       9.724  30.530  61.674  1.00  0.00     0.000 C 
HETATM   18  C   UNL     1       9.888  32.013  61.362  1.00  0.00     0.001 C 
HETATM   19  C   UNL     1       8.553  32.648  60.964  1.00  0.00     0.015 C 
HETATM   20  N   UNL     1       3.925  34.003  61.919  1.00  0.00    -0.061 NA
ENDROOT
BRANCH   1  21
HETATM   21  N   UNL     1       2.356  34.381  60.277  1.00  0.00    -0.127 N 
HETATM   22  H   UNL     1       1.797  33.819  59.637  1.00  0.00     0.206 HD
BRANCH  21  23
HETATM   23  N   UNL     1       2.247  35.767  60.031  1.00  0.00    -0.256 N 
HETATM   24  C   UNL     1       1.714  36.117  58.807  1.00  0.00     0.236 C 
HETATM   25  O   UNL     1       1.154  35.301  58.073  1.00  0.00    -0.272 OA
HETATM   26  H   UNL     1       3.009  36.302  60.445  1.00  0.00     0.190 HD
BRANCH  24  27
HETATM   27  C   UNL     1       1.766  37.595  58.477  1.00  0.00     0.100 C 
HETATM   28  C   UNL     1       3.166  38.130  58.238  1.00  0.00     0.014 C 
ENDBRANCH  24  27
ENDBRANCH  21  23
ENDBRANCH   1  21
BRANCH   2  29
HETATM   29  C   UNL     1       4.191  33.414  58.314  1.00  0.00     0.060 A 
HETATM   30  C   UNL     1       3.489  32.384  57.675  1.00  0.00     0.030 A 
HETATM   31  C   UNL     1       3.211  32.451  56.306  1.00  0.00     0.002 A 
HETATM   32  C   UNL     1       3.641  33.543  55.557  1.00  0.00     0.000 A 
HETATM   33  C   UNL     1       4.358  34.565  56.172  1.00  0.00     0.002 A 
HETATM   34  C   UNL     1       4.638  34.497  57.539  1.00  0.00     0.030 A 
ENDBRANCH   2  29
TORSDOF 4
ENDMDL
MODEL 6
REMARK VINA RESULT:      -8.0      6.211      9.809
REMARK  4 active torsions:
REMARK  status: ('A' for Active; 'I' for Inactive)
REMARK    1  A    between atoms: C_2  and  C_3 
REMARK       I    between atoms: C_3  and  N_4 
REMARK    2  A    between atoms: N_4  and  N_5 
REMARK    3  A    between atoms: N_5  and  C_6 
REMARK    4  A    between atoms: N_7  and  C_8 
ROOT
HETATM    1  C   UNL     1       6.497  31.070  58.519  1.00  0.00     0.729 C 
HETATM    2  N   UNL     1       5.312  31.530  57.945  1.00  0.00    -0.108 N 
HETATM    3  C   UNL     1       4.657  32.611  58.523  1.00  0.00     0.276 C 
HETATM    4  O   UNL     1       3.879  33.357  57.931  1.00  0.00    -0.266 OA
HETATM    5  C   UNL     1       4.943  32.857  59.968  1.00  0.00     0.050 C 
HETATM    6  C   UNL     1       6.072  32.291  60.434  1.00  0.00     0.099 C 
HETATM    7  C   UNL     1       6.540  32.640  61.802  1.00  0.00     0.000 A 
HETATM    8  C   UNL     1       5.666  33.247  62.714  1.00  0.00    -0.044 A 
HETATM    9  C   UNL     1       6.104  33.578  64.006  1.00  0.00     0.008 A 
HETATM   10  C   UNL     1       7.420  33.327  64.388  1.00  0.00     0.001 A 
HETATM   11  C   UNL     1       8.300  32.735  63.489  1.00  0.00     0.001 A 
HETATM   12  C   UNL     1       7.862  32.393  62.207  1.00  0.00     0.014 A 
HETATM   13  C   UNL     1       4.232  33.463  62.321  1.00  0.00     0.054 C 
HETATM   14  C   UNL     1       4.025  33.776  60.802  1.00  0.00    -0.002 C 
HETATM   15  C   UNL     1       4.394  35.254  60.489  1.00  0.00     0.015 C 
HETATM   16  C   UNL     1       3.466  36.286  61.134  1.00  0.00     0.001 C 
HETATM   17  C   UNL     1       1.998  36.004  60.838  1.00  0.00     0.000 C 
HETATM   18  C   UNL     1       1.602  34.580  61.214  1.00  0.00     0.001 C 
HETATM   19  C   UNL     1       2.504  33.552  60.525  1.00  0.00     0.015 C 
HETATM   20  N   UNL     1       6.874  31.453  59.709  1.00  0.00    -0.061 NA
ENDROOT
BRANCH   1  21
HETATM   21  N   UNL     1       7.359  30.245  57.811  1.00  0.00    -0.127 N 
HETATM   22  H   UNL     1       7.412  30.328  56.798  1.00  0.00     0.206 HD
BRANCH  21  23
HETATM   23  N   UNL     1       7.424  28.907  58.257  1.00  0.00    -0.256 N 
HETATM   24  C   UNL     1       7.459  27.947  57.266  1.00  0.00     0.236 C 
HETATM   25  O   UNL     1       7.659  28.227  56.083  1.00  0.00    -0.272 OA
HETATM   26  H   UNL     1       6.903  28.753  59.119  1.00  0.00     0.190 HD
BRANCH  24  27
HETATM   27  C   UNL     1       7.347  26.515  57.748  1.00  0.00     0.100 C 
HETATM   28  C   UNL     1       8.430  25.593  57.217  1.00  0.00     0.014 C 
ENDBRANCH  24  27
ENDBRANCH  21  23
ENDBRANCH   1  21
BRANCH   2  29
HETATM   29  C   UNL     1       4.847  31.013  56.691  1.00  0.00     0.060 A 
HETATM   30  C   UNL     1       4.890  31.772  55.514  1.00  0.00     0.030 A 
HETATM   31  C   UNL     1       4.434  31.241  54.304  1.00  0.00     0.002 A 
HETATM   32  C   UNL     1       3.920  29.948  54.256  1.00  0.00     0.000 A 
HETATM   33  C   UNL     1       3.851  29.187  55.419  1.00  0.00     0.002 A 
HETATM   34  C   UNL     1       4.304  29.719  56.629  1.00  0.00     0.030 A 
ENDBRANCH   2  29
TORSDOF 4
ENDMDL
MODEL 7
REMARK VINA RESULT:      -8.0      2.007      8.159
REMARK  4 active torsions:
REMARK  status: ('A' for Active; 'I' for Inactive)
REMARK    1  A    between atoms: C_2  and  C_3 
REMARK       I    between atoms: C_3  and  N_4 
REMARK    2  A    between atoms: N_4  and  N_5 
REMARK    3  A    between atoms: N_5  and  C_6 
REMARK    4  A    between atoms: N_7  and  C_8 
ROOT
HETATM    1  C   UNL     1       5.309  28.693  52.791  1.00  0.00     0.729 C 
HETATM    2  N   UNL     1       5.174  27.593  51.945  1.00  0.00    -0.108 N 
HETATM    3  C   UNL     1       4.540  27.757  50.719  1.00  0.00     0.276 C 
HETATM    4  O   UNL     1       4.706  27.030  49.741  1.00  0.00    -0.266 OA
HETATM    5  C   UNL     1       3.597  28.910  50.617  1.00  0.00     0.050 C 
HETATM    6  C   UNL     1       3.766  29.874  51.541  1.00  0.00     0.099 C 
HETATM    7  C   UNL     1       3.008  31.146  51.402  1.00  0.00     0.000 A 
HETATM    8  C   UNL     1       1.893  31.214  50.556  1.00  0.00    -0.044 A 
HETATM    9  C   UNL     1       1.174  32.413  50.422  1.00  0.00     0.008 A 
HETATM   10  C   UNL     1       1.577  33.554  51.112  1.00  0.00     0.001 A 
HETATM   11  C   UNL     1       2.688  33.502  51.946  1.00  0.00     0.001 A 
HETATM   12  C   UNL     1       3.396  32.307  52.091  1.00  0.00     0.014 A 
HETATM   13  C   UNL     1       1.425  29.968  49.859  1.00  0.00     0.054 C 
HETATM   14  C   UNL     1       2.577  28.987  49.460  1.00  0.00    -0.002 C 
HETATM   15  C   UNL     1       3.315  29.492  48.188  1.00  0.00     0.015 C 
HETATM   16  C   UNL     1       2.461  29.480  46.918  1.00  0.00     0.001 C 
HETATM   17  C   UNL     1       1.803  28.125  46.680  1.00  0.00     0.000 C 
HETATM   18  C   UNL     1       1.010  27.654  47.893  1.00  0.00     0.001 C 
HETATM   19  C   UNL     1       1.885  27.622  49.150  1.00  0.00     0.015 C 
HETATM   20  N   UNL     1       4.647  29.799  52.585  1.00  0.00    -0.061 NA
ENDROOT
BRANCH   1  21
HETATM   21  N   UNL     1       6.214  28.676  53.843  1.00  0.00    -0.127 N 
HETATM   22  H   UNL     1       7.145  28.291  53.697  1.00  0.00     0.206 HD
BRANCH  21  23
HETATM   23  N   UNL     1       5.674  28.345  55.104  1.00  0.00    -0.256 N 
HETATM   24  C   UNL     1       6.258  27.268  55.741  1.00  0.00     0.236 C 
HETATM   25  O   UNL     1       7.320  26.774  55.362  1.00  0.00    -0.272 OA
HETATM   26  H   UNL     1       4.669  28.504  55.157  1.00  0.00     0.190 HD
BRANCH  24  27
HETATM   27  C   UNL     1       5.561  26.807  57.005  1.00  0.00     0.100 C 
HETATM   28  C   UNL     1       5.230  25.326  57.028  1.00  0.00     0.014 C 
ENDBRANCH  24  27
ENDBRANCH  21  23
ENDBRANCH   1  21
BRANCH   2  29
HETATM   29  C   UNL     1       5.812  26.344  52.246  1.00  0.00     0.060 A 
HETATM   30  C   UNL     1       7.133  26.074  51.863  1.00  0.00     0.030 A 
HETATM   31  C   UNL     1       7.731  24.849  52.174  1.00  0.00     0.002 A 
HETATM   32  C   UNL     1       7.014  23.874  52.862  1.00  0.00     0.000 A 
HETATM   33  C   UNL     1       5.695  24.117  53.232  1.00  0.00     0.002 A 
HETATM   34  C   UNL     1       5.095  25.340  52.918  1.00  0.00     0.030 A 
ENDBRANCH   2  29
TORSDOF 4
ENDMDL
MODEL 8
REMARK VINA RESULT:      -8.0      2.340      5.958
REMARK  4 active torsions:
REMARK  status: ('A' for Active; 'I' for Inactive)
REMARK    1  A    between atoms: C_2  and  C_3 
REMARK       I    between atoms: C_3  and  N_4 
REMARK    2  A    between atoms: N_4  and  N_5 
REMARK    3  A    between atoms: N_5  and  C_6 
REMARK    4  A    between atoms: N_7  and  C_8 
ROOT
HETATM    1  C   UNL     1       4.577  27.723  51.631  1.00  0.00     0.729 C 
HETATM    2  N   UNL     1       5.238  27.307  52.786  1.00  0.00    -0.108 N 
HETATM    3  C   UNL     1       4.993  27.973  53.981  1.00  0.00     0.276 C 
HETATM    4  O   UNL     1       5.163  27.490  55.100  1.00  0.00    -0.266 OA
HETATM    5  C   UNL     1       4.486  29.373  53.863  1.00  0.00     0.050 C 
HETATM    6  C   UNL     1       3.946  29.688  52.671  1.00  0.00     0.099 C 
HETATM    7  C   UNL     1       3.241  30.989  52.522  1.00  0.00     0.000 A 
HETATM    8  C   UNL     1       3.436  32.009  53.463  1.00  0.00    -0.044 A 
HETATM    9  C   UNL     1       2.774  33.239  53.326  1.00  0.00     0.008 A 
HETATM   10  C   UNL     1       1.895  33.450  52.265  1.00  0.00     0.001 A 
HETATM   11  C   UNL     1       1.685  32.442  51.331  1.00  0.00     0.001 A 
HETATM   12  C   UNL     1       2.355  31.222  51.458  1.00  0.00     0.014 A 
HETATM   13  C   UNL     1       4.427  31.802  54.573  1.00  0.00     0.054 C 
HETATM   14  C   UNL     1       4.522  30.324  55.078  1.00  0.00    -0.002 C 
HETATM   15  C   UNL     1       3.322  29.980  56.006  1.00  0.00     0.015 C 
HETATM   16  C   UNL     1       3.311  30.746  57.330  1.00  0.00     0.001 C 
HETATM   17  C   UNL     1       4.638  30.635  58.072  1.00  0.00     0.000 C 
HETATM   18  C   UNL     1       5.818  31.044  57.197  1.00  0.00     0.001 C 
HETATM   19  C   UNL     1       5.851  30.238  55.895  1.00  0.00     0.015 C 
HETATM   20  N   UNL     1       3.936  28.860  51.582  1.00  0.00    -0.061 NA
ENDROOT
BRANCH   1  21
HETATM   21  N   UNL     1       4.513  26.905  50.512  1.00  0.00    -0.127 N 
HETATM   22  H   UNL     1       5.373  26.630  50.043  1.00  0.00     0.206 HD
BRANCH  21  23
HETATM   23  N   UNL     1       3.460  27.185  49.614  1.00  0.00    -0.256 N 
HETATM   24  C   UNL     1       3.739  26.965  48.279  1.00  0.00     0.236 C 
HETATM   25  O   UNL     1       4.739  26.351  47.907  1.00  0.00    -0.272 OA
HETATM   26  H   UNL     1       2.890  27.976  49.909  1.00  0.00     0.190 HD
BRANCH  24  27
HETATM   27  C   UNL     1       2.674  27.435  47.310  1.00  0.00     0.100 C 
HETATM   28  C   UNL     1       1.260  27.052  47.706  1.00  0.00     0.014 C 
ENDBRANCH  24  27
ENDBRANCH  21  23
ENDBRANCH   1  21
BRANCH   2  29
HETATM   29  C   UNL     1       6.038  26.117  52.794  1.00  0.00     0.060 A 
HETATM   30  C   UNL     1       7.380  26.122  52.394  1.00  0.00     0.030 A 
HETATM   31  C   UNL     1       8.138  24.947  52.417  1.00  0.00     0.002 A 
HETATM   32  C   UNL     1       7.560  23.750  52.831  1.00  0.00     0.000 A 
HETATM   33  C   UNL     1       6.223  23.722  53.212  1.00  0.00     0.002 A 
HETATM   34  C   UNL     1       5.465  24.895  53.186  1.00  0.00     0.030 A 
ENDBRANCH   2  29
TORSDOF 4
ENDMDL
MODEL 9
REMARK VINA RESULT:      -7.9      8.906     13.169
REMARK  4 active torsions:
REMARK  status: ('A' for Active; 'I' for Inactive)
REMARK    1  A    between atoms: C_2  and  C_3 
REMARK       I    between atoms: C_3  and  N_4 
REMARK    2  A    between atoms: N_4  and  N_5 
REMARK    3  A    between atoms: N_5  and  C_6 
REMARK    4  A    between atoms: N_7  and  C_8 
ROOT
HETATM    1  C   UNL     1       5.453  32.637  61.980  1.00  0.00     0.729 C 
HETATM    2  N   UNL     1       5.092  33.792  62.672  1.00  0.00    -0.108 N 
HETATM    3  C   UNL     1       4.318  34.751  62.028  1.00  0.00     0.276 C 
HETATM    4  O   UNL     1       3.607  35.576  62.599  1.00  0.00    -0.266 OA
HETATM    5  C   UNL     1       4.377  34.750  60.536  1.00  0.00     0.050 C 
HETATM    6  C   UNL     1       4.823  33.608  59.980  1.00  0.00     0.099 C 
HETATM    7  C   UNL     1       4.732  33.443  58.505  1.00  0.00     0.000 A 
HETATM    8  C   UNL     1       4.531  34.558  57.681  1.00  0.00    -0.044 A 
HETATM    9  C   UNL     1       4.445  34.406  56.288  1.00  0.00     0.008 A 
HETATM   10  C   UNL     1       4.536  33.141  55.712  1.00  0.00     0.001 A 
HETATM   11  C   UNL     1       4.726  32.025  56.520  1.00  0.00     0.001 A 
HETATM   12  C   UNL     1       4.825  32.176  57.905  1.00  0.00     0.014 A 
HETATM   13  C   UNL     1       4.491  35.927  58.298  1.00  0.00     0.054 C 
HETATM   14  C   UNL     1       3.867  35.965  59.732  1.00  0.00    -0.002 C 
HETATM   15  C   UNL     1       2.315  35.889  59.660  1.00  0.00     0.015 C 
HETATM   16  C   UNL     1       1.654  37.110  59.016  1.00  0.00     0.001 C 
HETATM   17  C   UNL     1       2.120  38.417  59.648  1.00  0.00     0.000 C 
HETATM   18  C   UNL     1       3.639  38.540  59.654  1.00  0.00     0.001 C 
HETATM   19  C   UNL     1       4.291  37.338  60.345  1.00  0.00     0.015 C 
HETATM   20  N   UNL     1       5.303  32.539  60.686  1.00  0.00    -0.061 NA
ENDROOT
BRANCH   1  21
HETATM   21  N   UNL     1       5.914  31.515  62.656  1.00  0.00    -0.127 N 
HETATM   22  H   UNL     1       5.981  31.536  63.672  1.00  0.00     0.206 HD
BRANCH  21  23
HETATM   23  N   UNL     1       6.993  30.840  62.047  1.00  0.00    -0.256 N 
HETATM   24  C   UNL     1       8.249  31.333  62.338  1.00  0.00     0.236 C 
HETATM   25  O   UNL     1       8.445  32.147  63.242  1.00  0.00    -0.272 OA
HETATM   26  H   UNL     1       6.767  30.495  61.115  1.00  0.00     0.190 HD
BRANCH  24  27
HETATM   27  C   UNL     1       9.385  30.721  61.544  1.00  0.00     0.100 C 
HETATM   28  C   UNL     1       9.591  31.341  60.175  1.00  0.00     0.014 C 
ENDBRANCH  24  27
ENDBRANCH  21  23
ENDBRANCH   1  21
BRANCH   2  29
HETATM   29  C   UNL     1       5.370  33.935  64.072  1.00  0.00     0.060 A 
HETATM   30  C   UNL     1       6.661  34.193  64.549  1.00  0.00     0.030 A 
HETATM   31  C   UNL     1       6.902  34.333  65.920  1.00  0.00     0.002 A 
HETATM   32  C   UNL     1       5.857  34.206  66.831  1.00  0.00     0.000 A 
HETATM   33  C   UNL     1       4.571  33.929  66.376  1.00  0.00     0.002 A 
HETATM   34  C   UNL     1       4.332  33.786  65.007  1.00  0.00     0.030 A 
ENDBRANCH   2  29
TORSDOF 4
ENDMDL
MODEL 10
REMARK VINA RESULT:      -7.9      2.369      6.968
REMARK  4 active torsions:
REMARK  status: ('A' for Active; 'I' for Inactive)
REMARK    1  A    between atoms: C_2  and  C_3 
REMARK       I    between atoms: C_3  and  N_4 
REMARK    2  A    between atoms: N_4  and  N_5 
REMARK    3  A    between atoms: N_5  and  C_6 
REMARK    4  A    between atoms: N_7  and  C_8 
ROOT
HETATM    1  C   UNL     1       4.627  27.873  53.556  1.00  0.00     0.729 C 
HETATM    2  N   UNL     1       4.636  29.229  53.879  1.00  0.00    -0.108 N 
HETATM    3  C   UNL     1       4.399  30.163  52.877  1.00  0.00     0.276 C 
HETATM    4  O   UNL     1       3.981  31.304  53.067  1.00  0.00    -0.266 OA
HETATM    5  C   UNL     1       4.684  29.717  51.481  1.00  0.00     0.050 C 
HETATM    6  C   UNL     1       4.737  28.383  51.305  1.00  0.00     0.099 C 
HETATM    7  C   UNL     1       4.819  27.843  49.922  1.00  0.00     0.000 A 
HETATM    8  C   UNL     1       5.191  28.676  48.859  1.00  0.00    -0.044 A 
HETATM    9  C   UNL     1       5.270  28.170  47.552  1.00  0.00     0.008 A 
HETATM   10  C   UNL     1       4.956  26.837  47.294  1.00  0.00     0.001 A 
HETATM   11  C   UNL     1       4.575  26.002  48.339  1.00  0.00     0.001 A 
HETATM   12  C   UNL     1       4.509  26.501  49.642  1.00  0.00     0.014 A 
HETATM   13  C   UNL     1       5.586  30.097  49.146  1.00  0.00     0.054 C 
HETATM   14  C   UNL     1       4.810  30.748  50.339  1.00  0.00    -0.002 C 
HETATM   15  C   UNL     1       3.380  31.173  49.900  1.00  0.00     0.015 C 
HETATM   16  C   UNL     1       3.347  32.305  48.871  1.00  0.00     0.001 C 
HETATM   17  C   UNL     1       4.175  33.507  49.311  1.00  0.00     0.000 C 
HETATM   18  C   UNL     1       5.604  33.117  49.670  1.00  0.00     0.001 C 
HETATM   19  C   UNL     1       5.629  32.018  50.737  1.00  0.00     0.015 C 
HETATM   20  N   UNL     1       4.654  27.465  52.316  1.00  0.00    -0.061 NA
ENDROOT
BRANCH   1  21
HETATM   21  N   UNL     1       4.512  26.906  54.544  1.00  0.00    -0.127 N 
HETATM   22  H   UNL     1       4.738  27.145  55.508  1.00  0.00     0.206 HD
BRANCH  21  23
HETATM   23  N   UNL     1       4.945  25.612  54.182  1.00  0.00    -0.256 N 
HETATM   24  C   UNL     1       6.182  25.238  54.668  1.00  0.00     0.236 C 
HETATM   25  O   UNL     1       6.768  25.877  55.543  1.00  0.00    -0.272 OA
HETATM   26  H   UNL     1       4.645  25.343  53.246  1.00  0.00     0.190 HD
BRANCH  24  27
HETATM   27  C   UNL     1       6.718  23.927  54.132  1.00  0.00     0.100 C 
HETATM   28  C   UNL     1       7.499  23.112  55.146  1.00  0.00     0.014 C 
ENDBRANCH  24  27
ENDBRANCH  21  23
ENDBRANCH   1  21
BRANCH   2  29
HETATM   29  C   UNL     1       4.727  29.666  55.242  1.00  0.00     0.060 A 
HETATM   30  C   UNL     1       5.958  29.793  55.900  1.00  0.00     0.030 A 
HETATM   31  C   UNL     1       6.017  30.226  57.228  1.00  0.00     0.002 A 
HETATM   32  C   UNL     1       4.846  30.529  57.918  1.00  0.00     0.000 A 
HETATM   33  C   UNL     1       3.614  30.389  57.287  1.00  0.00     0.002 A 
HETATM   34  C   UNL     1       3.555  29.953  55.961  1.00  0.00     0.030 A 
ENDBRANCH   2  29
TORSDOF 4
ENDMDL
