MODEL 1
REMARK VINA RESULT:      -9.1      0.000      0.000
REMARK  3 active torsions:
REMARK  status: ('A' for Active; 'I' for Inactive)
REMARK    1  A    between atoms: C_8  and  C_9 
REMARK    2  A    between atoms: C_10  and  O_11 
REMARK    3  A    between atoms: C_24  and  N_25 
ROOT
HETATM    1  C   UNL     1       8.726  28.430  55.970  1.00  0.00     0.070 C 
HETATM    2  C   UNL     1       7.338  28.829  55.646  1.00  0.00     0.035 A 
HETATM    3  N   UNL     1       6.675  29.812  56.344  1.00  0.00    -0.280 N 
HETATM    4  H   UNL     1       7.015  30.361  57.127  1.00  0.00     0.189 HD
HETATM    5  N   UNL     1       5.430  30.059  55.892  1.00  0.00    -0.148 NA
HETATM    6  C   UNL     1       5.298  29.164  54.920  1.00  0.00     0.199 A 
HETATM    7  C   UNL     1       6.431  28.370  54.710  1.00  0.00     0.034 A 
HETATM    8  C   UNL     1       6.442  27.346  53.631  1.00  0.00     0.108 A 
HETATM    9  C   UNL     1       5.141  27.374  52.832  1.00  0.00     0.081 A 
HETATM   10  C   UNL     1       5.071  26.523  51.690  1.00  0.00     0.100 C 
HETATM   11  N   UNL     1       5.036  25.861  50.737  1.00  0.00    -0.191 NA
HETATM   12  C   UNL     1       4.103  28.193  53.143  1.00  0.00     0.140 A 
HETATM   13  O   UNL     1       4.156  29.093  54.215  1.00  0.00    -0.277 OA
ENDROOT
BRANCH   8  14
HETATM   14  C   UNL     1       6.738  25.975  54.234  1.00  0.00    -0.010 A 
HETATM   15  C   UNL     1       6.137  25.457  55.394  1.00  0.00     0.076 A 
HETATM   16  C   UNL     1       6.436  24.166  55.847  1.00  0.00     0.049 A 
HETATM   17  C   UNL     1       7.277  23.320  55.109  1.00  0.00    -0.023 A 
HETATM   18  C   UNL     1       7.851  23.796  53.913  1.00  0.00    -0.025 A 
HETATM   19  C   UNL     1       7.547  22.007  55.527  1.00  0.00     0.012 A 
HETATM   20  C   UNL     1       7.588  25.115  53.503  1.00  0.00     0.023 A 
HETATM   21  C   UNL     1       8.664  22.939  53.153  1.00  0.00     0.012 A 
HETATM   22  C   UNL     1       8.912  21.631  53.572  1.00  0.00     0.001 A 
HETATM   23  C   UNL     1       8.358  21.166  54.762  1.00  0.00     0.001 A 
BRANCH  15  24
HETATM   24  O   UNL     1       5.305  26.252  56.135  1.00  0.00    -0.355 OA
HETATM   25  C   UNL     1       4.872  25.620  57.338  1.00  0.00     0.210 C 
ENDBRANCH  15  24
ENDBRANCH   8  14
BRANCH  12  26
HETATM   26  N   UNL     1       2.910  28.261  52.451  1.00  0.00    -0.282 NA
HETATM   27  H   UNL     1       2.068  28.253  53.021  1.00  0.00     0.126 HD
HETATM   28  H   UNL     1       2.882  27.589  51.686  1.00  0.00     0.126 HD
ENDBRANCH  12  26
TORSDOF 3
ENDMDL
MODEL 2
REMARK VINA RESULT:      -9.0      2.241      3.816
REMARK  3 active torsions:
REMARK  status: ('A' for Active; 'I' for Inactive)
REMARK    1  A    between atoms: C_8  and  C_9 
REMARK    2  A    between atoms: C_10  and  O_11 
REMARK    3  A    between atoms: C_24  and  N_25 
ROOT
HETATM    1  C   UNL     1      10.313  29.438  55.960  1.00  0.00     0.070 C 
HETATM    2  C   UNL     1       9.255  29.753  56.946  1.00  0.00     0.035 A 
HETATM    3  N   UNL     1       9.544  30.178  58.223  1.00  0.00    -0.280 N 
HETATM    4  H   UNL     1      10.458  30.318  58.643  1.00  0.00     0.189 HD
HETATM    5  N   UNL     1       8.456  30.443  58.971  1.00  0.00    -0.148 NA
HETATM    6  C   UNL     1       7.463  30.121  58.151  1.00  0.00     0.199 A 
HETATM    7  C   UNL     1       7.876  29.687  56.886  1.00  0.00     0.034 A 
HETATM    8  C   UNL     1       6.873  29.325  55.850  1.00  0.00     0.108 A 
HETATM    9  C   UNL     1       5.451  29.561  56.354  1.00  0.00     0.081 A 
HETATM   10  C   UNL     1       4.396  29.368  55.414  1.00  0.00     0.100 C 
HETATM   11  N   UNL     1       3.545  29.252  54.633  1.00  0.00    -0.191 NA
HETATM   12  C   UNL     1       5.176  29.981  57.617  1.00  0.00     0.140 A 
HETATM   13  O   UNL     1       6.185  30.248  58.551  1.00  0.00    -0.277 OA
ENDROOT
BRANCH   8  14
HETATM   14  C   UNL     1       7.109  27.887  55.394  1.00  0.00    -0.010 A 
HETATM   15  C   UNL     1       7.228  27.474  54.057  1.00  0.00     0.076 A 
HETATM   16  C   UNL     1       7.493  26.137  53.734  1.00  0.00     0.049 A 
HETATM   17  C   UNL     1       7.733  25.188  54.738  1.00  0.00    -0.023 A 
HETATM   18  C   UNL     1       7.673  25.587  56.088  1.00  0.00    -0.025 A 
HETATM   19  C   UNL     1       8.047  23.855  54.428  1.00  0.00     0.012 A 
HETATM   20  C   UNL     1       7.348  26.920  56.397  1.00  0.00     0.023 A 
HETATM   21  C   UNL     1       7.948  24.648  57.095  1.00  0.00     0.012 A 
HETATM   22  C   UNL     1       8.274  23.329  56.772  1.00  0.00     0.001 A 
HETATM   23  C   UNL     1       8.318  22.931  55.439  1.00  0.00     0.001 A 
BRANCH  15  24
HETATM   24  O   UNL     1       7.008  28.376  53.050  1.00  0.00    -0.355 OA
HETATM   25  C   UNL     1       5.887  28.030  52.240  1.00  0.00     0.210 C 
ENDBRANCH  15  24
ENDBRANCH   8  14
BRANCH  12  26
HETATM   26  N   UNL     1       3.912  30.214  58.119  1.00  0.00    -0.282 NA
HETATM   27  H   UNL     1       3.305  30.788  57.539  1.00  0.00     0.126 HD
HETATM   28  H   UNL     1       3.945  30.522  59.089  1.00  0.00     0.126 HD
ENDBRANCH  12  26
TORSDOF 3
ENDMDL
MODEL 3
REMARK VINA RESULT:      -8.8     10.047     13.301
REMARK  3 active torsions:
REMARK  status: ('A' for Active; 'I' for Inactive)
REMARK    1  A    between atoms: C_8  and  C_9 
REMARK    2  A    between atoms: C_10  and  O_11 
REMARK    3  A    between atoms: C_24  and  N_25 
ROOT
HETATM    1  C   UNL     1       7.585  33.134  64.194  1.00  0.00     0.070 C 
HETATM    2  C   UNL     1       7.090  32.912  62.817  1.00  0.00     0.035 A 
HETATM    3  N   UNL     1       7.863  32.316  61.846  1.00  0.00    -0.280 N 
HETATM    4  H   UNL     1       8.815  31.974  61.927  1.00  0.00     0.189 HD
HETATM    5  N   UNL     1       7.238  32.174  60.661  1.00  0.00    -0.148 NA
HETATM    6  C   UNL     1       6.063  32.749  60.889  1.00  0.00     0.199 A 
HETATM    7  C   UNL     1       5.898  33.227  62.193  1.00  0.00     0.034 A 
HETATM    8  C   UNL     1       4.619  33.865  62.604  1.00  0.00     0.108 A 
HETATM    9  C   UNL     1       3.599  33.835  61.469  1.00  0.00     0.081 A 
HETATM   10  C   UNL     1       2.287  34.306  61.772  1.00  0.00     0.100 C 
HETATM   11  N   UNL     1       1.210  34.649  62.036  1.00  0.00    -0.191 NA
HETATM   12  C   UNL     1       3.884  33.345  60.234  1.00  0.00     0.140 A 
HETATM   13  O   UNL     1       5.139  32.810  59.914  1.00  0.00    -0.277 OA
ENDROOT
BRANCH   8  14
HETATM   14  C   UNL     1       4.896  35.277  63.115  1.00  0.00    -0.010 A 
HETATM   15  C   UNL     1       4.674  35.716  64.431  1.00  0.00     0.076 A 
HETATM   16  C   UNL     1       5.004  37.020  64.822  1.00  0.00     0.049 A 
HETATM   17  C   UNL     1       5.644  37.898  63.936  1.00  0.00    -0.023 A 
HETATM   18  C   UNL     1       5.928  37.464  62.626  1.00  0.00    -0.025 A 
HETATM   19  C   UNL     1       6.023  39.192  64.330  1.00  0.00     0.012 A 
HETATM   20  C   UNL     1       5.537  36.173  62.230  1.00  0.00     0.023 A 
HETATM   21  C   UNL     1       6.601  38.328  61.747  1.00  0.00     0.012 A 
HETATM   22  C   UNL     1       6.986  39.606  62.156  1.00  0.00     0.001 A 
HETATM   23  C   UNL     1       6.693  40.040  63.446  1.00  0.00     0.001 A 
BRANCH  15  24
HETATM   24  O   UNL     1       4.058  34.883  65.326  1.00  0.00    -0.355 OA
HETATM   25  C   UNL     1       3.484  35.588  66.425  1.00  0.00     0.210 C 
ENDBRANCH  15  24
ENDBRANCH   8  14
BRANCH  12  26
HETATM   26  N   UNL     1       2.998  33.290  59.177  1.00  0.00    -0.282 NA
HETATM   27  H   UNL     1       3.130  32.516  58.530  1.00  0.00     0.126 HD
HETATM   28  H   UNL     1       2.913  34.191  58.711  1.00  0.00     0.126 HD
ENDBRANCH  12  26
TORSDOF 3
ENDMDL
MODEL 4
REMARK VINA RESULT:      -8.5     10.776     14.156
REMARK  3 active torsions:
REMARK  status: ('A' for Active; 'I' for Inactive)
REMARK    1  A    between atoms: C_8  and  C_9 
REMARK    2  A    between atoms: C_10  and  O_11 
REMARK    3  A    between atoms: C_24  and  N_25 
ROOT
HETATM    1  C   UNL     1       3.531  35.530  66.475  1.00  0.00     0.070 C 
HETATM    2  C   UNL     1       4.842  34.880  66.254  1.00  0.00     0.035 A 
HETATM    3  N   UNL     1       5.774  34.744  67.258  1.00  0.00    -0.280 N 
HETATM    4  H   UNL     1       5.703  35.053  68.222  1.00  0.00     0.189 HD
HETATM    5  N   UNL     1       6.897  34.104  66.879  1.00  0.00    -0.148 NA
HETATM    6  C   UNL     1       6.677  33.886  65.588  1.00  0.00     0.199 A 
HETATM    7  C   UNL     1       5.434  34.336  65.130  1.00  0.00     0.034 A 
HETATM    8  C   UNL     1       5.035  34.130  63.712  1.00  0.00     0.108 A 
HETATM    9  C   UNL     1       6.102  33.348  62.948  1.00  0.00     0.081 A 
HETATM   10  C   UNL     1       5.788  32.977  61.607  1.00  0.00     0.100 C 
HETATM   11  N   UNL     1       5.510  32.639  60.532  1.00  0.00    -0.191 NA
HETATM   12  C   UNL     1       7.281  32.971  63.507  1.00  0.00     0.140 A 
HETATM   13  O   UNL     1       7.601  33.256  64.841  1.00  0.00    -0.277 OA
ENDROOT
BRANCH   8  14
HETATM   14  C   UNL     1       4.716  35.478  63.072  1.00  0.00    -0.010 A 
HETATM   15  C   UNL     1       3.442  35.886  62.643  1.00  0.00     0.076 A 
HETATM   16  C   UNL     1       3.234  37.165  62.110  1.00  0.00     0.049 A 
HETATM   17  C   UNL     1       4.273  38.106  62.067  1.00  0.00    -0.023 A 
HETATM   18  C   UNL     1       5.549  37.740  62.542  1.00  0.00    -0.025 A 
HETATM   19  C   UNL     1       4.067  39.406  61.579  1.00  0.00     0.012 A 
HETATM   20  C   UNL     1       5.756  36.434  63.020  1.00  0.00     0.023 A 
HETATM   21  C   UNL     1       6.583  38.691  62.535  1.00  0.00     0.012 A 
HETATM   22  C   UNL     1       6.360  39.985  62.062  1.00  0.00     0.001 A 
HETATM   23  C   UNL     1       5.103  40.341  61.579  1.00  0.00     0.001 A 
BRANCH  15  24
HETATM   24  O   UNL     1       2.402  34.996  62.676  1.00  0.00    -0.355 OA
HETATM   25  C   UNL     1       2.124  34.432  61.397  1.00  0.00     0.210 C 
ENDBRANCH  15  24
ENDBRANCH   8  14
BRANCH  12  26
HETATM   26  N   UNL     1       8.274  32.260  62.863  1.00  0.00    -0.282 NA
HETATM   27  H   UNL     1       8.933  31.775  63.468  1.00  0.00     0.126 HD
HETATM   28  H   UNL     1       8.729  32.819  62.143  1.00  0.00     0.126 HD
ENDBRANCH  12  26
TORSDOF 3
ENDMDL
MODEL 5
REMARK VINA RESULT:      -8.0      9.962     12.645
REMARK  3 active torsions:
REMARK  status: ('A' for Active; 'I' for Inactive)
REMARK    1  A    between atoms: C_8  and  C_9 
REMARK    2  A    between atoms: C_10  and  O_11 
REMARK    3  A    between atoms: C_24  and  N_25 
ROOT
HETATM    1  C   UNL     1       6.130  37.999  60.989  1.00  0.00     0.070 C 
HETATM    2  C   UNL     1       5.858  37.938  62.442  1.00  0.00     0.035 A 
HETATM    3  N   UNL     1       6.441  38.807  63.336  1.00  0.00    -0.280 N 
HETATM    4  H   UNL     1       7.098  39.556  63.142  1.00  0.00     0.189 HD
HETATM    5  N   UNL     1       6.056  38.618  64.613  1.00  0.00    -0.148 NA
HETATM    6  C   UNL     1       5.252  37.566  64.515  1.00  0.00     0.199 A 
HETATM    7  C   UNL     1       5.082  37.091  63.210  1.00  0.00     0.034 A 
HETATM    8  C   UNL     1       4.182  35.938  62.941  1.00  0.00     0.108 A 
HETATM    9  C   UNL     1       3.494  35.467  64.221  1.00  0.00     0.081 A 
HETATM   10  C   UNL     1       2.510  34.443  64.081  1.00  0.00     0.100 C 
HETATM   11  N   UNL     1       1.680  33.641  63.956  1.00  0.00    -0.191 NA
HETATM   12  C   UNL     1       3.751  36.009  65.439  1.00  0.00     0.140 A 
HETATM   13  O   UNL     1       4.659  37.062  65.611  1.00  0.00    -0.277 OA
ENDROOT
BRANCH   8  14
HETATM   14  C   UNL     1       4.969  34.828  62.249  1.00  0.00    -0.010 A 
HETATM   15  C   UNL     1       4.784  34.417  60.918  1.00  0.00     0.076 A 
HETATM   16  C   UNL     1       5.589  33.421  60.351  1.00  0.00     0.049 A 
HETATM   17  C   UNL     1       6.659  32.865  61.067  1.00  0.00    -0.023 A 
HETATM   18  C   UNL     1       6.901  33.298  62.386  1.00  0.00    -0.025 A 
HETATM   19  C   UNL     1       7.503  31.899  60.494  1.00  0.00     0.012 A 
HETATM   20  C   UNL     1       6.048  34.257  62.961  1.00  0.00     0.023 A 
HETATM   21  C   UNL     1       7.994  32.771  63.093  1.00  0.00     0.012 A 
HETATM   22  C   UNL     1       8.834  31.823  62.506  1.00  0.00     0.001 A 
HETATM   23  C   UNL     1       8.585  31.383  61.208  1.00  0.00     0.001 A 
BRANCH  15  24
HETATM   24  O   UNL     1       3.754  34.944  60.187  1.00  0.00    -0.355 OA
HETATM   25  C   UNL     1       2.657  34.042  60.059  1.00  0.00     0.210 C 
ENDBRANCH  15  24
ENDBRANCH   8  14
BRANCH  12  26
HETATM   26  N   UNL     1       3.154  35.625  66.622  1.00  0.00    -0.282 NA
HETATM   27  H   UNL     1       3.133  36.329  67.356  1.00  0.00     0.126 HD
HETATM   28  H   UNL     1       3.504  34.724  66.944  1.00  0.00     0.126 HD
ENDBRANCH  12  26
TORSDOF 3
ENDMDL
MODEL 6
REMARK VINA RESULT:      -8.0      5.684      8.983
REMARK  3 active torsions:
REMARK  status: ('A' for Active; 'I' for Inactive)
REMARK    1  A    between atoms: C_8  and  C_9 
REMARK    2  A    between atoms: C_10  and  O_11 
REMARK    3  A    between atoms: C_24  and  N_25 
ROOT
HETATM    1  C   UNL     1       4.897  34.700  57.316  1.00  0.00     0.070 C 
HETATM    2  C   UNL     1       4.280  33.376  57.076  1.00  0.00     0.035 A 
HETATM    3  N   UNL     1       2.996  33.240  56.600  1.00  0.00    -0.280 N 
HETATM    4  H   UNL     1       2.334  33.974  56.369  1.00  0.00     0.189 HD
HETATM    5  N   UNL     1       2.613  31.961  56.418  1.00  0.00    -0.148 NA
HETATM    6  C   UNL     1       3.672  31.284  56.845  1.00  0.00     0.199 A 
HETATM    7  C   UNL     1       4.739  32.087  57.266  1.00  0.00     0.034 A 
HETATM    8  C   UNL     1       6.005  31.467  57.740  1.00  0.00     0.108 A 
HETATM    9  C   UNL     1       5.951  29.945  57.621  1.00  0.00     0.081 A 
HETATM   10  C   UNL     1       7.149  29.234  57.928  1.00  0.00     0.100 C 
HETATM   11  N   UNL     1       8.139  28.665  58.137  1.00  0.00    -0.191 NA
HETATM   12  C   UNL     1       4.845  29.277  57.201  1.00  0.00     0.140 A 
HETATM   13  O   UNL     1       3.670  29.940  56.824  1.00  0.00    -0.277 OA
ENDROOT
BRANCH   8  14
HETATM   14  C   UNL     1       6.303  31.940  59.160  1.00  0.00    -0.010 A 
HETATM   15  C   UNL     1       7.576  32.287  59.644  1.00  0.00     0.076 A 
HETATM   16  C   UNL     1       7.748  32.758  60.951  1.00  0.00     0.049 A 
HETATM   17  C   UNL     1       6.645  32.981  61.788  1.00  0.00    -0.023 A 
HETATM   18  C   UNL     1       5.351  32.694  61.308  1.00  0.00    -0.025 A 
HETATM   19  C   UNL     1       6.799  33.499  63.084  1.00  0.00     0.012 A 
HETATM   20  C   UNL     1       5.200  32.165  60.014  1.00  0.00     0.023 A 
HETATM   21  C   UNL     1       4.241  32.950  62.130  1.00  0.00     0.012 A 
HETATM   22  C   UNL     1       4.408  33.479  63.411  1.00  0.00     0.001 A 
HETATM   23  C   UNL     1       5.686  33.749  63.890  1.00  0.00     0.001 A 
BRANCH  15  24
HETATM   24  O   UNL     1       8.675  32.089  58.852  1.00  0.00    -0.355 OA
HETATM   25  C   UNL     1       9.826  31.702  59.599  1.00  0.00     0.210 C 
ENDBRANCH  15  24
ENDBRANCH   8  14
BRANCH  12  26
HETATM   26  N   UNL     1       4.747  27.906  57.071  1.00  0.00    -0.282 NA
HETATM   27  H   UNL     1       5.234  27.502  56.275  1.00  0.00     0.126 HD
HETATM   28  H   UNL     1       3.782  27.590  57.151  1.00  0.00     0.126 HD
ENDBRANCH  12  26
TORSDOF 3
ENDMDL
MODEL 7
REMARK VINA RESULT:      -7.9     10.090     12.857
REMARK  3 active torsions:
REMARK  status: ('A' for Active; 'I' for Inactive)
REMARK    1  A    between atoms: C_8  and  C_9 
REMARK    2  A    between atoms: C_10  and  O_11 
REMARK    3  A    between atoms: C_24  and  N_25 
ROOT
HETATM    1  C   UNL     1       6.540  37.943  61.796  1.00  0.00     0.070 C 
HETATM    2  C   UNL     1       5.109  37.708  61.498  1.00  0.00     0.035 A 
HETATM    3  N   UNL     1       4.208  38.740  61.367  1.00  0.00    -0.280 N 
HETATM    4  H   UNL     1       4.381  39.736  61.455  1.00  0.00     0.189 HD
HETATM    5  N   UNL     1       2.956  38.338  61.070  1.00  0.00    -0.148 NA
HETATM    6  C   UNL     1       3.075  37.016  61.072  1.00  0.00     0.199 A 
HETATM    7  C   UNL     1       4.370  36.553  61.328  1.00  0.00     0.034 A 
HETATM    8  C   UNL     1       4.661  35.095  61.329  1.00  0.00     0.108 A 
HETATM    9  C   UNL     1       3.419  34.285  60.961  1.00  0.00     0.081 A 
HETATM   10  C   UNL     1       3.593  32.878  60.806  1.00  0.00     0.100 C 
HETATM   11  N   UNL     1       3.749  31.740  60.639  1.00  0.00    -0.191 NA
HETATM   12  C   UNL     1       2.206  34.855  60.741  1.00  0.00     0.140 A 
HETATM   13  O   UNL     1       2.007  36.240  60.816  1.00  0.00    -0.277 OA
ENDROOT
BRANCH   8  14
HETATM   14  C   UNL     1       5.252  34.694  62.678  1.00  0.00    -0.010 A 
HETATM   15  C   UNL     1       6.444  33.971  62.853  1.00  0.00     0.076 A 
HETATM   16  C   UNL     1       6.936  33.690  64.134  1.00  0.00     0.049 A 
HETATM   17  C   UNL     1       6.301  34.195  65.278  1.00  0.00    -0.023 A 
HETATM   18  C   UNL     1       5.133  34.970  65.127  1.00  0.00    -0.025 A 
HETATM   19  C   UNL     1       6.810  33.961  66.565  1.00  0.00     0.012 A 
HETATM   20  C   UNL     1       4.618  35.194  63.838  1.00  0.00     0.023 A 
HETATM   21  C   UNL     1       4.514  35.508  66.267  1.00  0.00     0.012 A 
HETATM   22  C   UNL     1       5.040  35.280  67.540  1.00  0.00     0.001 A 
HETATM   23  C   UNL     1       6.184  34.502  67.690  1.00  0.00     0.001 A 
BRANCH  15  24
HETATM   24  O   UNL     1       7.095  33.468  61.759  1.00  0.00    -0.355 OA
HETATM   25  C   UNL     1       7.209  32.047  61.795  1.00  0.00     0.210 C 
ENDBRANCH  15  24
ENDBRANCH   8  14
BRANCH  12  26
HETATM   26  N   UNL     1       1.056  34.171  60.402  1.00  0.00    -0.282 NA
HETATM   27  H   UNL     1       0.727  33.495  61.086  1.00  0.00     0.126 HD
HETATM   28  H   UNL     1       1.111  33.791  59.458  1.00  0.00     0.126 HD
ENDBRANCH  12  26
TORSDOF 3
ENDMDL
MODEL 8
REMARK VINA RESULT:      -7.6      2.776      6.244
REMARK  3 active torsions:
REMARK  status: ('A' for Active; 'I' for Inactive)
REMARK    1  A    between atoms: C_8  and  C_9 
REMARK    2  A    between atoms: C_10  and  O_11 
REMARK    3  A    between atoms: C_24  and  N_25 
ROOT
HETATM    1  C   UNL     1       7.822  23.550  52.190  1.00  0.00     0.070 C 
HETATM    2  C   UNL     1       7.985  23.167  53.610  1.00  0.00     0.035 A 
HETATM    3  N   UNL     1       8.020  21.852  54.017  1.00  0.00    -0.280 N 
HETATM    4  H   UNL     1       7.938  21.019  53.444  1.00  0.00     0.189 HD
HETATM    5  N   UNL     1       8.201  21.695  55.343  1.00  0.00    -0.148 NA
HETATM    6  C   UNL     1       8.224  22.949  55.777  1.00  0.00     0.199 A 
HETATM    7  C   UNL     1       8.096  23.911  54.769  1.00  0.00     0.034 A 
HETATM    8  C   UNL     1       8.139  25.360  55.103  1.00  0.00     0.108 A 
HETATM    9  C   UNL     1       8.396  25.574  56.592  1.00  0.00     0.081 A 
HETATM   10  C   UNL     1       8.581  26.922  57.025  1.00  0.00     0.100 C 
HETATM   11  N   UNL     1       8.775  28.015  57.363  1.00  0.00    -0.191 NA
HETATM   12  C   UNL     1       8.494  24.550  57.479  1.00  0.00     0.140 A 
HETATM   13  O   UNL     1       8.386  23.209  57.086  1.00  0.00    -0.277 OA
ENDROOT
BRANCH   8  14
HETATM   14  C   UNL     1       6.856  26.031  54.619  1.00  0.00    -0.010 A 
HETATM   15  C   UNL     1       5.587  25.857  55.197  1.00  0.00     0.076 A 
HETATM   16  C   UNL     1       4.473  26.554  54.715  1.00  0.00     0.049 A 
HETATM   17  C   UNL     1       4.605  27.511  53.698  1.00  0.00    -0.023 A 
HETATM   18  C   UNL     1       5.877  27.745  53.138  1.00  0.00    -0.025 A 
HETATM   19  C   UNL     1       3.503  28.251  53.238  1.00  0.00     0.012 A 
HETATM   20  C   UNL     1       6.976  26.995  53.592  1.00  0.00     0.023 A 
HETATM   21  C   UNL     1       6.020  28.728  52.145  1.00  0.00     0.012 A 
HETATM   22  C   UNL     1       4.920  29.467  51.708  1.00  0.00     0.001 A 
HETATM   23  C   UNL     1       3.660  29.225  52.251  1.00  0.00     0.001 A 
BRANCH  15  24
HETATM   24  O   UNL     1       5.422  24.937  56.196  1.00  0.00    -0.355 OA
HETATM   25  C   UNL     1       4.810  25.493  57.358  1.00  0.00     0.210 C 
ENDBRANCH  15  24
ENDBRANCH   8  14
BRANCH  12  26
HETATM   26  N   UNL     1       8.730  24.689  58.832  1.00  0.00    -0.282 NA
HETATM   27  H   UNL     1       8.828  25.645  59.167  1.00  0.00     0.126 HD
HETATM   28  H   UNL     1       9.480  24.076  59.147  1.00  0.00     0.126 HD
ENDBRANCH  12  26
TORSDOF 3
ENDMDL
MODEL 9
REMARK VINA RESULT:      -7.6      9.046     12.734
REMARK  3 active torsions:
REMARK  status: ('A' for Active; 'I' for Inactive)
REMARK    1  A    between atoms: C_8  and  C_9 
REMARK    2  A    between atoms: C_10  and  O_11 
REMARK    3  A    between atoms: C_24  and  N_25 
ROOT
HETATM    1  C   UNL     1       1.868  34.251  63.124  1.00  0.00     0.070 C 
HETATM    2  C   UNL     1       3.188  33.857  63.665  1.00  0.00     0.035 A 
HETATM    3  N   UNL     1       3.439  33.795  65.017  1.00  0.00    -0.280 N 
HETATM    4  H   UNL     1       2.803  34.002  65.780  1.00  0.00     0.189 HD
HETATM    5  N   UNL     1       4.687  33.393  65.323  1.00  0.00    -0.148 NA
HETATM    6  C   UNL     1       5.243  33.254  64.126  1.00  0.00     0.199 A 
HETATM    7  C   UNL     1       4.382  33.523  63.055  1.00  0.00     0.034 A 
HETATM    8  C   UNL     1       4.857  33.376  61.654  1.00  0.00     0.108 A 
HETATM    9  C   UNL     1       6.293  32.859  61.610  1.00  0.00     0.081 A 
HETATM   10  C   UNL     1       6.828  32.557  60.322  1.00  0.00     0.100 C 
HETATM   11  N   UNL     1       7.242  32.272  59.276  1.00  0.00    -0.191 NA
HETATM   12  C   UNL     1       7.033  32.641  62.728  1.00  0.00     0.140 A 
HETATM   13  O   UNL     1       6.524  32.859  64.015  1.00  0.00    -0.277 OA
ENDROOT
BRANCH   8  14
HETATM   14  C   UNL     1       4.681  34.701  60.916  1.00  0.00    -0.010 A 
HETATM   15  C   UNL     1       4.028  34.856  59.682  1.00  0.00     0.076 A 
HETATM   16  C   UNL     1       3.871  36.121  59.101  1.00  0.00     0.049 A 
HETATM   17  C   UNL     1       4.285  37.279  59.775  1.00  0.00    -0.023 A 
HETATM   18  C   UNL     1       4.895  37.156  61.040  1.00  0.00    -0.025 A 
HETATM   19  C   UNL     1       4.092  38.557  59.226  1.00  0.00     0.012 A 
HETATM   20  C   UNL     1       5.098  35.875  61.583  1.00  0.00     0.023 A 
HETATM   21  C   UNL     1       5.278  38.316  61.734  1.00  0.00     0.012 A 
HETATM   22  C   UNL     1       5.065  39.580  61.183  1.00  0.00     0.001 A 
HETATM   23  C   UNL     1       4.477  39.701  59.927  1.00  0.00     0.001 A 
BRANCH  15  24
HETATM   24  O   UNL     1       3.604  33.748  58.999  1.00  0.00    -0.355 OA
HETATM   25  C   UNL     1       4.244  33.606  57.733  1.00  0.00     0.210 C 
ENDBRANCH  15  24
ENDBRANCH   8  14
BRANCH  12  26
HETATM   26  N   UNL     1       8.330  32.170  62.743  1.00  0.00    -0.282 NA
HETATM   27  H   UNL     1       9.056  32.872  62.621  1.00  0.00     0.126 HD
HETATM   28  H   UNL     1       8.444  31.366  62.130  1.00  0.00     0.126 HD
ENDBRANCH  12  26
TORSDOF 3
ENDMDL
MODEL 10
REMARK VINA RESULT:      -7.6      3.493      5.429
REMARK  3 active torsions:
REMARK  status: ('A' for Active; 'I' for Inactive)
REMARK    1  A    between atoms: C_8  and  C_9 
REMARK    2  A    between atoms: C_10  and  O_11 
REMARK    3  A    between atoms: C_24  and  N_25 
ROOT
HETATM    1  C   UNL     1       6.121  30.615  49.558  1.00  0.00     0.070 C 
HETATM    2  C   UNL     1       4.705  30.424  49.170  1.00  0.00     0.035 A 
HETATM    3  N   UNL     1       3.850  31.483  48.967  1.00  0.00    -0.280 N 
HETATM    4  H   UNL     1       4.051  32.474  49.053  1.00  0.00     0.189 HD
HETATM    5  N   UNL     1       2.608  31.118  48.593  1.00  0.00    -0.148 NA
HETATM    6  C   UNL     1       2.681  29.793  48.620  1.00  0.00     0.199 A 
HETATM    7  C   UNL     1       3.940  29.291  48.967  1.00  0.00     0.034 A 
HETATM    8  C   UNL     1       4.181  27.824  49.004  1.00  0.00     0.108 A 
HETATM    9  C   UNL     1       2.939  27.051  48.566  1.00  0.00     0.081 A 
HETATM   10  C   UNL     1       3.075  25.636  48.441  1.00  0.00     0.100 C 
HETATM   11  N   UNL     1       3.203  24.492  48.298  1.00  0.00    -0.191 NA
HETATM   12  C   UNL     1       1.763  27.657  48.259  1.00  0.00     0.140 A 
HETATM   13  O   UNL     1       1.606  29.049  48.303  1.00  0.00    -0.277 OA
ENDROOT
BRANCH   8  14
HETATM   14  C   UNL     1       4.669  27.424  50.395  1.00  0.00    -0.010 A 
HETATM   15  C   UNL     1       4.060  27.803  51.603  1.00  0.00     0.076 A 
HETATM   16  C   UNL     1       4.551  27.346  52.833  1.00  0.00     0.049 A 
HETATM   17  C   UNL     1       5.610  26.430  52.891  1.00  0.00    -0.023 A 
HETATM   18  C   UNL     1       6.204  25.991  51.690  1.00  0.00    -0.025 A 
HETATM   19  C   UNL     1       6.081  25.928  54.115  1.00  0.00     0.012 A 
HETATM   20  C   UNL     1       5.739  26.504  50.467  1.00  0.00     0.023 A 
HETATM   21  C   UNL     1       7.241  25.046  51.742  1.00  0.00     0.012 A 
HETATM   22  C   UNL     1       7.689  24.543  52.965  1.00  0.00     0.001 A 
HETATM   23  C   UNL     1       7.113  24.988  54.152  1.00  0.00     0.001 A 
BRANCH  15  24
HETATM   24  O   UNL     1       3.018  28.691  51.584  1.00  0.00    -0.355 OA
HETATM   25  C   UNL     1       3.215  29.784  52.477  1.00  0.00     0.210 C 
ENDBRANCH  15  24
ENDBRANCH   8  14
BRANCH  12  26
HETATM   26  N   UNL     1       0.616  27.007  47.854  1.00  0.00    -0.282 NA
HETATM   27  H   UNL     1      -0.253  27.352  48.254  1.00  0.00     0.126 HD
HETATM   28  H   UNL     1       0.714  25.995  47.924  1.00  0.00     0.126 HD
ENDBRANCH  12  26
TORSDOF 3
ENDMDL
