MODEL 1
REMARK VINA RESULT:      -9.0      0.000      0.000
REMARK  3 active torsions:
REMARK  status: ('A' for Active; 'I' for Inactive)
REMARK    1  A    between atoms: C_5  and  N_6 
REMARK       I    between atoms: N_6  and  C_7 
REMARK    2  A    between atoms: C_7  and  C_8 
REMARK    3  A    between atoms: C_8  and  C_9 
ROOT
HETATM    1  C   UNL     1       6.434  26.495  55.505  1.00  0.00     0.286 C 
HETATM    2  N   UNL     1       6.412  25.883  54.103  1.00  0.00    -0.056 N 
HETATM    3  H   UNL     1       6.975  26.486  53.492  1.00  0.00     0.278 HD
HETATM    4  H   UNL     1       6.946  24.991  54.151  1.00  0.00     0.278 HD
HETATM    5  C   UNL     1       5.030  25.684  53.539  1.00  0.00     0.209 C 
HETATM    6  C   UNL     1       4.323  27.062  53.499  1.00  0.00     0.115 C 
HETATM    7  N   UNL     1       4.391  27.740  54.793  1.00  0.00    -0.353 N 
HETATM    8  C   UNL     1       5.441  27.658  55.673  1.00  0.00     0.249 C 
HETATM    9  O   UNL     1       5.519  28.446  56.610  1.00  0.00    -0.271 OA
HETATM   10  C   UNL     1       5.130  25.030  52.164  1.00  0.00     0.035 C 
HETATM   11  C   UNL     1       5.683  25.962  51.088  1.00  0.00     0.002 C 
HETATM   12  C   UNL     1       4.919  27.281  51.041  1.00  0.00     0.002 C 
HETATM   13  C   UNL     1       4.896  27.973  52.402  1.00  0.00     0.027 C 
HETATM   14  H   UNL     1       3.774  28.534  54.961  1.00  0.00     0.163 HD
ENDROOT
BRANCH   1  15
HETATM   15  C   UNL     1       6.163  25.440  56.591  1.00  0.00     0.146 C 
BRANCH  15  16
HETATM   16  C   UNL     1       7.414  25.156  57.379  1.00  0.00     0.224 C 
HETATM   17  N   UNL     1       8.197  24.073  57.150  1.00  0.00    -0.327 N 
HETATM   18  H   UNL     1       8.929  23.987  57.851  1.00  0.00     0.169 HD
HETATM   19  O   UNL     1       7.754  25.961  58.257  1.00  0.00    -0.273 OA
BRANCH  17  20
HETATM   20  C   UNL     1       8.224  23.079  56.153  1.00  0.00     0.034 A 
HETATM   21  C   UNL     1       7.881  21.739  56.331  1.00  0.00     0.030 A 
HETATM   22  C   UNL     1       7.907  20.847  55.250  1.00  0.00     0.009 A 
HETATM   23  C   UNL     1       8.283  21.275  53.974  1.00  0.00    -0.062 A 
HETATM   24  C   UNL     1       8.262  20.329  52.810  1.00  0.00     0.048 C 
HETATM   25  C   UNL     1       8.609  22.619  53.789  1.00  0.00     0.009 A 
HETATM   26  C   UNL     1       8.579  23.508  54.866  1.00  0.00     0.030 A 
ENDBRANCH  17  20
ENDBRANCH  15  16
ENDBRANCH   1  15
TORSDOF 3
ENDMDL
MODEL 2
REMARK VINA RESULT:      -8.8      2.673      6.277
REMARK  3 active torsions:
REMARK  status: ('A' for Active; 'I' for Inactive)
REMARK    1  A    between atoms: C_5  and  N_6 
REMARK       I    between atoms: N_6  and  C_7 
REMARK    2  A    between atoms: C_7  and  C_8 
REMARK    3  A    between atoms: C_8  and  C_9 
ROOT
HETATM    1  C   UNL     1       6.636  24.576  55.116  1.00  0.00     0.286 C 
HETATM    2  N   UNL     1       6.970  23.342  54.277  1.00  0.00    -0.056 N 
HETATM    3  H   UNL     1       6.361  22.578  54.591  1.00  0.00     0.278 HD
HETATM    4  H   UNL     1       6.657  23.539  53.304  1.00  0.00     0.278 HD
HETATM    5  C   UNL     1       8.417  22.933  54.331  1.00  0.00     0.209 C 
HETATM    6  C   UNL     1       8.784  22.653  55.810  1.00  0.00     0.115 C 
HETATM    7  N   UNL     1       8.403  23.765  56.679  1.00  0.00    -0.353 N 
HETATM    8  C   UNL     1       7.302  24.564  56.502  1.00  0.00     0.249 C 
HETATM    9  O   UNL     1       6.930  25.305  57.406  1.00  0.00    -0.271 OA
HETATM   10  C   UNL     1       8.641  21.724  53.426  1.00  0.00     0.035 C 
HETATM   11  C   UNL     1       8.021  20.439  53.969  1.00  0.00     0.002 C 
HETATM   12  C   UNL     1       8.457  20.168  55.405  1.00  0.00     0.002 C 
HETATM   13  C   UNL     1       8.153  21.349  56.323  1.00  0.00     0.027 C 
HETATM   14  H   UNL     1       8.793  23.804  57.621  1.00  0.00     0.163 HD
ENDROOT
BRANCH   1  15
HETATM   15  C   UNL     1       7.010  25.879  54.387  1.00  0.00     0.146 C 
BRANCH  15  16
HETATM   16  C   UNL     1       5.997  26.955  54.668  1.00  0.00     0.224 C 
HETATM   17  N   UNL     1       6.271  28.042  55.431  1.00  0.00    -0.327 N 
HETATM   18  H   UNL     1       5.436  28.597  55.603  1.00  0.00     0.169 HD
HETATM   19  O   UNL     1       4.872  26.855  54.158  1.00  0.00    -0.273 OA
BRANCH  17  20
HETATM   20  C   UNL     1       7.447  28.565  56.002  1.00  0.00     0.034 A 
HETATM   21  C   UNL     1       7.682  28.741  57.365  1.00  0.00     0.030 A 
HETATM   22  C   UNL     1       8.913  29.234  57.818  1.00  0.00     0.009 A 
HETATM   23  C   UNL     1       9.929  29.567  56.919  1.00  0.00    -0.062 A 
HETATM   24  C   UNL     1      11.262  30.048  57.411  1.00  0.00     0.048 C 
HETATM   25  C   UNL     1       9.705  29.375  55.556  1.00  0.00     0.009 A 
HETATM   26  C   UNL     1       8.478  28.879  55.105  1.00  0.00     0.030 A 
ENDBRANCH  17  20
ENDBRANCH  15  16
ENDBRANCH   1  15
TORSDOF 3
ENDMDL
MODEL 3
REMARK VINA RESULT:      -8.7      5.140      7.946
REMARK  3 active torsions:
REMARK  status: ('A' for Active; 'I' for Inactive)
REMARK    1  A    between atoms: C_5  and  N_6 
REMARK       I    between atoms: N_6  and  C_7 
REMARK    2  A    between atoms: C_7  and  C_8 
REMARK    3  A    between atoms: C_8  and  C_9 
ROOT
HETATM    1  C   UNL     1       7.218  28.379  56.865  1.00  0.00     0.286 C 
HETATM    2  N   UNL     1       8.027  27.094  56.689  1.00  0.00    -0.056 N 
HETATM    3  H   UNL     1       8.046  26.873  55.686  1.00  0.00     0.278 HD
HETATM    4  H   UNL     1       9.016  27.320  56.923  1.00  0.00     0.278 HD
HETATM    5  C   UNL     1       7.512  25.926  57.487  1.00  0.00     0.209 C 
HETATM    6  C   UNL     1       6.046  25.662  57.063  1.00  0.00     0.115 C 
HETATM    7  N   UNL     1       5.240  26.880  57.124  1.00  0.00    -0.353 N 
HETATM    8  C   UNL     1       5.698  28.144  56.849  1.00  0.00     0.249 C 
HETATM    9  O   UNL     1       4.902  29.063  56.687  1.00  0.00    -0.271 OA
HETATM   10  C   UNL     1       8.419  24.718  57.268  1.00  0.00     0.035 C 
HETATM   11  C   UNL     1       8.295  24.112  55.872  1.00  0.00     0.002 C 
HETATM   12  C   UNL     1       6.842  23.810  55.519  1.00  0.00     0.002 C 
HETATM   13  C   UNL     1       5.955  25.044  55.659  1.00  0.00     0.027 C 
HETATM   14  H   UNL     1       4.224  26.794  57.094  1.00  0.00     0.163 HD
ENDROOT
BRANCH   1  15
HETATM   15  C   UNL     1       7.600  29.120  58.158  1.00  0.00     0.146 C 
BRANCH  15  16
HETATM   16  C   UNL     1       8.942  29.786  58.012  1.00  0.00     0.224 C 
HETATM   17  N   UNL     1       9.420  30.681  58.911  1.00  0.00    -0.327 N 
HETATM   18  H   UNL     1      10.285  31.108  58.588  1.00  0.00     0.169 HD
HETATM   19  O   UNL     1       9.648  29.483  57.041  1.00  0.00    -0.273 OA
BRANCH  17  20
HETATM   20  C   UNL     1       8.994  31.116  60.180  1.00  0.00     0.034 A 
HETATM   21  C   UNL     1       9.235  30.463  61.388  1.00  0.00     0.030 A 
HETATM   22  C   UNL     1       8.795  31.016  62.598  1.00  0.00     0.009 A 
HETATM   23  C   UNL     1       8.100  32.228  62.624  1.00  0.00    -0.062 A 
HETATM   24  C   UNL     1       7.674  32.841  63.925  1.00  0.00     0.048 C 
HETATM   25  C   UNL     1       7.873  32.894  61.419  1.00  0.00     0.009 A 
HETATM   26  C   UNL     1       8.316  32.343  60.213  1.00  0.00     0.030 A 
ENDBRANCH  17  20
ENDBRANCH  15  16
ENDBRANCH   1  15
TORSDOF 3
ENDMDL
MODEL 4
REMARK VINA RESULT:      -8.6      1.211      5.848
REMARK  3 active torsions:
REMARK  status: ('A' for Active; 'I' for Inactive)
REMARK    1  A    between atoms: C_5  and  N_6 
REMARK       I    between atoms: N_6  and  C_7 
REMARK    2  A    between atoms: C_7  and  C_8 
REMARK    3  A    between atoms: C_8  and  C_9 
ROOT
HETATM    1  C   UNL     1       6.840  24.642  55.811  1.00  0.00     0.286 C 
HETATM    2  N   UNL     1       6.815  23.565  54.725  1.00  0.00    -0.056 N 
HETATM    3  H   UNL     1       6.431  22.710  55.144  1.00  0.00     0.278 HD
HETATM    4  H   UNL     1       6.101  23.853  54.024  1.00  0.00     0.278 HD
HETATM    5  C   UNL     1       8.153  23.298  54.091  1.00  0.00     0.209 C 
HETATM    6  C   UNL     1       9.139  22.869  55.206  1.00  0.00     0.115 C 
HETATM    7  N   UNL     1       9.139  23.817  56.319  1.00  0.00    -0.353 N 
HETATM    8  C   UNL     1       8.045  24.519  56.758  1.00  0.00     0.249 C 
HETATM    9  O   UNL     1       8.081  25.097  57.840  1.00  0.00    -0.271 OA
HETATM   10  C   UNL     1       8.000  22.244  52.998  1.00  0.00     0.035 C 
HETATM   11  C   UNL     1       7.723  20.844  53.542  1.00  0.00     0.002 C 
HETATM   12  C   UNL     1       8.751  20.436  54.591  1.00  0.00     0.002 C 
HETATM   13  C   UNL     1       8.840  21.454  55.726  1.00  0.00     0.027 C 
HETATM   14  H   UNL     1       9.900  23.774  56.997  1.00  0.00     0.163 HD
ENDROOT
BRANCH   1  15
HETATM   15  C   UNL     1       6.814  26.058  55.209  1.00  0.00     0.146 C 
BRANCH  15  16
HETATM   16  C   UNL     1       5.463  26.693  55.401  1.00  0.00     0.224 C 
HETATM   17  N   UNL     1       4.681  27.085  54.366  1.00  0.00    -0.327 N 
HETATM   18  H   UNL     1       3.861  27.594  54.690  1.00  0.00     0.169 HD
HETATM   19  O   UNL     1       5.039  26.838  56.556  1.00  0.00    -0.273 OA
BRANCH  17  20
HETATM   20  C   UNL     1       4.750  26.920  52.969  1.00  0.00     0.034 A 
HETATM   21  C   UNL     1       5.061  25.734  52.305  1.00  0.00     0.030 A 
HETATM   22  C   UNL     1       5.058  25.681  50.904  1.00  0.00     0.009 A 
HETATM   23  C   UNL     1       4.752  26.811  50.142  1.00  0.00    -0.062 A 
HETATM   24  C   UNL     1       4.702  26.737  48.645  1.00  0.00     0.048 C 
HETATM   25  C   UNL     1       4.422  27.994  50.804  1.00  0.00     0.009 A 
HETATM   26  C   UNL     1       4.421  28.046  52.201  1.00  0.00     0.030 A 
ENDBRANCH  17  20
ENDBRANCH  15  16
ENDBRANCH   1  15
TORSDOF 3
ENDMDL
MODEL 5
REMARK VINA RESULT:      -8.2      2.159      3.780
REMARK  3 active torsions:
REMARK  status: ('A' for Active; 'I' for Inactive)
REMARK    1  A    between atoms: C_5  and  N_6 
REMARK       I    between atoms: N_6  and  C_7 
REMARK    2  A    between atoms: C_7  and  C_8 
REMARK    3  A    between atoms: C_8  and  C_9 
ROOT
HETATM    1  C   UNL     1       6.005  26.725  54.757  1.00  0.00     0.286 C 
HETATM    2  N   UNL     1       5.628  28.143  54.327  1.00  0.00    -0.056 N 
HETATM    3  H   UNL     1       6.291  28.790  54.769  1.00  0.00     0.278 HD
HETATM    4  H   UNL     1       5.832  28.219  53.309  1.00  0.00     0.278 HD
HETATM    5  C   UNL     1       4.208  28.527  54.646  1.00  0.00     0.209 C 
HETATM    6  C   UNL     1       4.005  28.393  56.176  1.00  0.00     0.115 C 
HETATM    7  N   UNL     1       4.435  27.084  56.664  1.00  0.00    -0.353 N 
HETATM    8  C   UNL     1       5.486  26.360  56.158  1.00  0.00     0.249 C 
HETATM    9  O   UNL     1       5.924  25.399  56.781  1.00  0.00    -0.271 OA
HETATM   10  C   UNL     1       3.932  29.939  54.134  1.00  0.00     0.035 C 
HETATM   11  C   UNL     1       4.647  31.024  54.935  1.00  0.00     0.002 C 
HETATM   12  C   UNL     1       4.371  30.893  56.428  1.00  0.00     0.002 C 
HETATM   13  C   UNL     1       4.728  29.505  56.953  1.00  0.00     0.027 C 
HETATM   14  H   UNL     1       4.144  26.790  57.595  1.00  0.00     0.163 HD
ENDROOT
BRANCH   1  15
HETATM   15  C   UNL     1       5.514  25.674  53.747  1.00  0.00     0.146 C 
BRANCH  15  16
HETATM   16  C   UNL     1       6.489  25.536  52.608  1.00  0.00     0.224 C 
HETATM   17  N   UNL     1       7.519  24.654  52.625  1.00  0.00    -0.327 N 
HETATM   18  H   UNL     1       8.134  24.784  51.824  1.00  0.00     0.169 HD
HETATM   19  O   UNL     1       6.325  26.241  51.603  1.00  0.00    -0.273 OA
BRANCH  17  20
HETATM   20  C   UNL     1       7.895  23.605  53.485  1.00  0.00     0.034 A 
HETATM   21  C   UNL     1       8.343  23.749  54.797  1.00  0.00     0.030 A 
HETATM   22  C   UNL     1       8.650  22.622  55.573  1.00  0.00     0.009 A 
HETATM   23  C   UNL     1       8.521  21.333  55.051  1.00  0.00    -0.062 A 
HETATM   24  C   UNL     1       8.804  20.129  55.900  1.00  0.00     0.048 C 
HETATM   25  C   UNL     1       8.056  21.184  53.744  1.00  0.00     0.009 A 
HETATM   26  C   UNL     1       7.746  22.308  52.972  1.00  0.00     0.030 A 
ENDBRANCH  17  20
ENDBRANCH  15  16
ENDBRANCH   1  15
TORSDOF 3
ENDMDL
MODEL 6
REMARK VINA RESULT:      -8.1      2.510      3.706
REMARK  3 active torsions:
REMARK  status: ('A' for Active; 'I' for Inactive)
REMARK    1  A    between atoms: C_5  and  N_6 
REMARK       I    between atoms: N_6  and  C_7 
REMARK    2  A    between atoms: C_7  and  C_8 
REMARK    3  A    between atoms: C_8  and  C_9 
ROOT
HETATM    1  C   UNL     1       5.320  28.053  51.831  1.00  0.00     0.286 C 
HETATM    2  N   UNL     1       5.621  27.689  50.377  1.00  0.00    -0.056 N 
HETATM    3  H   UNL     1       5.936  28.543  49.901  1.00  0.00     0.278 HD
HETATM    4  H   UNL     1       6.460  27.072  50.383  1.00  0.00     0.278 HD
HETATM    5  C   UNL     1       4.465  27.061  49.646  1.00  0.00     0.209 C 
HETATM    6  C   UNL     1       3.276  28.053  49.681  1.00  0.00     0.115 C 
HETATM    7  N   UNL     1       2.997  28.511  51.042  1.00  0.00    -0.353 N 
HETATM    8  C   UNL     1       3.942  28.711  52.017  1.00  0.00     0.249 C 
HETATM    9  O   UNL     1       3.649  29.324  53.038  1.00  0.00    -0.271 OA
HETATM   10  C   UNL     1       4.894  26.701  48.226  1.00  0.00     0.035 C 
HETATM   11  C   UNL     1       5.097  27.918  47.327  1.00  0.00     0.002 C 
HETATM   12  C   UNL     1       3.879  28.837  47.343  1.00  0.00     0.002 C 
HETATM   13  C   UNL     1       3.507  29.262  48.760  1.00  0.00     0.027 C 
HETATM   14  H   UNL     1       2.109  28.976  51.227  1.00  0.00     0.163 HD
ENDROOT
BRANCH   1  15
HETATM   15  C   UNL     1       5.424  26.830  52.758  1.00  0.00     0.146 C 
BRANCH  15  16
HETATM   16  C   UNL     1       6.407  27.087  53.868  1.00  0.00     0.224 C 
HETATM   17  N   UNL     1       7.156  26.106  54.429  1.00  0.00    -0.327 N 
HETATM   18  H   UNL     1       7.674  26.447  55.236  1.00  0.00     0.169 HD
HETATM   19  O   UNL     1       6.554  28.250  54.269  1.00  0.00    -0.273 OA
BRANCH  17  20
HETATM   20  C   UNL     1       7.383  24.751  54.121  1.00  0.00     0.034 A 
HETATM   21  C   UNL     1       7.763  24.252  52.876  1.00  0.00     0.030 A 
HETATM   22  C   UNL     1       8.000  22.881  52.700  1.00  0.00     0.009 A 
HETATM   23  C   UNL     1       7.856  21.985  53.761  1.00  0.00    -0.062 A 
HETATM   24  C   UNL     1       8.160  20.527  53.581  1.00  0.00     0.048 C 
HETATM   25  C   UNL     1       7.494  22.483  55.013  1.00  0.00     0.009 A 
HETATM   26  C   UNL     1       7.261  23.850  55.188  1.00  0.00     0.030 A 
ENDBRANCH  17  20
ENDBRANCH  15  16
ENDBRANCH   1  15
TORSDOF 3
ENDMDL
MODEL 7
REMARK VINA RESULT:      -8.1      3.777      5.908
REMARK  3 active torsions:
REMARK  status: ('A' for Active; 'I' for Inactive)
REMARK    1  A    between atoms: C_5  and  N_6 
REMARK       I    between atoms: N_6  and  C_7 
REMARK    2  A    between atoms: C_7  and  C_8 
REMARK    3  A    between atoms: C_8  and  C_9 
ROOT
HETATM    1  C   UNL     1       6.989  29.307  56.521  1.00  0.00     0.286 C 
HETATM    2  N   UNL     1       7.159  30.116  57.807  1.00  0.00    -0.056 N 
HETATM    3  H   UNL     1       7.306  31.096  57.541  1.00  0.00     0.278 HD
HETATM    4  H   UNL     1       6.239  30.114  58.294  1.00  0.00     0.278 HD
HETATM    5  C   UNL     1       8.269  29.628  58.700  1.00  0.00     0.209 C 
HETATM    6  C   UNL     1       9.591  29.677  57.894  1.00  0.00     0.115 C 
HETATM    7  N   UNL     1       9.463  28.995  56.607  1.00  0.00    -0.353 N 
HETATM    8  C   UNL     1       8.325  28.962  55.841  1.00  0.00     0.249 C 
HETATM    9  O   UNL     1       8.380  28.582  54.677  1.00  0.00    -0.271 OA
HETATM   10  C   UNL     1       8.316  30.478  59.967  1.00  0.00     0.035 C 
HETATM   11  C   UNL     1       8.825  31.897  59.726  1.00  0.00     0.002 C 
HETATM   12  C   UNL     1      10.158  31.898  58.986  1.00  0.00     0.002 C 
HETATM   13  C   UNL     1      10.081  31.117  57.677  1.00  0.00     0.027 C 
HETATM   14  H   UNL     1      10.312  28.758  56.094  1.00  0.00     0.163 HD
ENDROOT
BRANCH   1  15
HETATM   15  C   UNL     1       6.198  28.010  56.764  1.00  0.00     0.146 C 
BRANCH  15  16
HETATM   16  C   UNL     1       5.037  27.909  55.812  1.00  0.00     0.224 C 
HETATM   17  N   UNL     1       5.021  27.056  54.758  1.00  0.00    -0.327 N 
HETATM   18  H   UNL     1       4.209  27.210  54.165  1.00  0.00     0.169 HD
HETATM   19  O   UNL     1       4.042  28.620  56.017  1.00  0.00    -0.273 OA
BRANCH  17  20
HETATM   20  C   UNL     1       5.862  26.009  54.335  1.00  0.00     0.034 A 
HETATM   21  C   UNL     1       6.561  25.963  53.130  1.00  0.00     0.030 A 
HETATM   22  C   UNL     1       7.404  24.882  52.836  1.00  0.00     0.009 A 
HETATM   23  C   UNL     1       7.558  23.825  53.736  1.00  0.00    -0.062 A 
HETATM   24  C   UNL     1       8.498  22.694  53.439  1.00  0.00     0.048 C 
HETATM   25  C   UNL     1       6.874  23.876  54.951  1.00  0.00     0.009 A 
HETATM   26  C   UNL     1       6.037  24.956  55.245  1.00  0.00     0.030 A 
ENDBRANCH  17  20
ENDBRANCH  15  16
ENDBRANCH   1  15
TORSDOF 3
ENDMDL
MODEL 8
REMARK VINA RESULT:      -8.1      2.076      6.813
REMARK  3 active torsions:
REMARK  status: ('A' for Active; 'I' for Inactive)
REMARK    1  A    between atoms: C_5  and  N_6 
REMARK       I    between atoms: N_6  and  C_7 
REMARK    2  A    between atoms: C_7  and  C_8 
REMARK    3  A    between atoms: C_8  and  C_9 
ROOT
HETATM    1  C   UNL     1       6.643  24.518  55.258  1.00  0.00     0.286 C 
HETATM    2  N   UNL     1       6.825  23.295  54.358  1.00  0.00    -0.056 N 
HETATM    3  H   UNL     1       6.404  22.491  54.838  1.00  0.00     0.278 HD
HETATM    4  H   UNL     1       6.226  23.440  53.519  1.00  0.00     0.278 HD
HETATM    5  C   UNL     1       8.256  23.010  53.987  1.00  0.00     0.209 C 
HETATM    6  C   UNL     1       9.061  22.800  55.294  1.00  0.00     0.115 C 
HETATM    7  N   UNL     1       8.854  23.899  56.236  1.00  0.00    -0.353 N 
HETATM    8  C   UNL     1       7.683  24.598  56.388  1.00  0.00     0.249 C 
HETATM    9  O   UNL     1       7.527  25.329  57.361  1.00  0.00    -0.271 OA
HETATM   10  C   UNL     1       8.311  21.801  53.057  1.00  0.00     0.035 C 
HETATM   11  C   UNL     1       7.992  20.483  53.758  1.00  0.00     0.002 C 
HETATM   12  C   UNL     1       8.849  20.287  55.003  1.00  0.00     0.002 C 
HETATM   13  C   UNL     1       8.724  21.462  55.970  1.00  0.00     0.027 C 
HETATM   14  H   UNL     1       9.496  23.995  57.022  1.00  0.00     0.163 HD
ENDROOT
BRANCH   1  15
HETATM   15  C   UNL     1       6.674  25.828  54.451  1.00  0.00     0.146 C 
BRANCH  15  16
HETATM   16  C   UNL     1       5.310  26.142  53.896  1.00  0.00     0.224 C 
HETATM   17  N   UNL     1       4.573  27.200  54.313  1.00  0.00    -0.327 N 
HETATM   18  H   UNL     1       3.638  27.185  53.911  1.00  0.00     0.169 HD
HETATM   19  O   UNL     1       4.855  25.415  53.002  1.00  0.00    -0.273 OA
BRANCH  17  20
HETATM   20  C   UNL     1       4.831  28.304  55.148  1.00  0.00     0.034 A 
HETATM   21  C   UNL     1       4.840  29.641  54.751  1.00  0.00     0.030 A 
HETATM   22  C   UNL     1       5.070  30.660  55.685  1.00  0.00     0.009 A 
HETATM   23  C   UNL     1       5.301  30.364  57.030  1.00  0.00    -0.062 A 
HETATM   24  C   UNL     1       5.497  31.461  58.035  1.00  0.00     0.048 C 
HETATM   25  C   UNL     1       5.274  29.029  57.435  1.00  0.00     0.009 A 
HETATM   26  C   UNL     1       5.041  28.013  56.504  1.00  0.00     0.030 A 
ENDBRANCH  17  20
ENDBRANCH  15  16
ENDBRANCH   1  15
TORSDOF 3
ENDMDL
MODEL 9
REMARK VINA RESULT:      -8.0      2.030      3.620
REMARK  3 active torsions:
REMARK  status: ('A' for Active; 'I' for Inactive)
REMARK    1  A    between atoms: C_5  and  N_6 
REMARK       I    between atoms: N_6  and  C_7 
REMARK    2  A    between atoms: C_7  and  C_8 
REMARK    3  A    between atoms: C_8  and  C_9 
ROOT
HETATM    1  C   UNL     1       5.957  27.068  55.838  1.00  0.00     0.286 C 
HETATM    2  N   UNL     1       5.534  28.078  56.906  1.00  0.00    -0.056 N 
HETATM    3  H   UNL     1       4.519  27.993  57.029  1.00  0.00     0.278 HD
HETATM    4  H   UNL     1       5.933  27.751  57.811  1.00  0.00     0.278 HD
HETATM    5  C   UNL     1       5.923  29.499  56.600  1.00  0.00     0.209 C 
HETATM    6  C   UNL     1       5.278  29.895  55.248  1.00  0.00     0.115 C 
HETATM    7  N   UNL     1       5.572  28.914  54.203  1.00  0.00    -0.353 N 
HETATM    8  C   UNL     1       5.704  27.563  54.404  1.00  0.00     0.249 C 
HETATM    9  O   UNL     1       5.706  26.799  53.445  1.00  0.00    -0.271 OA
HETATM   10  C   UNL     1       5.492  30.406  57.749  1.00  0.00     0.035 C 
HETATM   11  C   UNL     1       3.980  30.597  57.835  1.00  0.00     0.002 C 
HETATM   12  C   UNL     1       3.394  31.046  56.501  1.00  0.00     0.002 C 
HETATM   13  C   UNL     1       3.758  30.089  55.370  1.00  0.00     0.027 C 
HETATM   14  H   UNL     1       5.405  29.172  53.232  1.00  0.00     0.163 HD
ENDROOT
BRANCH   1  15
HETATM   15  C   UNL     1       7.438  26.674  55.982  1.00  0.00     0.146 C 
BRANCH  15  16
HETATM   16  C   UNL     1       7.631  25.757  57.160  1.00  0.00     0.224 C 
HETATM   17  N   UNL     1       7.704  24.409  57.038  1.00  0.00    -0.327 N 
HETATM   18  H   UNL     1       7.720  23.953  57.948  1.00  0.00     0.169 HD
HETATM   19  O   UNL     1       7.756  26.261  58.285  1.00  0.00    -0.273 OA
BRANCH  17  20
HETATM   20  C   UNL     1       7.783  23.528  55.943  1.00  0.00     0.034 A 
HETATM   21  C   UNL     1       7.892  23.902  54.604  1.00  0.00     0.030 A 
HETATM   22  C   UNL     1       8.006  22.930  53.600  1.00  0.00     0.009 A 
HETATM   23  C   UNL     1       8.007  21.569  53.914  1.00  0.00    -0.062 A 
HETATM   24  C   UNL     1       8.180  20.535  52.841  1.00  0.00     0.048 C 
HETATM   25  C   UNL     1       7.918  21.192  55.254  1.00  0.00     0.009 A 
HETATM   26  C   UNL     1       7.807  22.161  56.255  1.00  0.00     0.030 A 
ENDBRANCH  17  20
ENDBRANCH  15  16
ENDBRANCH   1  15
TORSDOF 3
ENDMDL
MODEL 10
REMARK VINA RESULT:      -7.9      6.704      9.032
REMARK  3 active torsions:
REMARK  status: ('A' for Active; 'I' for Inactive)
REMARK    1  A    between atoms: C_5  and  N_6 
REMARK       I    between atoms: N_6  and  C_7 
REMARK    2  A    between atoms: C_7  and  C_8 
REMARK    3  A    between atoms: C_8  and  C_9 
ROOT
HETATM    1  C   UNL     1       8.716  31.858  60.519  1.00  0.00     0.286 C 
HETATM    2  N   UNL     1       7.796  33.028  60.871  1.00  0.00    -0.056 N 
HETATM    3  H   UNL     1       8.334  33.683  61.450  1.00  0.00     0.278 HD
HETATM    4  H   UNL     1       7.615  33.551  59.989  1.00  0.00     0.278 HD
HETATM    5  C   UNL     1       6.520  32.624  61.559  1.00  0.00     0.209 C 
HETATM    6  C   UNL     1       6.891  31.867  62.858  1.00  0.00     0.115 C 
HETATM    7  N   UNL     1       7.844  30.787  62.598  1.00  0.00    -0.353 N 
HETATM    8  C   UNL     1       8.834  30.821  61.649  1.00  0.00     0.249 C 
HETATM    9  O   UNL     1       9.730  29.984  61.669  1.00  0.00    -0.271 OA
HETATM   10  C   UNL     1       5.666  33.863  61.820  1.00  0.00     0.035 C 
HETATM   11  C   UNL     1       6.234  34.771  62.907  1.00  0.00     0.002 C 
HETATM   12  C   UNL     1       6.527  33.998  64.188  1.00  0.00     0.002 C 
HETATM   13  C   UNL     1       7.450  32.809  63.935  1.00  0.00     0.027 C 
HETATM   14  H   UNL     1       7.986  30.079  63.317  1.00  0.00     0.163 HD
ENDROOT
BRANCH   1  15
HETATM   15  C   UNL     1       8.268  31.149  59.229  1.00  0.00     0.146 C 
BRANCH  15  16
HETATM   16  C   UNL     1       9.418  31.017  58.268  1.00  0.00     0.224 C 
HETATM   17  N   UNL     1       9.469  30.062  57.308  1.00  0.00    -0.327 N 
HETATM   18  H   UNL     1      10.369  30.057  56.833  1.00  0.00     0.169 HD
HETATM   19  O   UNL     1      10.346  31.836  58.343  1.00  0.00    -0.273 OA
BRANCH  17  20
HETATM   20  C   UNL     1       8.550  29.111  56.824  1.00  0.00     0.034 A 
HETATM   21  C   UNL     1       7.508  29.366  55.934  1.00  0.00     0.030 A 
HETATM   22  C   UNL     1       6.679  28.326  55.490  1.00  0.00     0.009 A 
HETATM   23  C   UNL     1       6.872  27.015  55.931  1.00  0.00    -0.062 A 
HETATM   24  C   UNL     1       6.015  25.897  55.415  1.00  0.00     0.048 C 
HETATM   25  C   UNL     1       7.925  26.753  56.808  1.00  0.00     0.009 A 
HETATM   26  C   UNL     1       8.753  27.790  57.248  1.00  0.00     0.030 A 
ENDBRANCH  17  20
ENDBRANCH  15  16
ENDBRANCH   1  15
TORSDOF 3
ENDMDL
