MODEL 1
REMARK VINA RESULT:     -10.5      0.000      0.000
REMARK  3 active torsions:
REMARK  status: ('A' for Active; 'I' for Inactive)
REMARK    1  A    between atoms: C_5  and  C_6 
REMARK    2  A    between atoms: C_10  and  N_11 
REMARK    3  A    between atoms: N_11  and  N_12 
ROOT
HETATM    1  N   UNL     1       7.373  31.134  58.578  1.00  0.00    -0.261 N 
HETATM    2  H   UNL     1       8.285  31.016  58.131  1.00  0.00     0.191 HD
ENDROOT
BRANCH   1   3
HETATM    3  C   UNL     1       7.342  31.358  59.917  1.00  0.00     0.140 A 
HETATM    4  N   UNL     1       8.078  30.605  60.783  1.00  0.00    -0.261 N 
HETATM    5  N   UNL     1       7.949  30.956  62.069  1.00  0.00    -0.172 NA
HETATM    6  H   UNL     1       8.690  29.829  60.565  1.00  0.00     0.191 HD
HETATM    7  C   UNL     1       7.089  31.992  62.054  1.00  0.00     0.090 A 
HETATM    8  C   UNL     1       6.677  32.265  60.715  1.00  0.00     0.085 A 
BRANCH   7   9
HETATM    9  C   UNL     1       6.719  32.685  63.301  1.00  0.00    -0.006 A 
HETATM   10  C   UNL     1       5.365  32.840  63.647  1.00  0.00     0.014 A 
HETATM   11  C   UNL     1       4.986  33.439  64.853  1.00  0.00     0.007 A 
HETATM   12  C   UNL     1       5.953  33.905  65.745  1.00  0.00    -0.062 A 
HETATM   13  C   UNL     1       5.560  34.503  67.064  1.00  0.00     0.048 C 
HETATM   14  C   UNL     1       7.305  33.778  65.400  1.00  0.00     0.007 A 
HETATM   15  C   UNL     1       7.683  33.176  64.191  1.00  0.00     0.014 A 
ENDBRANCH   7   9
ENDBRANCH   1   3
BRANCH   1  16
HETATM   16  N   UNL     1       6.308  30.548  57.952  1.00  0.00    -0.166 NA
HETATM   17  C   UNL     1       6.471  29.376  57.402  1.00  0.00     0.169 C 
HETATM   18  C   UNL     1       5.280  28.658  56.796  1.00  0.00     0.278 C 
HETATM   19  C   UNL     1       7.789  28.693  57.306  1.00  0.00     0.067 C 
HETATM   20  O   UNL     1       4.244  29.275  56.569  1.00  0.00    -0.265 OA
HETATM   21  N   UNL     1       5.374  27.330  56.422  1.00  0.00    -0.319 N 
HETATM   22  C   UNL     1       6.371  26.332  56.584  1.00  0.00     0.064 A 
HETATM   23  H   UNL     1       4.524  27.037  55.952  1.00  0.00     0.169 HD
HETATM   24  C   UNL     1       7.560  26.461  57.342  1.00  0.00     0.084 A 
HETATM   25  C   UNL     1       6.120  25.114  55.931  1.00  0.00     0.032 A 
HETATM   26  C   UNL     1       8.432  25.370  57.454  1.00  0.00     0.034 A 
HETATM   27  N   UNL     1       7.892  27.634  58.042  1.00  0.00    -0.249 NA
HETATM   28  C   UNL     1       8.166  24.171  56.796  1.00  0.00     0.002 A 
HETATM   29  C   UNL     1       7.014  24.045  56.028  1.00  0.00     0.002 A 
HETATM   30  C   UNL     1       8.609  28.976  56.083  1.00  0.00     0.073 C 
ENDBRANCH   1  16
TORSDOF 3
ENDMDL
MODEL 2
REMARK VINA RESULT:     -10.4      2.335      3.302
REMARK  3 active torsions:
REMARK  status: ('A' for Active; 'I' for Inactive)
REMARK    1  A    between atoms: C_5  and  C_6 
REMARK    2  A    between atoms: C_10  and  N_11 
REMARK    3  A    between atoms: N_11  and  N_12 
ROOT
HETATM    1  N   UNL     1       9.139  29.637  57.315  1.00  0.00    -0.261 N 
HETATM    2  H   UNL     1       9.763  29.890  56.545  1.00  0.00     0.191 HD
ENDROOT
BRANCH   1   3
HETATM    3  C   UNL     1       9.004  30.515  58.342  1.00  0.00     0.140 A 
HETATM    4  N   UNL     1       9.795  31.621  58.442  1.00  0.00    -0.261 N 
HETATM    5  N   UNL     1       9.532  32.394  59.505  1.00  0.00    -0.172 NA
HETATM    6  H   UNL     1      10.540  31.910  57.822  1.00  0.00     0.191 HD
HETATM    7  C   UNL     1       8.518  31.772  60.136  1.00  0.00     0.090 A 
HETATM    8  C   UNL     1       8.168  30.578  59.436  1.00  0.00     0.085 A 
BRANCH   7   9
HETATM    9  C   UNL     1       7.917  32.349  61.351  1.00  0.00    -0.006 A 
HETATM   10  C   UNL     1       8.540  32.169  62.599  1.00  0.00     0.014 A 
HETATM   11  C   UNL     1       8.025  32.756  63.760  1.00  0.00     0.007 A 
HETATM   12  C   UNL     1       6.869  33.536  63.705  1.00  0.00    -0.062 A 
HETATM   13  C   UNL     1       6.337  34.213  64.934  1.00  0.00     0.048 C 
HETATM   14  C   UNL     1       6.227  33.703  62.471  1.00  0.00     0.007 A 
HETATM   15  C   UNL     1       6.745  33.114  61.308  1.00  0.00     0.014 A 
ENDBRANCH   7   9
ENDBRANCH   1   3
BRANCH   1  16
HETATM   16  N   UNL     1       8.935  28.300  57.519  1.00  0.00    -0.166 NA
HETATM   17  C   UNL     1       8.099  27.668  56.743  1.00  0.00     0.169 C 
HETATM   18  C   UNL     1       7.937  26.165  56.878  1.00  0.00     0.278 C 
HETATM   19  C   UNL     1       7.254  28.346  55.724  1.00  0.00     0.067 C 
HETATM   20  O   UNL     1       8.362  25.591  57.876  1.00  0.00    -0.265 OA
HETATM   21  N   UNL     1       7.244  25.443  55.924  1.00  0.00    -0.319 N 
HETATM   22  C   UNL     1       6.685  25.768  54.660  1.00  0.00     0.064 A 
HETATM   23  H   UNL     1       7.150  24.476  56.217  1.00  0.00     0.169 HD
HETATM   24  C   UNL     1       6.833  27.000  53.979  1.00  0.00     0.084 A 
HETATM   25  C   UNL     1       5.935  24.749  54.050  1.00  0.00     0.032 A 
HETATM   26  C   UNL     1       6.265  27.162  52.709  1.00  0.00     0.034 A 
HETATM   27  N   UNL     1       7.575  28.073  54.501  1.00  0.00    -0.249 NA
HETATM   28  C   UNL     1       5.522  26.139  52.121  1.00  0.00     0.002 A 
HETATM   29  C   UNL     1       5.350  24.935  52.795  1.00  0.00     0.002 A 
HETATM   30  C   UNL     1       5.906  28.825  56.175  1.00  0.00     0.073 C 
ENDBRANCH   1  16
TORSDOF 3
ENDMDL
MODEL 3
REMARK VINA RESULT:     -10.4      2.833      9.644
REMARK  3 active torsions:
REMARK  status: ('A' for Active; 'I' for Inactive)
REMARK    1  A    between atoms: C_5  and  C_6 
REMARK    2  A    between atoms: C_10  and  N_11 
REMARK    3  A    between atoms: N_11  and  N_12 
ROOT
HETATM    1  N   UNL     1       6.466  29.350  54.947  1.00  0.00    -0.261 N 
HETATM    2  H   UNL     1       6.813  29.970  54.210  1.00  0.00     0.191 HD
ENDROOT
BRANCH   1   3
HETATM    3  C   UNL     1       6.400  28.020  54.682  1.00  0.00     0.140 A 
HETATM    4  N   UNL     1       5.253  27.440  54.227  1.00  0.00    -0.261 N 
HETATM    5  N   UNL     1       5.350  26.123  54.003  1.00  0.00    -0.172 NA
HETATM    6  H   UNL     1       4.360  27.884  54.052  1.00  0.00     0.191 HD
HETATM    7  C   UNL     1       6.622  25.817  54.321  1.00  0.00     0.090 A 
HETATM    8  C   UNL     1       7.309  26.987  54.764  1.00  0.00     0.085 A 
BRANCH   7   9
HETATM    9  C   UNL     1       7.129  24.442  54.167  1.00  0.00    -0.006 A 
HETATM   10  C   UNL     1       7.208  23.591  55.284  1.00  0.00     0.014 A 
HETATM   11  C   UNL     1       7.628  22.262  55.158  1.00  0.00     0.007 A 
HETATM   12  C   UNL     1       7.986  21.750  53.909  1.00  0.00    -0.062 A 
HETATM   13  C   UNL     1       8.389  20.312  53.753  1.00  0.00     0.048 C 
HETATM   14  C   UNL     1       7.934  22.595  52.794  1.00  0.00     0.007 A 
HETATM   15  C   UNL     1       7.512  23.927  52.922  1.00  0.00     0.014 A 
ENDBRANCH   7   9
ENDBRANCH   1   3
BRANCH   1  16
HETATM   16  N   UNL     1       5.632  29.912  55.873  1.00  0.00    -0.166 NA
HETATM   17  C   UNL     1       6.107  30.196  57.054  1.00  0.00     0.169 C 
HETATM   18  C   UNL     1       5.232  30.918  58.062  1.00  0.00     0.278 C 
HETATM   19  C   UNL     1       7.478  29.826  57.497  1.00  0.00     0.067 C 
HETATM   20  O   UNL     1       4.019  30.983  57.885  1.00  0.00    -0.265 OA
HETATM   21  N   UNL     1       5.776  31.436  59.223  1.00  0.00    -0.319 N 
HETATM   22  C   UNL     1       7.103  31.580  59.707  1.00  0.00     0.064 A 
HETATM   23  H   UNL     1       5.042  31.798  59.822  1.00  0.00     0.169 HD
HETATM   24  C   UNL     1       8.286  31.301  58.982  1.00  0.00     0.084 A 
HETATM   25  C   UNL     1       7.219  32.057  61.024  1.00  0.00     0.032 A 
HETATM   26  C   UNL     1       9.533  31.539  59.574  1.00  0.00     0.034 A 
HETATM   27  N   UNL     1       8.273  30.833  57.657  1.00  0.00    -0.249 NA
HETATM   28  C   UNL     1       9.627  32.011  60.882  1.00  0.00     0.002 A 
HETATM   29  C   UNL     1       8.469  32.262  61.610  1.00  0.00     0.002 A 
HETATM   30  C   UNL     1       7.637  28.488  58.156  1.00  0.00     0.073 C 
ENDBRANCH   1  16
TORSDOF 3
ENDMDL
MODEL 4
REMARK VINA RESULT:     -10.1      8.179     10.843
REMARK  3 active torsions:
REMARK  status: ('A' for Active; 'I' for Inactive)
REMARK    1  A    between atoms: C_5  and  C_6 
REMARK    2  A    between atoms: C_10  and  N_11 
REMARK    3  A    between atoms: N_11  and  N_12 
ROOT
HETATM    1  N   UNL     1       6.195  28.673  52.570  1.00  0.00    -0.261 N 
HETATM    2  H   UNL     1       6.932  28.991  51.935  1.00  0.00     0.191 HD
ENDROOT
BRANCH   1   3
HETATM    3  C   UNL     1       6.376  27.492  53.216  1.00  0.00     0.140 A 
HETATM    4  N   UNL     1       5.923  27.297  54.486  1.00  0.00    -0.261 N 
HETATM    5  N   UNL     1       6.170  26.077  54.981  1.00  0.00    -0.172 NA
HETATM    6  H   UNL     1       5.439  27.959  55.081  1.00  0.00     0.191 HD
HETATM    7  C   UNL     1       6.814  25.432  53.990  1.00  0.00     0.090 A 
HETATM    8  C   UNL     1       6.972  26.299  52.867  1.00  0.00     0.085 A 
BRANCH   7   9
HETATM    9  C   UNL     1       7.226  24.026  54.146  1.00  0.00    -0.006 A 
HETATM   10  C   UNL     1       7.625  23.280  53.024  1.00  0.00     0.014 A 
HETATM   11  C   UNL     1       8.079  21.962  53.149  1.00  0.00     0.007 A 
HETATM   12  C   UNL     1       8.140  21.353  54.405  1.00  0.00    -0.062 A 
HETATM   13  C   UNL     1       8.674  19.959  54.558  1.00  0.00     0.048 C 
HETATM   14  C   UNL     1       7.723  22.079  55.527  1.00  0.00     0.007 A 
HETATM   15  C   UNL     1       7.269  23.400  55.399  1.00  0.00     0.014 A 
ENDBRANCH   7   9
ENDBRANCH   1   3
BRANCH   1  16
HETATM   16  N   UNL     1       4.934  29.136  52.320  1.00  0.00    -0.166 NA
HETATM   17  C   UNL     1       4.359  28.814  51.194  1.00  0.00     0.169 C 
HETATM   18  C   UNL     1       2.920  29.224  50.940  1.00  0.00     0.278 C 
HETATM   19  C   UNL     1       5.049  28.071  50.105  1.00  0.00     0.067 C 
HETATM   20  O   UNL     1       2.395  30.081  51.643  1.00  0.00    -0.265 OA
HETATM   21  N   UNL     1       2.217  28.701  49.870  1.00  0.00    -0.319 N 
HETATM   22  C   UNL     1       2.490  27.684  48.918  1.00  0.00     0.064 A 
HETATM   23  H   UNL     1       1.311  29.150  49.793  1.00  0.00     0.169 HD
HETATM   24  C   UNL     1       3.609  26.815  48.928  1.00  0.00     0.084 A 
HETATM   25  C   UNL     1       1.540  27.542  47.893  1.00  0.00     0.032 A 
HETATM   26  C   UNL     1       3.723  25.822  47.947  1.00  0.00     0.034 A 
HETATM   27  N   UNL     1       4.605  26.871  49.918  1.00  0.00    -0.249 NA
HETATM   28  C   UNL     1       2.769  25.699  46.938  1.00  0.00     0.002 A 
HETATM   29  C   UNL     1       1.682  26.565  46.906  1.00  0.00     0.002 A 
HETATM   30  C   UNL     1       5.771  28.893  49.079  1.00  0.00     0.073 C 
ENDBRANCH   1  16
TORSDOF 3
ENDMDL
MODEL 5
REMARK VINA RESULT:     -10.0      9.263     11.929
REMARK  3 active torsions:
REMARK  status: ('A' for Active; 'I' for Inactive)
REMARK    1  A    between atoms: C_5  and  C_6 
REMARK    2  A    between atoms: C_10  and  N_11 
REMARK    3  A    between atoms: N_11  and  N_12 
ROOT
HETATM    1  N   UNL     1       5.723  26.753  50.429  1.00  0.00    -0.261 N 
HETATM    2  H   UNL     1       5.765  26.409  49.466  1.00  0.00     0.191 HD
ENDROOT
BRANCH   1   3
HETATM    3  C   UNL     1       5.886  25.855  51.435  1.00  0.00     0.140 A 
HETATM    4  N   UNL     1       4.848  25.493  52.242  1.00  0.00    -0.261 N 
HETATM    5  N   UNL     1       5.166  24.591  53.179  1.00  0.00    -0.172 NA
HETATM    6  H   UNL     1       3.893  25.827  52.213  1.00  0.00     0.191 HD
HETATM    7  C   UNL     1       6.474  24.341  52.982  1.00  0.00     0.090 A 
HETATM    8  C   UNL     1       6.963  25.130  51.897  1.00  0.00     0.085 A 
BRANCH   7   9
HETATM    9  C   UNL     1       7.188  23.355  53.811  1.00  0.00    -0.006 A 
HETATM   10  C   UNL     1       7.311  23.555  55.198  1.00  0.00     0.014 A 
HETATM   11  C   UNL     1       7.930  22.606  56.018  1.00  0.00     0.007 A 
HETATM   12  C   UNL     1       8.450  21.431  55.472  1.00  0.00    -0.062 A 
HETATM   13  C   UNL     1       9.070  20.383  56.349  1.00  0.00     0.048 C 
HETATM   14  C   UNL     1       8.355  21.232  54.089  1.00  0.00     0.007 A 
HETATM   15  C   UNL     1       7.733  22.184  53.268  1.00  0.00     0.014 A 
ENDBRANCH   7   9
ENDBRANCH   1   3
BRANCH   1  16
HETATM   16  N   UNL     1       5.005  27.898  50.635  1.00  0.00    -0.166 NA
HETATM   17  C   UNL     1       4.125  28.256  49.741  1.00  0.00     0.169 C 
HETATM   18  C   UNL     1       3.240  29.462  49.998  1.00  0.00     0.278 C 
HETATM   19  C   UNL     1       3.946  27.555  48.441  1.00  0.00     0.067 C 
HETATM   20  O   UNL     1       3.530  30.255  50.888  1.00  0.00    -0.265 OA
HETATM   21  N   UNL     1       2.151  29.722  49.186  1.00  0.00    -0.319 N 
HETATM   22  C   UNL     1       1.518  29.010  48.133  1.00  0.00     0.064 A 
HETATM   23  H   UNL     1       1.731  30.610  49.438  1.00  0.00     0.169 HD
HETATM   24  C   UNL     1       1.825  27.690  47.721  1.00  0.00     0.084 A 
HETATM   25  C   UNL     1       0.490  29.698  47.469  1.00  0.00     0.032 A 
HETATM   26  C   UNL     1       1.080  27.094  46.696  1.00  0.00     0.034 A 
HETATM   27  N   UNL     1       2.827  26.917  48.333  1.00  0.00    -0.249 NA
HETATM   28  C   UNL     1       0.064  27.796  46.048  1.00  0.00     0.002 A 
HETATM   29  C   UNL     1      -0.225  29.101  46.429  1.00  0.00     0.002 A 
HETATM   30  C   UNL     1       4.775  28.043  47.291  1.00  0.00     0.073 C 
ENDBRANCH   1  16
TORSDOF 3
ENDMDL
MODEL 6
REMARK VINA RESULT:      -9.9      9.633     11.869
REMARK  3 active torsions:
REMARK  status: ('A' for Active; 'I' for Inactive)
REMARK    1  A    between atoms: C_5  and  C_6 
REMARK    2  A    between atoms: C_10  and  N_11 
REMARK    3  A    between atoms: N_11  and  N_12 
ROOT
HETATM    1  N   UNL     1       4.476  26.282  51.187  1.00  0.00    -0.261 N 
HETATM    2  H   UNL     1       4.110  27.050  51.754  1.00  0.00     0.191 HD
ENDROOT
BRANCH   1   3
HETATM    3  C   UNL     1       5.493  25.540  51.697  1.00  0.00     0.140 A 
HETATM    4  N   UNL     1       6.782  25.725  51.293  1.00  0.00    -0.261 N 
HETATM    5  N   UNL     1       7.671  24.924  51.896  1.00  0.00    -0.172 NA
HETATM    6  H   UNL     1       7.129  26.379  50.603  1.00  0.00     0.191 HD
HETATM    7  C   UNL     1       6.936  24.176  52.741  1.00  0.00     0.090 A 
HETATM    8  C   UNL     1       5.558  24.531  52.632  1.00  0.00     0.085 A 
BRANCH   7   9
HETATM    9  C   UNL     1       7.576  23.184  53.623  1.00  0.00    -0.006 A 
HETATM   10  C   UNL     1       8.007  23.557  54.908  1.00  0.00     0.014 A 
HETATM   11  C   UNL     1       8.561  22.623  55.790  1.00  0.00     0.007 A 
HETATM   12  C   UNL     1       8.705  21.288  55.406  1.00  0.00    -0.062 A 
HETATM   13  C   UNL     1       9.250  20.267  56.361  1.00  0.00     0.048 C 
HETATM   14  C   UNL     1       8.301  20.910  54.119  1.00  0.00     0.007 A 
HETATM   15  C   UNL     1       7.744  21.848  53.237  1.00  0.00     0.014 A 
ENDBRANCH   7   9
ENDBRANCH   1   3
BRANCH   1  16
HETATM   16  N   UNL     1       4.315  26.394  49.834  1.00  0.00    -0.166 NA
HETATM   17  C   UNL     1       4.268  27.586  49.305  1.00  0.00     0.169 C 
HETATM   18  C   UNL     1       4.199  27.737  47.796  1.00  0.00     0.278 C 
HETATM   19  C   UNL     1       4.251  28.838  50.107  1.00  0.00     0.067 C 
HETATM   20  O   UNL     1       3.906  26.771  47.097  1.00  0.00    -0.265 OA
HETATM   21  N   UNL     1       4.384  28.972  47.203  1.00  0.00    -0.319 N 
HETATM   22  C   UNL     1       4.776  30.247  47.690  1.00  0.00     0.064 A 
HETATM   23  H   UNL     1       4.211  28.910  46.205  1.00  0.00     0.169 HD
HETATM   24  C   UNL     1       5.222  30.534  49.002  1.00  0.00     0.084 A 
HETATM   25  C   UNL     1       4.719  31.295  46.756  1.00  0.00     0.032 A 
HETATM   26  C   UNL     1       5.626  31.835  49.328  1.00  0.00     0.034 A 
HETATM   27  N   UNL     1       5.326  29.550  50.001  1.00  0.00    -0.249 NA
HETATM   28  C   UNL     1       5.560  32.861  48.388  1.00  0.00     0.002 A 
HETATM   29  C   UNL     1       5.098  32.594  47.104  1.00  0.00     0.002 A 
HETATM   30  C   UNL     1       2.906  29.363  50.513  1.00  0.00     0.073 C 
ENDBRANCH   1  16
TORSDOF 3
ENDMDL
MODEL 7
REMARK VINA RESULT:      -9.7      3.137      5.339
REMARK  3 active torsions:
REMARK  status: ('A' for Active; 'I' for Inactive)
REMARK    1  A    between atoms: C_5  and  C_6 
REMARK    2  A    between atoms: C_10  and  N_11 
REMARK    3  A    between atoms: N_11  and  N_12 
ROOT
HETATM    1  N   UNL     1       5.845  26.891  55.437  1.00  0.00    -0.261 N 
HETATM    2  H   UNL     1       4.852  26.657  55.515  1.00  0.00     0.191 HD
ENDROOT
BRANCH   1   3
HETATM    3  C   UNL     1       6.300  27.979  56.111  1.00  0.00     0.140 A 
HETATM    4  N   UNL     1       6.437  29.190  55.499  1.00  0.00    -0.261 N 
HETATM    5  N   UNL     1       6.887  30.165  56.300  1.00  0.00    -0.172 NA
HETATM    6  H   UNL     1       6.247  29.422  54.533  1.00  0.00     0.191 HD
HETATM    7  C   UNL     1       7.052  29.573  57.498  1.00  0.00     0.090 A 
HETATM    8  C   UNL     1       6.702  28.192  57.411  1.00  0.00     0.085 A 
BRANCH   7   9
HETATM    9  C   UNL     1       7.508  30.347  58.666  1.00  0.00    -0.006 A 
HETATM   10  C   UNL     1       6.722  31.401  59.164  1.00  0.00     0.014 A 
HETATM   11  C   UNL     1       7.100  32.113  60.308  1.00  0.00     0.007 A 
HETATM   12  C   UNL     1       8.279  31.791  60.983  1.00  0.00    -0.062 A 
HETATM   13  C   UNL     1       8.668  32.513  62.240  1.00  0.00     0.048 C 
HETATM   14  C   UNL     1       9.081  30.758  60.483  1.00  0.00     0.007 A 
HETATM   15  C   UNL     1       8.701  30.045  59.336  1.00  0.00     0.014 A 
ENDBRANCH   7   9
ENDBRANCH   1   3
BRANCH   1  16
HETATM   16  N   UNL     1       6.483  26.463  54.306  1.00  0.00    -0.166 NA
HETATM   17  C   UNL     1       7.145  25.339  54.346  1.00  0.00     0.169 C 
HETATM   18  C   UNL     1       7.770  24.789  53.077  1.00  0.00     0.278 C 
HETATM   19  C   UNL     1       7.352  24.555  55.593  1.00  0.00     0.067 C 
HETATM   20  O   UNL     1       7.901  25.514  52.096  1.00  0.00    -0.265 OA
HETATM   21  N   UNL     1       8.268  23.500  53.040  1.00  0.00    -0.319 N 
HETATM   22  C   UNL     1       8.237  22.408  53.947  1.00  0.00     0.064 A 
HETATM   23  H   UNL     1       8.732  23.330  52.154  1.00  0.00     0.169 HD
HETATM   24  C   UNL     1       7.514  22.358  55.163  1.00  0.00     0.084 A 
HETATM   25  C   UNL     1       8.990  21.284  53.567  1.00  0.00     0.032 A 
HETATM   26  C   UNL     1       7.537  21.190  55.935  1.00  0.00     0.034 A 
HETATM   27  N   UNL     1       6.722  23.426  55.620  1.00  0.00    -0.249 NA
HETATM   28  C   UNL     1       8.293  20.087  55.542  1.00  0.00     0.002 A 
HETATM   29  C   UNL     1       9.026  20.137  54.362  1.00  0.00     0.002 A 
HETATM   30  C   UNL     1       8.573  24.881  56.401  1.00  0.00     0.073 C 
ENDBRANCH   1  16
TORSDOF 3
ENDMDL
MODEL 8
REMARK VINA RESULT:      -9.3      1.922      2.491
REMARK  3 active torsions:
REMARK  status: ('A' for Active; 'I' for Inactive)
REMARK    1  A    between atoms: C_5  and  C_6 
REMARK    2  A    between atoms: C_10  and  N_11 
REMARK    3  A    between atoms: N_11  and  N_12 
ROOT
HETATM    1  N   UNL     1       6.931  30.299  57.010  1.00  0.00    -0.261 N 
HETATM    2  H   UNL     1       7.770  29.714  57.003  1.00  0.00     0.191 HD
ENDROOT
BRANCH   1   3
HETATM    3  C   UNL     1       6.707  31.080  58.099  1.00  0.00     0.140 A 
HETATM    4  N   UNL     1       5.794  32.092  58.075  1.00  0.00    -0.261 N 
HETATM    5  N   UNL     1       5.682  32.763  59.229  1.00  0.00    -0.172 NA
HETATM    6  H   UNL     1       5.213  32.385  57.300  1.00  0.00     0.191 HD
HETATM    7  C   UNL     1       6.560  32.166  60.056  1.00  0.00     0.090 A 
HETATM    8  C   UNL     1       7.232  31.108  59.373  1.00  0.00     0.085 A 
BRANCH   7   9
HETATM    9  C   UNL     1       6.702  32.608  61.455  1.00  0.00    -0.006 A 
HETATM   10  C   UNL     1       7.745  32.105  62.251  1.00  0.00     0.014 A 
HETATM   11  C   UNL     1       7.941  32.552  63.562  1.00  0.00     0.007 A 
HETATM   12  C   UNL     1       7.092  33.514  64.115  1.00  0.00    -0.062 A 
HETATM   13  C   UNL     1       7.324  34.039  65.502  1.00  0.00     0.048 C 
HETATM   14  C   UNL     1       6.035  34.005  63.339  1.00  0.00     0.007 A 
HETATM   15  C   UNL     1       5.841  33.555  62.024  1.00  0.00     0.014 A 
ENDBRANCH   7   9
ENDBRANCH   1   3
BRANCH   1  16
HETATM   16  N   UNL     1       5.885  29.873  56.241  1.00  0.00    -0.166 NA
HETATM   17  C   UNL     1       6.032  28.791  55.526  1.00  0.00     0.169 C 
HETATM   18  C   UNL     1       4.852  28.237  54.749  1.00  0.00     0.278 C 
HETATM   19  C   UNL     1       7.321  28.060  55.402  1.00  0.00     0.067 C 
HETATM   20  O   UNL     1       3.861  28.936  54.560  1.00  0.00    -0.265 OA
HETATM   21  N   UNL     1       4.911  26.978  54.180  1.00  0.00    -0.319 N 
HETATM   22  C   UNL     1       5.851  25.915  54.243  1.00  0.00     0.064 A 
HETATM   23  H   UNL     1       4.082  26.806  53.622  1.00  0.00     0.169 HD
HETATM   24  C   UNL     1       6.992  25.863  55.080  1.00  0.00     0.084 A 
HETATM   25  C   UNL     1       5.590  24.825  53.396  1.00  0.00     0.032 A 
HETATM   26  C   UNL     1       7.806  24.724  55.071  1.00  0.00     0.034 A 
HETATM   27  N   UNL     1       7.329  26.898  55.970  1.00  0.00    -0.249 NA
HETATM   28  C   UNL     1       7.530  23.654  54.222  1.00  0.00     0.002 A 
HETATM   29  C   UNL     1       6.427  23.708  53.378  1.00  0.00     0.002 A 
HETATM   30  C   UNL     1       8.232  28.481  54.288  1.00  0.00     0.073 C 
ENDBRANCH   1  16
TORSDOF 3
ENDMDL
MODEL 9
REMARK VINA RESULT:      -9.3      2.829     10.053
REMARK  3 active torsions:
REMARK  status: ('A' for Active; 'I' for Inactive)
REMARK    1  A    between atoms: C_5  and  C_6 
REMARK    2  A    between atoms: C_10  and  N_11 
REMARK    3  A    between atoms: N_11  and  N_12 
ROOT
HETATM    1  N   UNL     1       5.914  28.924  56.280  1.00  0.00    -0.261 N 
HETATM    2  H   UNL     1       5.006  29.385  56.181  1.00  0.00     0.191 HD
ENDROOT
BRANCH   1   3
HETATM    3  C   UNL     1       5.992  27.601  55.984  1.00  0.00     0.140 A 
HETATM    4  N   UNL     1       5.014  26.728  56.356  1.00  0.00    -0.261 N 
HETATM    5  N   UNL     1       5.233  25.460  55.981  1.00  0.00    -0.172 NA
HETATM    6  H   UNL     1       4.168  26.927  56.874  1.00  0.00     0.191 HD
HETATM    7  C   UNL     1       6.409  25.497  55.328  1.00  0.00     0.090 A 
HETATM    8  C   UNL     1       6.922  26.829  55.321  1.00  0.00     0.085 A 
BRANCH   7   9
HETATM    9  C   UNL     1       6.976  24.278  54.724  1.00  0.00    -0.006 A 
HETATM   10  C   UNL     1       7.298  23.174  55.533  1.00  0.00     0.014 A 
HETATM   11  C   UNL     1       7.780  21.983  54.980  1.00  0.00     0.007 A 
HETATM   12  C   UNL     1       7.958  21.865  53.600  1.00  0.00    -0.062 A 
HETATM   13  C   UNL     1       8.425  20.575  52.991  1.00  0.00     0.048 C 
HETATM   14  C   UNL     1       7.663  22.966  52.787  1.00  0.00     0.007 A 
HETATM   15  C   UNL     1       7.179  24.160  53.342  1.00  0.00     0.014 A 
ENDBRANCH   7   9
ENDBRANCH   1   3
BRANCH   1  16
HETATM   16  N   UNL     1       6.788  29.486  57.168  1.00  0.00    -0.166 NA
HETATM   17  C   UNL     1       6.403  30.525  57.856  1.00  0.00     0.169 C 
HETATM   18  C   UNL     1       7.314  31.100  58.924  1.00  0.00     0.278 C 
HETATM   19  C   UNL     1       5.103  31.215  57.638  1.00  0.00     0.067 C 
HETATM   20  O   UNL     1       8.499  30.783  58.953  1.00  0.00    -0.265 OA
HETATM   21  N   UNL     1       6.843  32.041  59.821  1.00  0.00    -0.319 N 
HETATM   22  C   UNL     1       5.557  32.578  60.096  1.00  0.00     0.064 A 
HETATM   23  H   UNL     1       7.602  32.385  60.399  1.00  0.00     0.169 HD
HETATM   24  C   UNL     1       4.335  32.135  59.536  1.00  0.00     0.084 A 
HETATM   25  C   UNL     1       5.528  33.632  61.024  1.00  0.00     0.032 A 
HETATM   26  C   UNL     1       3.132  32.728  59.941  1.00  0.00     0.034 A 
HETATM   27  N   UNL     1       4.261  31.080  58.611  1.00  0.00    -0.249 NA
HETATM   28  C   UNL     1       3.125  33.775  60.861  1.00  0.00     0.002 A 
HETATM   29  C   UNL     1       4.323  34.233  61.397  1.00  0.00     0.002 A 
HETATM   30  C   UNL     1       5.090  32.331  56.636  1.00  0.00     0.073 C 
ENDBRANCH   1  16
TORSDOF 3
ENDMDL
MODEL 10
REMARK VINA RESULT:      -9.2      1.818      9.366
REMARK  3 active torsions:
REMARK  status: ('A' for Active; 'I' for Inactive)
REMARK    1  A    between atoms: C_5  and  C_6 
REMARK    2  A    between atoms: C_10  and  N_11 
REMARK    3  A    between atoms: N_11  and  N_12 
ROOT
HETATM    1  N   UNL     1       6.392  30.638  58.306  1.00  0.00    -0.261 N 
HETATM    2  H   UNL     1       5.508  31.092  58.549  1.00  0.00     0.191 HD
ENDROOT
BRANCH   1   3
HETATM    3  C   UNL     1       6.350  29.357  57.856  1.00  0.00     0.140 A 
HETATM    4  N   UNL     1       5.172  28.755  57.529  1.00  0.00    -0.261 N 
HETATM    5  N   UNL     1       5.298  27.495  57.092  1.00  0.00    -0.172 NA
HETATM    6  H   UNL     1       4.240  29.145  57.584  1.00  0.00     0.191 HD
HETATM    7  C   UNL     1       6.621  27.252  57.130  1.00  0.00     0.090 A 
HETATM    8  C   UNL     1       7.314  28.402  57.618  1.00  0.00     0.085 A 
BRANCH   7   9
HETATM    9  C   UNL     1       7.166  25.959  56.681  1.00  0.00    -0.006 A 
HETATM   10  C   UNL     1       8.335  25.444  57.267  1.00  0.00     0.014 A 
HETATM   11  C   UNL     1       8.841  24.191  56.905  1.00  0.00     0.007 A 
HETATM   12  C   UNL     1       8.191  23.420  55.939  1.00  0.00    -0.062 A 
HETATM   13  C   UNL     1       8.694  22.052  55.579  1.00  0.00     0.048 C 
HETATM   14  C   UNL     1       7.038  23.933  55.330  1.00  0.00     0.007 A 
HETATM   15  C   UNL     1       6.533  25.189  55.696  1.00  0.00     0.014 A 
ENDBRANCH   7   9
ENDBRANCH   1   3
BRANCH   1  16
HETATM   16  N   UNL     1       7.512  31.114  58.930  1.00  0.00    -0.166 NA
HETATM   17  C   UNL     1       7.372  31.806  60.027  1.00  0.00     0.169 C 
HETATM   18  C   UNL     1       8.601  32.253  60.797  1.00  0.00     0.278 C 
HETATM   19  C   UNL     1       6.051  32.217  60.574  1.00  0.00     0.067 C 
HETATM   20  O   UNL     1       9.705  32.217  60.261  1.00  0.00    -0.265 OA
HETATM   21  N   UNL     1       8.483  32.776  62.071  1.00  0.00    -0.319 N 
HETATM   22  C   UNL     1       7.402  32.909  62.982  1.00  0.00     0.064 A 
HETATM   23  H   UNL     1       9.384  33.108  62.398  1.00  0.00     0.169 HD
HETATM   24  C   UNL     1       6.101  32.375  62.812  1.00  0.00     0.084 A 
HETATM   25  C   UNL     1       7.683  33.629  64.155  1.00  0.00     0.032 A 
HETATM   26  C   UNL     1       5.146  32.544  63.822  1.00  0.00     0.034 A 
HETATM   27  N   UNL     1       5.728  31.629  61.680  1.00  0.00    -0.249 NA
HETATM   28  C   UNL     1       5.445  33.264  64.977  1.00  0.00     0.002 A 
HETATM   29  C   UNL     1       6.711  33.814  65.140  1.00  0.00     0.002 A 
HETATM   30  C   UNL     1       5.506  33.534  60.107  1.00  0.00     0.073 C 
ENDBRANCH   1  16
TORSDOF 3
ENDMDL
