MODEL 1
REMARK VINA RESULT:     -11.1      0.000      0.000
REMARK  6 active torsions:
REMARK  status: ('A' for Active; 'I' for Inactive)
REMARK    1  A    between atoms: C_4  and  C_5 
REMARK    2  A    between atoms: C_8  and  C_9 
REMARK    3  A    between atoms: C_9  and  N_10 
REMARK       I    between atoms: N_10  and  C_11 
REMARK       I    between atoms: C_11  and  N_12 
REMARK    4  A    between atoms: N_12  and  C_13 
REMARK    5  A    between atoms: C_16  and  C_17 
REMARK    6  A    between atoms: C_29  and  C_30 
ROOT
HETATM    1  C   UNL     1       4.838  31.906  57.675  1.00  0.00     0.068 C 
HETATM    2  C   UNL     1       3.908  30.654  57.697  1.00  0.00     0.001 C 
HETATM    3  C   UNL     1       4.637  29.373  57.231  1.00  0.00     0.040 C 
HETATM    4  C   UNL     1       5.303  29.587  55.861  1.00  0.00     0.206 C 
HETATM    5  N   UNL     1       4.869  30.970  55.373  1.00  0.00    -0.065 N 
HETATM    6  H   UNL     1       5.310  31.103  54.436  1.00  0.00     0.280 HD
HETATM    7  C   UNL     1       5.374  32.101  56.245  1.00  0.00     0.246 C 
HETATM    8  C   UNL     1       2.780  30.908  56.664  1.00  0.00     0.033 C 
HETATM    9  C   UNL     1       3.367  31.038  55.250  1.00  0.00     0.236 C 
ENDROOT
BRANCH   4  10
HETATM   10  C   UNL     1       6.845  29.393  55.883  1.00  0.00     0.157 C 
BRANCH  10  11
HETATM   11  N   UNL     1       7.373  28.380  54.969  1.00  0.00    -0.341 N 
HETATM   12  C   UNL     1       7.393  27.031  55.248  1.00  0.00     0.320 C 
HETATM   13  N   UNL     1       7.816  26.301  54.168  1.00  0.00    -0.309 N 
HETATM   14  O   UNL     1       7.107  26.603  56.361  1.00  0.00    -0.247 OA
HETATM   15  H   UNL     1       8.212  26.824  53.398  1.00  0.00     0.170 HD
HETATM   16  H   UNL     1       7.252  28.594  53.987  1.00  0.00     0.164 HD
BRANCH  13  17
HETATM   17  C   UNL     1       7.903  24.897  54.056  1.00  0.00     0.036 A 
HETATM   18  C   UNL     1       7.722  24.195  52.862  1.00  0.00     0.030 A 
HETATM   19  C   UNL     1       7.824  22.797  52.832  1.00  0.00     0.017 A 
HETATM   20  C   UNL     1       8.113  22.084  54.000  1.00  0.00     0.009 A 
HETATM   21  C   UNL     1       8.302  22.788  55.194  1.00  0.00     0.017 A 
HETATM   22  C   UNL     1       8.202  24.183  55.221  1.00  0.00     0.030 A 
BRANCH  20  23
HETATM   23  C   UNL     1       8.225  20.596  54.025  1.00  0.00     0.155 C 
HETATM   24  C   UNL     1       8.374  19.895  55.350  1.00  0.00     0.096 C 
HETATM   25  O   UNL     1       8.198  19.967  52.969  1.00  0.00    -0.293 OA
ENDBRANCH  20  23
ENDBRANCH  13  17
ENDBRANCH  10  11
ENDBRANCH   4  10
BRANCH   1  26
HETATM   26  C   UNL     1       5.989  31.927  58.661  1.00  0.00     0.045 A 
HETATM   27  N   UNL     1       7.222  31.644  58.206  1.00  0.00    -0.238 NA
HETATM   28  C   UNL     1       8.246  31.750  59.075  1.00  0.00     0.123 A 
HETATM   29  C   UNL     1       9.613  31.361  58.606  1.00  0.00     0.093 C 
HETATM   30  N   UNL     1       8.128  32.205  60.328  1.00  0.00    -0.233 NA
HETATM   31  C   UNL     1       6.892  32.531  60.758  1.00  0.00     0.072 A 
HETATM   32  C   UNL     1       5.776  32.354  59.960  1.00  0.00     0.060 A 
BRANCH  31  33
HETATM   33  C   UNL     1       6.822  33.091  62.115  1.00  0.00     0.010 A 
HETATM   34  C   UNL     1       5.931  34.115  62.498  1.00  0.00     0.023 A 
HETATM   35 BR   UNL     1       4.738  34.957  61.269  1.00  0.00    -0.050 Br
HETATM   36  C   UNL     1       5.915  34.604  63.812  1.00  0.00     0.020 A 
HETATM   37  C   UNL     1       6.796  34.093  64.762  1.00  0.00     0.001 A 
HETATM   38  C   UNL     1       7.699  33.098  64.403  1.00  0.00     0.001 A 
HETATM   39  C   UNL     1       7.712  32.606  63.095  1.00  0.00     0.015 A 
ENDBRANCH  31  33
ENDBRANCH   1  26
TORSDOF 6
ENDMDL
MODEL 2
REMARK VINA RESULT:     -10.9      1.906      2.903
REMARK  6 active torsions:
REMARK  status: ('A' for Active; 'I' for Inactive)
REMARK    1  A    between atoms: C_4  and  C_5 
REMARK    2  A    between atoms: C_8  and  C_9 
REMARK    3  A    between atoms: C_9  and  N_10 
REMARK       I    between atoms: N_10  and  C_11 
REMARK       I    between atoms: C_11  and  N_12 
REMARK    4  A    between atoms: N_12  and  C_13 
REMARK    5  A    between atoms: C_16  and  C_17 
REMARK    6  A    between atoms: C_29  and  C_30 
ROOT
HETATM    1  C   UNL     1       4.111  32.461  56.452  1.00  0.00     0.068 C 
HETATM    2  C   UNL     1       2.876  31.562  56.136  1.00  0.00     0.001 C 
HETATM    3  C   UNL     1       3.051  30.118  56.660  1.00  0.00     0.040 C 
HETATM    4  C   UNL     1       4.369  29.506  56.158  1.00  0.00     0.206 C 
HETATM    5  N   UNL     1       4.973  30.511  55.175  1.00  0.00    -0.065 N 
HETATM    6  H   UNL     1       5.858  30.083  54.824  1.00  0.00     0.280 HD
HETATM    7  C   UNL     1       5.363  31.824  55.823  1.00  0.00     0.246 C 
HETATM    8  C   UNL     1       2.779  31.451  54.592  1.00  0.00     0.033 C 
HETATM    9  C   UNL     1       4.028  30.758  54.025  1.00  0.00     0.236 C 
ENDROOT
BRANCH   4  10
HETATM   10  C   UNL     1       5.339  29.095  57.299  1.00  0.00     0.157 C 
BRANCH  10  11
HETATM   11  N   UNL     1       6.429  28.196  56.918  1.00  0.00    -0.341 N 
HETATM   12  C   UNL     1       6.279  26.838  56.745  1.00  0.00     0.320 C 
HETATM   13  N   UNL     1       7.424  26.264  56.259  1.00  0.00    -0.309 N 
HETATM   14  O   UNL     1       5.240  26.264  57.056  1.00  0.00    -0.247 OA
HETATM   15  H   UNL     1       8.253  26.844  56.257  1.00  0.00     0.170 HD
HETATM   16  H   UNL     1       7.125  28.612  56.312  1.00  0.00     0.164 HD
BRANCH  13  17
HETATM   17  C   UNL     1       7.627  24.915  55.898  1.00  0.00     0.036 A 
HETATM   18  C   UNL     1       8.194  23.957  56.742  1.00  0.00     0.030 A 
HETATM   19  C   UNL     1       8.361  22.633  56.309  1.00  0.00     0.017 A 
HETATM   20  C   UNL     1       7.959  22.253  55.026  1.00  0.00     0.009 A 
HETATM   21  C   UNL     1       7.384  23.211  54.183  1.00  0.00     0.017 A 
HETATM   22  C   UNL     1       7.215  24.529  54.618  1.00  0.00     0.030 A 
BRANCH  20  23
HETATM   23  C   UNL     1       8.123  20.861  54.512  1.00  0.00     0.155 C 
HETATM   24  C   UNL     1       7.921  20.592  53.044  1.00  0.00     0.096 C 
HETATM   25  O   UNL     1       8.413  19.956  55.293  1.00  0.00    -0.293 OA
ENDBRANCH  20  23
ENDBRANCH  13  17
ENDBRANCH  10  11
ENDBRANCH   4  10
BRANCH   1  26
HETATM   26  C   UNL     1       4.376  32.779  57.911  1.00  0.00     0.045 A 
HETATM   27  N   UNL     1       3.347  33.198  58.667  1.00  0.00    -0.238 NA
HETATM   28  C   UNL     1       3.578  33.394  59.980  1.00  0.00     0.123 A 
HETATM   29  C   UNL     1       2.464  33.937  60.819  1.00  0.00     0.093 C 
HETATM   30  N   UNL     1       4.733  33.112  60.593  1.00  0.00    -0.233 NA
HETATM   31  C   UNL     1       5.744  32.647  59.831  1.00  0.00     0.072 A 
HETATM   32  C   UNL     1       5.618  32.514  58.460  1.00  0.00     0.060 A 
BRANCH  31  33
HETATM   33  C   UNL     1       6.970  32.286  60.558  1.00  0.00     0.010 A 
HETATM   34  C   UNL     1       6.994  31.888  61.911  1.00  0.00     0.023 A 
HETATM   35 BR   UNL     1       5.425  31.831  62.996  1.00  0.00    -0.050 Br
HETATM   36  C   UNL     1       8.199  31.557  62.545  1.00  0.00     0.020 A 
HETATM   37  C   UNL     1       9.402  31.632  61.847  1.00  0.00     0.001 A 
HETATM   38  C   UNL     1       9.407  32.042  60.519  1.00  0.00     0.001 A 
HETATM   39  C   UNL     1       8.206  32.368  59.885  1.00  0.00     0.015 A 
ENDBRANCH  31  33
ENDBRANCH   1  26
TORSDOF 6
ENDMDL
MODEL 3
REMARK VINA RESULT:     -10.7      5.067     10.083
REMARK  6 active torsions:
REMARK  status: ('A' for Active; 'I' for Inactive)
REMARK    1  A    between atoms: C_4  and  C_5 
REMARK    2  A    between atoms: C_8  and  C_9 
REMARK    3  A    between atoms: C_9  and  N_10 
REMARK       I    between atoms: N_10  and  C_11 
REMARK       I    between atoms: C_11  and  N_12 
REMARK    4  A    between atoms: N_12  and  C_13 
REMARK    5  A    between atoms: C_16  and  C_17 
REMARK    6  A    between atoms: C_29  and  C_30 
ROOT
HETATM    1  C   UNL     1       7.665  27.349  55.790  1.00  0.00     0.068 C 
HETATM    2  C   UNL     1       6.938  27.455  57.166  1.00  0.00     0.001 C 
HETATM    3  C   UNL     1       5.455  27.869  57.015  1.00  0.00     0.040 C 
HETATM    4  C   UNL     1       5.325  29.153  56.180  1.00  0.00     0.206 C 
HETATM    5  N   UNL     1       6.746  29.655  55.920  1.00  0.00    -0.065 N 
HETATM    6  H   UNL     1       6.652  30.535  55.368  1.00  0.00     0.280 HD
HETATM    7  C   UNL     1       7.572  28.708  55.073  1.00  0.00     0.246 C 
HETATM    8  C   UNL     1       7.626  28.598  57.957  1.00  0.00     0.033 C 
HETATM    9  C   UNL     1       7.453  29.937  57.223  1.00  0.00     0.236 C 
ENDROOT
BRANCH   4  10
HETATM   10  C   UNL     1       4.486  28.970  54.885  1.00  0.00     0.157 C 
BRANCH  10  11
HETATM   11  N   UNL     1       5.202  29.177  53.626  1.00  0.00    -0.341 N 
HETATM   12  C   UNL     1       4.580  29.379  52.413  1.00  0.00     0.320 C 
HETATM   13  N   UNL     1       5.484  29.679  51.429  1.00  0.00    -0.309 N 
HETATM   14  O   UNL     1       3.368  29.241  52.285  1.00  0.00    -0.247 OA
HETATM   15  H   UNL     1       6.461  29.547  51.658  1.00  0.00     0.170 HD
HETATM   16  H   UNL     1       6.086  29.663  53.719  1.00  0.00     0.164 HD
BRANCH  13  17
HETATM   17  C   UNL     1       5.216  30.010  50.084  1.00  0.00     0.036 A 
HETATM   18  C   UNL     1       5.050  29.069  49.065  1.00  0.00     0.030 A 
HETATM   19  C   UNL     1       4.784  29.478  47.750  1.00  0.00     0.017 A 
HETATM   20  C   UNL     1       4.678  30.837  47.440  1.00  0.00     0.009 A 
HETATM   21  C   UNL     1       4.837  31.780  48.461  1.00  0.00     0.017 A 
HETATM   22  C   UNL     1       5.099  31.369  49.773  1.00  0.00     0.030 A 
BRANCH  20  23
HETATM   23  C   UNL     1       4.406  31.326  46.056  1.00  0.00     0.155 C 
HETATM   24  C   UNL     1       5.345  32.326  45.434  1.00  0.00     0.096 C 
HETATM   25  O   UNL     1       3.421  30.912  45.449  1.00  0.00    -0.293 OA
ENDBRANCH  20  23
ENDBRANCH  13  17
ENDBRANCH  10  11
ENDBRANCH   4  10
BRANCH   1  26
HETATM   26  C   UNL     1       7.214  26.244  54.855  1.00  0.00     0.045 A 
HETATM   27  N   UNL     1       6.513  26.584  53.760  1.00  0.00    -0.238 NA
HETATM   28  C   UNL     1       6.192  25.602  52.895  1.00  0.00     0.123 A 
HETATM   29  C   UNL     1       5.344  25.951  51.713  1.00  0.00     0.093 C 
HETATM   30  N   UNL     1       6.604  24.334  53.008  1.00  0.00    -0.233 NA
HETATM   31  C   UNL     1       7.347  24.015  54.088  1.00  0.00     0.072 A 
HETATM   32  C   UNL     1       7.633  24.944  55.072  1.00  0.00     0.060 A 
BRANCH  31  33
HETATM   33  C   UNL     1       7.833  22.628  54.134  1.00  0.00     0.010 A 
HETATM   34  C   UNL     1       8.272  21.988  55.312  1.00  0.00     0.023 A 
HETATM   35 BR   UNL     1       8.351  22.874  57.000  1.00  0.00    -0.050 Br
HETATM   36  C   UNL     1       8.724  20.661  55.286  1.00  0.00     0.020 A 
HETATM   37  C   UNL     1       8.762  19.956  54.085  1.00  0.00     0.001 A 
HETATM   38  C   UNL     1       8.355  20.573  52.908  1.00  0.00     0.001 A 
HETATM   39  C   UNL     1       7.900  21.893  52.933  1.00  0.00     0.015 A 
ENDBRANCH  31  33
ENDBRANCH   1  26
TORSDOF 6
ENDMDL
MODEL 4
REMARK VINA RESULT:     -10.6      1.514      1.973
REMARK  6 active torsions:
REMARK  status: ('A' for Active; 'I' for Inactive)
REMARK    1  A    between atoms: C_4  and  C_5 
REMARK    2  A    between atoms: C_8  and  C_9 
REMARK    3  A    between atoms: C_9  and  N_10 
REMARK       I    between atoms: N_10  and  C_11 
REMARK       I    between atoms: C_11  and  N_12 
REMARK    4  A    between atoms: N_12  and  C_13 
REMARK    5  A    between atoms: C_16  and  C_17 
REMARK    6  A    between atoms: C_29  and  C_30 
ROOT
HETATM    1  C   UNL     1       4.810  32.734  57.124  1.00  0.00     0.068 C 
HETATM    2  C   UNL     1       3.392  32.086  57.094  1.00  0.00     0.001 C 
HETATM    3  C   UNL     1       3.434  30.604  56.653  1.00  0.00     0.040 C 
HETATM    4  C   UNL     1       4.180  30.450  55.317  1.00  0.00     0.206 C 
HETATM    5  N   UNL     1       4.488  31.863  54.820  1.00  0.00    -0.065 N 
HETATM    6  H   UNL     1       4.979  31.753  53.906  1.00  0.00     0.280 HD
HETATM    7  C   UNL     1       5.437  32.624  55.723  1.00  0.00     0.246 C 
HETATM    8  C   UNL     1       2.573  32.835  56.012  1.00  0.00     0.033 C 
HETATM    9  C   UNL     1       3.211  32.644  54.628  1.00  0.00     0.236 C 
ENDROOT
BRANCH   4  10
HETATM   10  C   UNL     1       5.435  29.538  55.409  1.00  0.00     0.157 C 
BRANCH  10  11
HETATM   11  N   UNL     1       5.292  28.198  54.838  1.00  0.00    -0.341 N 
HETATM   12  C   UNL     1       6.247  27.211  54.950  1.00  0.00     0.320 C 
HETATM   13  N   UNL     1       5.799  26.019  54.442  1.00  0.00    -0.309 N 
HETATM   14  O   UNL     1       7.360  27.446  55.408  1.00  0.00    -0.247 OA
HETATM   15  H   UNL     1       4.937  26.050  53.913  1.00  0.00     0.170 HD
HETATM   16  H   UNL     1       4.342  27.848  54.815  1.00  0.00     0.164 HD
BRANCH  13  17
HETATM   17  C   UNL     1       6.467  24.777  54.441  1.00  0.00     0.036 A 
HETATM   18  C   UNL     1       6.790  24.062  55.597  1.00  0.00     0.030 A 
HETATM   19  C   UNL     1       7.457  22.831  55.513  1.00  0.00     0.017 A 
HETATM   20  C   UNL     1       7.805  22.299  54.269  1.00  0.00     0.009 A 
HETATM   21  C   UNL     1       7.476  23.011  53.111  1.00  0.00     0.017 A 
HETATM   22  C   UNL     1       6.808  24.237  53.196  1.00  0.00     0.030 A 
BRANCH  20  23
HETATM   23  C   UNL     1       8.523  20.998  54.124  1.00  0.00     0.155 C 
HETATM   24  C   UNL     1       8.524  20.306  52.786  1.00  0.00     0.096 C 
HETATM   25  O   UNL     1       9.096  20.509  55.095  1.00  0.00    -0.293 OA
ENDBRANCH  20  23
ENDBRANCH  13  17
ENDBRANCH  10  11
ENDBRANCH   4  10
BRANCH   1  26
HETATM   26  C   UNL     1       5.784  32.214  58.163  1.00  0.00     0.045 A 
HETATM   27  N   UNL     1       6.775  31.402  57.756  1.00  0.00    -0.238 NA
HETATM   28  C   UNL     1       7.682  31.016  58.675  1.00  0.00     0.123 A 
HETATM   29  C   UNL     1       8.745  30.049  58.255  1.00  0.00     0.093 C 
HETATM   30  N   UNL     1       7.714  31.461  59.937  1.00  0.00    -0.233 NA
HETATM   31  C   UNL     1       6.741  32.312  60.320  1.00  0.00     0.072 A 
HETATM   32  C   UNL     1       5.716  32.676  59.466  1.00  0.00     0.060 A 
BRANCH  31  33
HETATM   33  C   UNL     1       6.855  32.826  61.693  1.00  0.00     0.010 A 
HETATM   34  C   UNL     1       7.698  32.265  62.675  1.00  0.00     0.023 A 
HETATM   35 BR   UNL     1       8.757  30.710  62.358  1.00  0.00    -0.050 Br
HETATM   36  C   UNL     1       7.760  32.804  63.967  1.00  0.00     0.020 A 
HETATM   37  C   UNL     1       6.972  33.902  64.307  1.00  0.00     0.001 A 
HETATM   38  C   UNL     1       6.118  34.459  63.363  1.00  0.00     0.001 A 
HETATM   39  C   UNL     1       6.059  33.925  62.074  1.00  0.00     0.015 A 
ENDBRANCH  31  33
ENDBRANCH   1  26
TORSDOF 6
ENDMDL
MODEL 5
REMARK VINA RESULT:     -10.6      3.762     10.938
REMARK  6 active torsions:
REMARK  status: ('A' for Active; 'I' for Inactive)
REMARK    1  A    between atoms: C_4  and  C_5 
REMARK    2  A    between atoms: C_8  and  C_9 
REMARK    3  A    between atoms: C_9  and  N_10 
REMARK       I    between atoms: N_10  and  C_11 
REMARK       I    between atoms: C_11  and  N_12 
REMARK    4  A    between atoms: N_12  and  C_13 
REMARK    5  A    between atoms: C_16  and  C_17 
REMARK    6  A    between atoms: C_29  and  C_30 
ROOT
HETATM    1  C   UNL     1       4.899  29.522  56.123  1.00  0.00     0.068 C 
HETATM    2  C   UNL     1       4.656  31.033  55.818  1.00  0.00     0.001 C 
HETATM    3  C   UNL     1       5.656  31.949  56.560  1.00  0.00     0.040 C 
HETATM    4  C   UNL     1       5.664  31.646  58.068  1.00  0.00     0.206 C 
HETATM    5  N   UNL     1       4.547  30.632  58.318  1.00  0.00    -0.065 N 
HETATM    6  H   UNL     1       4.546  30.443  59.345  1.00  0.00     0.280 HD
HETATM    7  C   UNL     1       4.785  29.297  57.641  1.00  0.00     0.246 C 
HETATM    8  C   UNL     1       3.252  31.388  56.372  1.00  0.00     0.033 C 
HETATM    9  C   UNL     1       3.215  31.199  57.896  1.00  0.00     0.236 C 
ENDROOT
BRANCH   4  10
HETATM   10  C   UNL     1       7.049  31.189  58.603  1.00  0.00     0.157 C 
BRANCH  10  11
HETATM   11  N   UNL     1       7.173  31.097  60.058  1.00  0.00    -0.341 N 
HETATM   12  C   UNL     1       6.854  32.122  60.921  1.00  0.00     0.320 C 
HETATM   13  N   UNL     1       6.936  31.721  62.229  1.00  0.00    -0.309 N 
HETATM   14  O   UNL     1       6.589  33.246  60.510  1.00  0.00    -0.247 OA
HETATM   15  H   UNL     1       7.370  30.823  62.399  1.00  0.00     0.170 HD
HETATM   16  H   UNL     1       7.004  30.174  60.438  1.00  0.00     0.164 HD
BRANCH  13  17
HETATM   17  C   UNL     1       6.621  32.471  63.382  1.00  0.00     0.036 A 
HETATM   18  C   UNL     1       7.575  32.998  64.256  1.00  0.00     0.030 A 
HETATM   19  C   UNL     1       7.182  33.734  65.383  1.00  0.00     0.017 A 
HETATM   20  C   UNL     1       5.827  33.955  65.646  1.00  0.00     0.009 A 
HETATM   21  C   UNL     1       4.872  33.434  64.767  1.00  0.00     0.017 A 
HETATM   22  C   UNL     1       5.266  32.702  63.642  1.00  0.00     0.030 A 
BRANCH  20  23
HETATM   23  C   UNL     1       5.355  34.724  66.835  1.00  0.00     0.155 C 
HETATM   24  C   UNL     1       4.237  35.719  66.668  1.00  0.00     0.096 C 
HETATM   25  O   UNL     1       5.887  34.539  67.928  1.00  0.00    -0.293 OA
ENDBRANCH  20  23
ENDBRANCH  13  17
ENDBRANCH  10  11
ENDBRANCH   4  10
BRANCH   1  26
HETATM   26  C   UNL     1       6.189  28.914  55.609  1.00  0.00     0.045 A 
HETATM   27  N   UNL     1       7.348  29.512  55.937  1.00  0.00    -0.238 NA
HETATM   28  C   UNL     1       8.490  28.913  55.546  1.00  0.00     0.123 A 
HETATM   29  C   UNL     1       9.785  29.607  55.833  1.00  0.00     0.093 C 
HETATM   30  N   UNL     1       8.548  27.722  54.938  1.00  0.00    -0.233 NA
HETATM   31  C   UNL     1       7.379  27.110  54.657  1.00  0.00     0.072 A 
HETATM   32  C   UNL     1       6.162  27.707  54.935  1.00  0.00     0.060 A 
BRANCH  31  33
HETATM   33  C   UNL     1       7.494  25.775  54.052  1.00  0.00     0.010 A 
HETATM   34  C   UNL     1       7.436  24.572  54.786  1.00  0.00     0.023 A 
HETATM   35 BR   UNL     1       7.267  24.530  56.686  1.00  0.00    -0.050 Br
HETATM   36  C   UNL     1       7.552  23.330  54.146  1.00  0.00     0.020 A 
HETATM   37  C   UNL     1       7.743  23.267  52.767  1.00  0.00     0.001 A 
HETATM   38  C   UNL     1       7.825  24.440  52.026  1.00  0.00     0.001 A 
HETATM   39  C   UNL     1       7.704  25.677  52.662  1.00  0.00     0.015 A 
ENDBRANCH  31  33
ENDBRANCH   1  26
TORSDOF 6
ENDMDL
MODEL 6
REMARK VINA RESULT:     -10.6      4.734      9.151
REMARK  6 active torsions:
REMARK  status: ('A' for Active; 'I' for Inactive)
REMARK    1  A    between atoms: C_4  and  C_5 
REMARK    2  A    between atoms: C_8  and  C_9 
REMARK    3  A    between atoms: C_9  and  N_10 
REMARK       I    between atoms: N_10  and  C_11 
REMARK       I    between atoms: C_11  and  N_12 
REMARK    4  A    between atoms: N_12  and  C_13 
REMARK    5  A    between atoms: C_16  and  C_17 
REMARK    6  A    between atoms: C_29  and  C_30 
ROOT
HETATM    1  C   UNL     1       8.631  27.396  56.667  1.00  0.00     0.068 C 
HETATM    2  C   UNL     1       8.383  28.360  57.868  1.00  0.00     0.001 C 
HETATM    3  C   UNL     1       7.005  29.056  57.787  1.00  0.00     0.040 C 
HETATM    4  C   UNL     1       6.818  29.749  56.427  1.00  0.00     0.206 C 
HETATM    5  N   UNL     1       8.150  29.627  55.685  1.00  0.00    -0.065 N 
HETATM    6  H   UNL     1       8.023  30.113  54.770  1.00  0.00     0.280 HD
HETATM    7  C   UNL     1       8.526  28.197  55.356  1.00  0.00     0.246 C 
HETATM    8  C   UNL     1       9.442  29.489  57.770  1.00  0.00     0.033 C 
HETATM    9  C   UNL     1       9.254  30.289  56.472  1.00  0.00     0.236 C 
ENDROOT
BRANCH   4  10
HETATM   10  C   UNL     1       5.606  29.211  55.617  1.00  0.00     0.157 C 
BRANCH  10  11
HETATM   11  N   UNL     1       5.814  29.069  54.176  1.00  0.00    -0.341 N 
HETATM   12  C   UNL     1       4.917  28.456  53.327  1.00  0.00     0.320 C 
HETATM   13  N   UNL     1       5.299  28.583  52.017  1.00  0.00    -0.309 N 
HETATM   14  O   UNL     1       3.946  27.844  53.757  1.00  0.00    -0.247 OA
HETATM   15  H   UNL     1       6.232  28.935  51.851  1.00  0.00     0.170 HD
HETATM   16  H   UNL     1       6.329  29.828  53.747  1.00  0.00     0.164 HD
BRANCH  13  17
HETATM   17  C   UNL     1       4.603  28.144  50.871  1.00  0.00     0.036 A 
HETATM   18  C   UNL     1       3.543  28.841  50.285  1.00  0.00     0.030 A 
HETATM   19  C   UNL     1       2.902  28.338  49.144  1.00  0.00     0.017 A 
HETATM   20  C   UNL     1       3.317  27.132  48.573  1.00  0.00     0.009 A 
HETATM   21  C   UNL     1       4.383  26.438  49.155  1.00  0.00     0.017 A 
HETATM   22  C   UNL     1       5.024  26.942  50.291  1.00  0.00     0.030 A 
BRANCH  20  23
HETATM   23  C   UNL     1       2.663  26.548  47.364  1.00  0.00     0.155 C 
HETATM   24  C   UNL     1       1.350  27.117  46.895  1.00  0.00     0.096 C 
HETATM   25  O   UNL     1       3.201  25.613  46.775  1.00  0.00    -0.293 OA
ENDBRANCH  20  23
ENDBRANCH  13  17
ENDBRANCH  10  11
ENDBRANCH   4  10
BRANCH   1  26
HETATM   26  C   UNL     1       7.757  26.160  56.584  1.00  0.00     0.045 A 
HETATM   27  N   UNL     1       6.500  26.238  57.055  1.00  0.00    -0.238 NA
HETATM   28  C   UNL     1       5.708  25.159  56.897  1.00  0.00     0.123 A 
HETATM   29  C   UNL     1       4.333  25.201  57.486  1.00  0.00     0.093 C 
HETATM   30  N   UNL     1       6.059  24.057  56.223  1.00  0.00    -0.233 NA
HETATM   31  C   UNL     1       7.307  24.011  55.714  1.00  0.00     0.072 A 
HETATM   32  C   UNL     1       8.214  25.035  55.921  1.00  0.00     0.060 A 
BRANCH  31  33
HETATM   33  C   UNL     1       7.625  22.812  54.925  1.00  0.00     0.010 A 
HETATM   34  C   UNL     1       7.772  22.810  53.522  1.00  0.00     0.023 A 
HETATM   35 BR   UNL     1       7.509  24.371  52.456  1.00  0.00    -0.050 Br
HETATM   36  C   UNL     1       8.075  21.630  52.830  1.00  0.00     0.020 A 
HETATM   37  C   UNL     1       8.222  20.429  53.521  1.00  0.00     0.001 A 
HETATM   38  C   UNL     1       8.060  20.401  54.901  1.00  0.00     0.001 A 
HETATM   39  C   UNL     1       7.763  21.578  55.592  1.00  0.00     0.015 A 
ENDBRANCH  31  33
ENDBRANCH   1  26
TORSDOF 6
ENDMDL
MODEL 7
REMARK VINA RESULT:     -10.5      5.753     10.392
REMARK  6 active torsions:
REMARK  status: ('A' for Active; 'I' for Inactive)
REMARK    1  A    between atoms: C_4  and  C_5 
REMARK    2  A    between atoms: C_8  and  C_9 
REMARK    3  A    between atoms: C_9  and  N_10 
REMARK       I    between atoms: N_10  and  C_11 
REMARK       I    between atoms: C_11  and  N_12 
REMARK    4  A    between atoms: N_12  and  C_13 
REMARK    5  A    between atoms: C_16  and  C_17 
REMARK    6  A    between atoms: C_29  and  C_30 
ROOT
HETATM    1  C   UNL     1       6.482  27.278  55.599  1.00  0.00     0.068 C 
HETATM    2  C   UNL     1       5.163  27.747  56.288  1.00  0.00     0.001 C 
HETATM    3  C   UNL     1       4.169  28.376  55.285  1.00  0.00     0.040 C 
HETATM    4  C   UNL     1       4.841  29.496  54.473  1.00  0.00     0.206 C 
HETATM    5  N   UNL     1       6.236  29.693  55.068  1.00  0.00    -0.065 N 
HETATM    6  H   UNL     1       6.681  30.465  54.525  1.00  0.00     0.280 HD
HETATM    7  C   UNL     1       7.135  28.485  54.902  1.00  0.00     0.246 C 
HETATM    8  C   UNL     1       5.546  28.876  57.280  1.00  0.00     0.033 C 
HETATM    9  C   UNL     1       6.140  30.074  56.524  1.00  0.00     0.236 C 
ENDROOT
BRANCH   4  10
HETATM   10  C   UNL     1       4.850  29.235  52.942  1.00  0.00     0.157 C 
BRANCH  10  11
HETATM   11  N   UNL     1       3.538  29.167  52.298  1.00  0.00    -0.341 N 
HETATM   12  C   UNL     1       3.356  29.030  50.939  1.00  0.00     0.320 C 
HETATM   13  N   UNL     1       2.033  28.858  50.625  1.00  0.00    -0.309 N 
HETATM   14  O   UNL     1       4.296  29.114  50.156  1.00  0.00    -0.247 OA
HETATM   15  H   UNL     1       1.368  29.023  51.368  1.00  0.00     0.170 HD
HETATM   16  H   UNL     1       2.818  28.723  52.855  1.00  0.00     0.164 HD
BRANCH  13  17
HETATM   17  C   UNL     1       1.474  28.622  49.351  1.00  0.00     0.036 A 
HETATM   18  C   UNL     1       1.470  27.377  48.718  1.00  0.00     0.030 A 
HETATM   19  C   UNL     1       0.892  27.222  47.449  1.00  0.00     0.017 A 
HETATM   20  C   UNL     1       0.308  28.314  46.800  1.00  0.00     0.009 A 
HETATM   21  C   UNL     1       0.305  29.559  47.438  1.00  0.00     0.017 A 
HETATM   22  C   UNL     1       0.879  29.711  48.704  1.00  0.00     0.030 A 
BRANCH  20  23
HETATM   23  C   UNL     1      -0.312  28.206  45.447  1.00  0.00     0.155 C 
HETATM   24  C   UNL     1      -0.609  29.464  44.674  1.00  0.00     0.096 C 
HETATM   25  O   UNL     1      -0.575  27.097  44.986  1.00  0.00    -0.293 OA
ENDBRANCH  20  23
ENDBRANCH  13  17
ENDBRANCH  10  11
ENDBRANCH   4  10
BRANCH   1  26
HETATM   26  C   UNL     1       6.376  26.119  54.626  1.00  0.00     0.045 A 
HETATM   27  N   UNL     1       5.864  26.358  53.407  1.00  0.00    -0.238 NA
HETATM   28  C   UNL     1       5.855  25.339  52.525  1.00  0.00     0.123 A 
HETATM   29  C   UNL     1       5.215  25.566  51.191  1.00  0.00     0.093 C 
HETATM   30  N   UNL     1       6.405  24.140  52.751  1.00  0.00    -0.233 NA
HETATM   31  C   UNL     1       6.958  23.929  53.963  1.00  0.00     0.072 A 
HETATM   32  C   UNL     1       6.917  24.889  54.957  1.00  0.00     0.060 A 
BRANCH  31  33
HETATM   33  C   UNL     1       7.609  22.623  54.142  1.00  0.00     0.010 A 
HETATM   34  C   UNL     1       8.204  22.200  55.348  1.00  0.00     0.023 A 
HETATM   35 BR   UNL     1       8.297  23.311  56.898  1.00  0.00    -0.050 Br
HETATM   36  C   UNL     1       8.809  20.940  55.452  1.00  0.00     0.020 A 
HETATM   37  C   UNL     1       8.845  20.086  54.351  1.00  0.00     0.001 A 
HETATM   38  C   UNL     1       8.285  20.490  53.145  1.00  0.00     0.001 A 
HETATM   39  C   UNL     1       7.677  21.743  53.042  1.00  0.00     0.015 A 
ENDBRANCH  31  33
ENDBRANCH   1  26
TORSDOF 6
ENDMDL
MODEL 8
REMARK VINA RESULT:     -10.5      3.648     10.776
REMARK  6 active torsions:
REMARK  status: ('A' for Active; 'I' for Inactive)
REMARK    1  A    between atoms: C_4  and  C_5 
REMARK    2  A    between atoms: C_8  and  C_9 
REMARK    3  A    between atoms: C_9  and  N_10 
REMARK       I    between atoms: N_10  and  C_11 
REMARK       I    between atoms: C_11  and  N_12 
REMARK    4  A    between atoms: N_12  and  C_13 
REMARK    5  A    between atoms: C_16  and  C_17 
REMARK    6  A    between atoms: C_29  and  C_30 
ROOT
HETATM    1  C   UNL     1       5.472  26.427  55.230  1.00  0.00     0.068 C 
HETATM    2  C   UNL     1       5.595  27.181  53.870  1.00  0.00     0.001 C 
HETATM    3  C   UNL     1       6.788  28.165  53.850  1.00  0.00     0.040 C 
HETATM    4  C   UNL     1       6.731  29.123  55.052  1.00  0.00     0.206 C 
HETATM    5  N   UNL     1       5.406  28.852  55.766  1.00  0.00    -0.065 N 
HETATM    6  H   UNL     1       5.364  29.516  56.570  1.00  0.00     0.280 HD
HETATM    7  C   UNL     1       5.316  27.461  56.359  1.00  0.00     0.246 C 
HETATM    8  C   UNL     1       4.319  28.048  53.715  1.00  0.00     0.033 C 
HETATM    9  C   UNL     1       4.244  29.097  54.834  1.00  0.00     0.236 C 
ENDROOT
BRANCH   4  10
HETATM   10  C   UNL     1       7.969  29.024  55.984  1.00  0.00     0.157 C 
BRANCH  10  11
HETATM   11  N   UNL     1       8.168  30.147  56.901  1.00  0.00    -0.341 N 
HETATM   12  C   UNL     1       7.565  30.246  58.136  1.00  0.00     0.320 C 
HETATM   13  N   UNL     1       8.031  31.327  58.837  1.00  0.00    -0.309 N 
HETATM   14  O   UNL     1       6.688  29.463  58.484  1.00  0.00    -0.247 OA
HETATM   15  H   UNL     1       8.597  31.988  58.323  1.00  0.00     0.170 HD
HETATM   16  H   UNL     1       9.090  30.566  56.861  1.00  0.00     0.164 HD
BRANCH  13  17
HETATM   17  C   UNL     1       7.696  31.710  60.153  1.00  0.00     0.036 A 
HETATM   18  C   UNL     1       8.528  31.518  61.259  1.00  0.00     0.030 A 
HETATM   19  C   UNL     1       8.123  31.927  62.538  1.00  0.00     0.017 A 
HETATM   20  C   UNL     1       6.880  32.538  62.724  1.00  0.00     0.009 A 
HETATM   21  C   UNL     1       6.050  32.738  61.616  1.00  0.00     0.017 A 
HETATM   22  C   UNL     1       6.457  32.332  60.341  1.00  0.00     0.030 A 
BRANCH  20  23
HETATM   23  C   UNL     1       6.397  32.984  64.064  1.00  0.00     0.155 C 
HETATM   24  C   UNL     1       7.319  33.784  64.947  1.00  0.00     0.096 C 
HETATM   25  O   UNL     1       5.260  32.689  64.429  1.00  0.00    -0.293 OA
ENDBRANCH  20  23
ENDBRANCH  13  17
ENDBRANCH  10  11
ENDBRANCH   4  10
BRANCH   1  26
HETATM   26  C   UNL     1       6.579  25.451  55.578  1.00  0.00     0.045 A 
HETATM   27  N   UNL     1       7.168  25.560  56.781  1.00  0.00    -0.238 NA
HETATM   28  C   UNL     1       8.089  24.634  57.111  1.00  0.00     0.123 A 
HETATM   29  C   UNL     1       8.812  24.788  58.413  1.00  0.00     0.093 C 
HETATM   30  N   UNL     1       8.386  23.565  56.361  1.00  0.00    -0.233 NA
HETATM   31  C   UNL     1       7.753  23.442  55.177  1.00  0.00     0.072 A 
HETATM   32  C   UNL     1       6.869  24.403  54.722  1.00  0.00     0.060 A 
BRANCH  31  33
HETATM   33  C   UNL     1       8.060  22.219  54.421  1.00  0.00     0.010 A 
HETATM   34  C   UNL     1       8.424  20.995  55.020  1.00  0.00     0.023 A 
HETATM   35 BR   UNL     1       8.629  20.790  56.906  1.00  0.00    -0.050 Br
HETATM   36  C   UNL     1       8.704  19.864  54.239  1.00  0.00     0.020 A 
HETATM   37  C   UNL     1       8.642  19.939  52.849  1.00  0.00     0.001 A 
HETATM   38  C   UNL     1       8.307  21.140  52.236  1.00  0.00     0.001 A 
HETATM   39  C   UNL     1       8.022  22.265  53.013  1.00  0.00     0.015 A 
ENDBRANCH  31  33
ENDBRANCH   1  26
TORSDOF 6
ENDMDL
MODEL 9
REMARK VINA RESULT:     -10.4      3.451      9.573
REMARK  6 active torsions:
REMARK  status: ('A' for Active; 'I' for Inactive)
REMARK    1  A    between atoms: C_4  and  C_5 
REMARK    2  A    between atoms: C_8  and  C_9 
REMARK    3  A    between atoms: C_9  and  N_10 
REMARK       I    between atoms: N_10  and  C_11 
REMARK       I    between atoms: C_11  and  N_12 
REMARK    4  A    between atoms: N_12  and  C_13 
REMARK    5  A    between atoms: C_16  and  C_17 
REMARK    6  A    between atoms: C_29  and  C_30 
ROOT
HETATM    1  C   UNL     1       4.963  27.775  51.339  1.00  0.00     0.068 C 
HETATM    2  C   UNL     1       5.045  29.261  50.872  1.00  0.00     0.001 C 
HETATM    3  C   UNL     1       4.807  30.255  52.033  1.00  0.00     0.040 C 
HETATM    4  C   UNL     1       3.493  29.940  52.766  1.00  0.00     0.206 C 
HETATM    5  N   UNL     1       2.803  28.828  51.973  1.00  0.00    -0.065 N 
HETATM    6  H   UNL     1       1.904  28.630  52.464  1.00  0.00     0.280 HD
HETATM    7  C   UNL     1       3.578  27.527  51.965  1.00  0.00     0.246 C 
HETATM    8  C   UNL     1       3.886  29.486  49.868  1.00  0.00     0.033 C 
HETATM    9  C   UNL     1       2.530  29.280  50.559  1.00  0.00     0.236 C 
ENDROOT
BRANCH   4  10
HETATM   10  C   UNL     1       3.685  29.601  54.269  1.00  0.00     0.157 C 
BRANCH  10  11
HETATM   11  N   UNL     1       4.783  30.294  54.945  1.00  0.00    -0.341 N 
HETATM   12  C   UNL     1       5.068  30.157  56.285  1.00  0.00     0.320 C 
HETATM   13  N   UNL     1       6.224  30.811  56.622  1.00  0.00    -0.309 N 
HETATM   14  O   UNL     1       4.313  29.557  57.042  1.00  0.00    -0.247 OA
HETATM   15  H   UNL     1       6.612  31.431  55.923  1.00  0.00     0.170 HD
HETATM   16  H   UNL     1       5.599  30.455  54.366  1.00  0.00     0.164 HD
BRANCH  13  17
HETATM   17  C   UNL     1       6.863  30.840  57.880  1.00  0.00     0.036 A 
HETATM   18  C   UNL     1       7.875  29.957  58.263  1.00  0.00     0.030 A 
HETATM   19  C   UNL     1       8.462  30.051  59.533  1.00  0.00     0.017 A 
HETATM   20  C   UNL     1       8.044  31.033  60.435  1.00  0.00     0.009 A 
HETATM   21  C   UNL     1       7.035  31.923  60.049  1.00  0.00     0.017 A 
HETATM   22  C   UNL     1       6.454  31.830  58.780  1.00  0.00     0.030 A 
BRANCH  20  23
HETATM   23  C   UNL     1       8.629  31.171  61.801  1.00  0.00     0.155 C 
HETATM   24  C   UNL     1       8.137  32.273  62.702  1.00  0.00     0.096 C 
HETATM   25  O   UNL     1       9.503  30.389  62.169  1.00  0.00    -0.293 OA
ENDBRANCH  20  23
ENDBRANCH  13  17
ENDBRANCH  10  11
ENDBRANCH   4  10
BRANCH   1  26
HETATM   26  C   UNL     1       6.046  27.288  52.282  1.00  0.00     0.045 A 
HETATM   27  N   UNL     1       6.674  28.194  53.051  1.00  0.00    -0.238 NA
HETATM   28  C   UNL     1       7.574  27.737  53.944  1.00  0.00     0.123 A 
HETATM   29  C   UNL     1       8.339  28.739  54.751  1.00  0.00     0.093 C 
HETATM   30  N   UNL     1       7.812  26.441  54.179  1.00  0.00    -0.233 NA
HETATM   31  C   UNL     1       7.139  25.540  53.434  1.00  0.00     0.072 A 
HETATM   32  C   UNL     1       6.275  25.931  52.427  1.00  0.00     0.060 A 
BRANCH  31  33
HETATM   33  C   UNL     1       7.383  24.131  53.774  1.00  0.00     0.010 A 
HETATM   34  C   UNL     1       7.259  23.604  55.076  1.00  0.00     0.023 A 
HETATM   35 BR   UNL     1       6.820  24.683  56.588  1.00  0.00    -0.050 Br
HETATM   36  C   UNL     1       7.506  22.248  55.332  1.00  0.00     0.020 A 
HETATM   37  C   UNL     1       7.894  21.398  54.299  1.00  0.00     0.001 A 
HETATM   38  C   UNL     1       8.044  21.899  53.011  1.00  0.00     0.001 A 
HETATM   39  C   UNL     1       7.793  23.249  52.754  1.00  0.00     0.015 A 
ENDBRANCH  31  33
ENDBRANCH   1  26
TORSDOF 6
ENDMDL
MODEL 10
REMARK VINA RESULT:     -10.2      3.699     10.630
REMARK  6 active torsions:
REMARK  status: ('A' for Active; 'I' for Inactive)
REMARK    1  A    between atoms: C_4  and  C_5 
REMARK    2  A    between atoms: C_8  and  C_9 
REMARK    3  A    between atoms: C_9  and  N_10 
REMARK       I    between atoms: N_10  and  C_11 
REMARK       I    between atoms: C_11  and  N_12 
REMARK    4  A    between atoms: N_12  and  C_13 
REMARK    5  A    between atoms: C_16  and  C_17 
REMARK    6  A    between atoms: C_29  and  C_30 
ROOT
HETATM    1  C   UNL     1       5.086  26.186  52.355  1.00  0.00     0.068 C 
HETATM    2  C   UNL     1       5.955  27.286  51.671  1.00  0.00     0.001 C 
HETATM    3  C   UNL     1       6.219  28.491  52.605  1.00  0.00     0.040 C 
HETATM    4  C   UNL     1       4.901  29.047  53.169  1.00  0.00     0.206 C 
HETATM    5  N   UNL     1       3.770  28.291  52.471  1.00  0.00    -0.065 N 
HETATM    6  H   UNL     1       2.879  28.684  52.845  1.00  0.00     0.280 HD
HETATM    7  C   UNL     1       3.749  26.811  52.793  1.00  0.00     0.246 C 
HETATM    8  C   UNL     1       5.133  27.838  50.478  1.00  0.00     0.033 C 
HETATM    9  C   UNL     1       3.839  28.498  50.978  1.00  0.00     0.236 C 
ENDROOT
BRANCH   4  10
HETATM   10  C   UNL     1       4.818  28.995  54.720  1.00  0.00     0.157 C 
BRANCH  10  11
HETATM   11  N   UNL     1       5.574  30.024  55.434  1.00  0.00    -0.341 N 
HETATM   12  C   UNL     1       5.452  30.268  56.784  1.00  0.00     0.320 C 
HETATM   13  N   UNL     1       6.371  31.190  57.213  1.00  0.00    -0.309 N 
HETATM   14  O   UNL     1       4.574  29.735  57.454  1.00  0.00    -0.247 OA
HETATM   15  H   UNL     1       6.881  31.686  56.495  1.00  0.00     0.170 HD
HETATM   16  H   UNL     1       6.505  30.193  55.070  1.00  0.00     0.164 HD
BRANCH  13  17
HETATM   17  C   UNL     1       6.590  31.639  58.533  1.00  0.00     0.036 A 
HETATM   18  C   UNL     1       7.703  31.292  59.303  1.00  0.00     0.030 A 
HETATM   19  C   UNL     1       7.849  31.780  60.609  1.00  0.00     0.017 A 
HETATM   20  C   UNL     1       6.882  32.626  61.160  1.00  0.00     0.009 A 
HETATM   21  C   UNL     1       5.771  32.980  60.387  1.00  0.00     0.017 A 
HETATM   22  C   UNL     1       5.629  32.494  59.083  1.00  0.00     0.030 A 
BRANCH  20  23
HETATM   23  C   UNL     1       6.985  33.166  62.548  1.00  0.00     0.155 C 
HETATM   24  C   UNL     1       7.940  32.521  63.517  1.00  0.00     0.096 C 
HETATM   25  O   UNL     1       6.288  34.123  62.880  1.00  0.00    -0.293 OA
ENDBRANCH  20  23
ENDBRANCH  13  17
ENDBRANCH  10  11
ENDBRANCH   4  10
BRANCH   1  26
HETATM   26  C   UNL     1       5.710  25.441  53.519  1.00  0.00     0.045 A 
HETATM   27  N   UNL     1       5.366  25.806  54.766  1.00  0.00    -0.238 NA
HETATM   28  C   UNL     1       5.861  25.080  55.787  1.00  0.00     0.123 A 
HETATM   29  C   UNL     1       5.552  25.522  57.183  1.00  0.00     0.093 C 
HETATM   30  N   UNL     1       6.593  23.969  55.637  1.00  0.00    -0.233 NA
HETATM   31  C   UNL     1       6.892  23.586  54.379  1.00  0.00     0.072 A 
HETATM   32  C   UNL     1       6.507  24.335  53.282  1.00  0.00     0.060 A 
BRANCH  31  33
HETATM   33  C   UNL     1       7.639  22.325  54.263  1.00  0.00     0.010 A 
HETATM   34  C   UNL     1       8.306  21.704  55.339  1.00  0.00     0.023 A 
HETATM   35 BR   UNL     1       8.378  22.468  57.086  1.00  0.00    -0.050 Br
HETATM   36  C   UNL     1       9.001  20.500  55.159  1.00  0.00     0.020 A 
HETATM   37  C   UNL     1       9.055  19.903  53.902  1.00  0.00     0.001 A 
HETATM   38  C   UNL     1       8.424  20.507  52.821  1.00  0.00     0.001 A 
HETATM   39  C   UNL     1       7.727  21.704  53.000  1.00  0.00     0.015 A 
ENDBRANCH  31  33
ENDBRANCH   1  26
TORSDOF 6
ENDMDL
