MODEL 1
REMARK VINA RESULT:      -8.9      0.000      0.000
REMARK  8 active torsions:
REMARK  status: ('A' for Active; 'I' for Inactive)
REMARK    1  A    between atoms: N_3  and  C_4 
REMARK    2  A    between atoms: C_4  and  C_5 
REMARK    3  A    between atoms: C_5  and  O_6 
REMARK    4  A    between atoms: C_11  and  C_12 
REMARK    5  A    between atoms: C_13  and  C_14 
REMARK    6  A    between atoms: C_22  and  C_23 
REMARK       I    between atoms: C_23  and  N_24 
REMARK    7  A    between atoms: N_24  and  C_25 
REMARK    8  A    between atoms: C_26  and  O_27 
ROOT
HETATM    1  C   UNL     1       7.532  26.093  57.799  1.00  0.00     0.069 C 
HETATM    2  C   UNL     1       7.748  26.917  56.551  1.00  0.00     0.026 C 
HETATM    3  N   UNL     1       8.324  28.194  56.643  1.00  0.00    -0.301 N 
HETATM    4  C   UNL     1       8.636  28.956  55.512  1.00  0.00     0.323 C 
HETATM    5  O   UNL     1       9.166  30.065  55.530  1.00  0.00    -0.247 OA
HETATM    6  N   UNL     1       8.329  28.409  54.303  1.00  0.00    -0.330 N 
HETATM    7  C   UNL     1       7.408  27.318  54.106  1.00  0.00     0.161 C 
HETATM    8  C   UNL     1       7.368  26.472  55.334  1.00  0.00     0.059 C 
HETATM    9  H   UNL     1       8.521  29.025  53.527  1.00  0.00     0.165 HD
ENDROOT
BRANCH   8  10
HETATM   10  C   UNL     1       6.930  25.067  55.122  1.00  0.00     0.256 C 
HETATM   11  N   UNL     1       7.936  24.314  54.547  1.00  0.00    -0.321 N 
HETATM   12  H   UNL     1       8.693  24.831  54.116  1.00  0.00     0.169 HD
HETATM   13  O   UNL     1       5.771  24.744  55.336  1.00  0.00    -0.267 OA
BRANCH  11  14
HETATM   14  C   UNL     1       7.956  22.916  54.356  1.00  0.00     0.068 A 
HETATM   15  C   UNL     1       8.071  21.968  55.385  1.00  0.00     0.095 A 
HETATM   16  C   UNL     1       8.118  20.602  55.074  1.00  0.00     0.039 A 
HETATM   17  C   UNL     1       8.040  20.173  53.750  1.00  0.00     0.003 A 
HETATM   18  C   UNL     1       7.948  21.108  52.724  1.00  0.00     0.002 A 
HETATM   19  C   UNL     1       7.921  22.472  53.026  1.00  0.00     0.032 A 
BRANCH  15  20
HETATM   20  O   UNL     1       8.336  22.379  56.666  1.00  0.00    -0.354 OA
HETATM   21  C   UNL     1       8.360  21.293  57.593  1.00  0.00     0.210 C 
ENDBRANCH  15  20
ENDBRANCH  11  14
ENDBRANCH   8  10
BRANCH   7  22
HETATM   22  C   UNL     1       6.046  27.859  53.662  1.00  0.00    -0.016 A 
HETATM   23  C   UNL     1       5.327  27.293  52.579  1.00  0.00     0.056 A 
HETATM   24  C   UNL     1       4.080  27.842  52.218  1.00  0.00     0.017 A 
HETATM   25  C   UNL     1       3.548  28.934  52.900  1.00  0.00     0.001 A 
HETATM   26  C   UNL     1       4.254  29.500  53.953  1.00  0.00     0.001 A 
HETATM   27  C   UNL     1       5.487  28.971  54.329  1.00  0.00     0.010 A 
BRANCH  23  28
HETATM   28  C   UNL     1       5.868  26.129  51.777  1.00  0.00     0.418 C 
HETATM   29  F   UNL     1       5.407  24.934  52.244  1.00  0.00    -0.166 F 
HETATM   30  F   UNL     1       5.518  26.172  50.464  1.00  0.00    -0.166 F 
HETATM   31  F   UNL     1       7.227  26.029  51.796  1.00  0.00    -0.166 F 
ENDBRANCH  23  28
ENDBRANCH   7  22
BRANCH   3  32
HETATM   32  C   UNL     1       8.752  28.763  57.932  1.00  0.00     0.160 C 
BRANCH  32  33
HETATM   33  C   UNL     1       7.754  29.752  58.555  1.00  0.00     0.187 C 
BRANCH  33  34
HETATM   34  O   UNL     1       8.399  30.611  59.494  1.00  0.00    -0.394 OA
HETATM   35  C   UNL     1       9.434  31.373  58.889  1.00  0.00     0.201 C 
ENDBRANCH  33  34
ENDBRANCH  32  33
ENDBRANCH   3  32
TORSDOF 8
ENDMDL
MODEL 2
REMARK VINA RESULT:      -8.3      3.188      5.373
REMARK  8 active torsions:
REMARK  status: ('A' for Active; 'I' for Inactive)
REMARK    1  A    between atoms: N_3  and  C_4 
REMARK    2  A    between atoms: C_4  and  C_5 
REMARK    3  A    between atoms: C_5  and  O_6 
REMARK    4  A    between atoms: C_11  and  C_12 
REMARK    5  A    between atoms: C_13  and  C_14 
REMARK    6  A    between atoms: C_22  and  C_23 
REMARK       I    between atoms: C_23  and  N_24 
REMARK    7  A    between atoms: N_24  and  C_25 
REMARK    8  A    between atoms: C_26  and  O_27 
ROOT
HETATM    1  C   UNL     1       5.213  26.177  50.290  1.00  0.00     0.069 C 
HETATM    2  C   UNL     1       4.877  27.128  51.416  1.00  0.00     0.026 C 
HETATM    3  N   UNL     1       4.522  28.456  51.130  1.00  0.00    -0.301 N 
HETATM    4  C   UNL     1       4.107  29.348  52.125  1.00  0.00     0.323 C 
HETATM    5  O   UNL     1       3.757  30.511  51.932  1.00  0.00    -0.247 OA
HETATM    6  N   UNL     1       4.088  28.873  53.401  1.00  0.00    -0.330 N 
HETATM    7  C   UNL     1       4.784  27.694  53.850  1.00  0.00     0.161 C 
HETATM    8  C   UNL     1       4.942  26.746  52.709  1.00  0.00     0.059 C 
HETATM    9  H   UNL     1       3.838  29.576  54.083  1.00  0.00     0.165 HD
ENDROOT
BRANCH   8  10
HETATM   10  C   UNL     1       5.122  25.320  53.090  1.00  0.00     0.256 C 
HETATM   11  N   UNL     1       6.460  25.011  53.239  1.00  0.00    -0.321 N 
HETATM   12  H   UNL     1       7.119  25.663  52.833  1.00  0.00     0.169 HD
HETATM   13  O   UNL     1       4.163  24.562  53.115  1.00  0.00    -0.267 OA
BRANCH  11  14
HETATM   14  C   UNL     1       7.010  23.818  53.756  1.00  0.00     0.068 A 
HETATM   15  C   UNL     1       7.043  23.473  55.116  1.00  0.00     0.095 A 
HETATM   16  C   UNL     1       7.650  22.277  55.520  1.00  0.00     0.039 A 
HETATM   17  C   UNL     1       8.216  21.417  54.579  1.00  0.00     0.003 A 
HETATM   18  C   UNL     1       8.206  21.763  53.232  1.00  0.00     0.002 A 
HETATM   19  C   UNL     1       7.620  22.963  52.825  1.00  0.00     0.032 A 
BRANCH  15  20
HETATM   20  O   UNL     1       6.662  24.391  56.062  1.00  0.00    -0.354 OA
HETATM   21  C   UNL     1       7.776  25.075  56.635  1.00  0.00     0.210 C 
ENDBRANCH  15  20
ENDBRANCH  11  14
ENDBRANCH   8  10
BRANCH   7  22
HETATM   22  C   UNL     1       6.096  28.091  54.533  1.00  0.00    -0.016 A 
HETATM   23  C   UNL     1       6.162  28.402  55.914  1.00  0.00     0.056 A 
HETATM   24  C   UNL     1       7.401  28.766  56.481  1.00  0.00     0.017 A 
HETATM   25  C   UNL     1       8.557  28.833  55.705  1.00  0.00     0.001 A 
HETATM   26  C   UNL     1       8.495  28.542  54.349  1.00  0.00     0.001 A 
HETATM   27  C   UNL     1       7.281  28.176  53.769  1.00  0.00     0.010 A 
BRANCH  23  28
HETATM   28  C   UNL     1       4.936  28.382  56.801  1.00  0.00     0.418 C 
HETATM   29  F   UNL     1       4.425  27.124  56.930  1.00  0.00    -0.166 F 
HETATM   30  F   UNL     1       5.181  28.812  58.067  1.00  0.00    -0.166 F 
HETATM   31  F   UNL     1       3.908  29.148  56.341  1.00  0.00    -0.166 F 
ENDBRANCH  23  28
ENDBRANCH   7  22
BRANCH   3  32
HETATM   32  C   UNL     1       4.443  28.960  49.749  1.00  0.00     0.160 C 
BRANCH  32  33
HETATM   33  C   UNL     1       5.795  29.363  49.139  1.00  0.00     0.187 C 
BRANCH  33  34
HETATM   34  O   UNL     1       6.375  30.455  49.850  1.00  0.00    -0.394 OA
HETATM   35  C   UNL     1       5.886  31.706  49.388  1.00  0.00     0.201 C 
ENDBRANCH  33  34
ENDBRANCH  32  33
ENDBRANCH   3  32
TORSDOF 8
ENDMDL
MODEL 3
REMARK VINA RESULT:      -7.8      5.512      9.534
REMARK  8 active torsions:
REMARK  status: ('A' for Active; 'I' for Inactive)
REMARK    1  A    between atoms: N_3  and  C_4 
REMARK    2  A    between atoms: C_4  and  C_5 
REMARK    3  A    between atoms: C_5  and  O_6 
REMARK    4  A    between atoms: C_11  and  C_12 
REMARK    5  A    between atoms: C_13  and  C_14 
REMARK    6  A    between atoms: C_22  and  C_23 
REMARK       I    between atoms: C_23  and  N_24 
REMARK    7  A    between atoms: N_24  and  C_25 
REMARK    8  A    between atoms: C_26  and  O_27 
ROOT
HETATM    1  C   UNL     1       8.480  29.900  58.478  1.00  0.00     0.069 C 
HETATM    2  C   UNL     1       7.001  29.982  58.177  1.00  0.00     0.026 C 
HETATM    3  N   UNL     1       6.411  29.057  57.302  1.00  0.00    -0.301 N 
HETATM    4  C   UNL     1       5.032  29.027  57.066  1.00  0.00     0.323 C 
HETATM    5  O   UNL     1       4.456  28.224  56.335  1.00  0.00    -0.247 OA
HETATM    6  N   UNL     1       4.282  29.963  57.712  1.00  0.00    -0.330 N 
HETATM    7  C   UNL     1       4.804  31.170  58.303  1.00  0.00     0.161 C 
HETATM    8  C   UNL     1       6.224  30.952  58.704  1.00  0.00     0.059 C 
HETATM    9  H   UNL     1       3.305  29.933  57.459  1.00  0.00     0.165 HD
ENDROOT
BRANCH   8  10
HETATM   10  C   UNL     1       6.722  31.849  59.780  1.00  0.00     0.256 C 
HETATM   11  N   UNL     1       6.032  31.642  60.959  1.00  0.00    -0.321 N 
HETATM   12  H   UNL     1       5.153  31.145  60.883  1.00  0.00     0.169 HD
HETATM   13  O   UNL     1       7.547  32.716  59.529  1.00  0.00    -0.267 OA
BRANCH  11  14
HETATM   14  C   UNL     1       6.331  32.176  62.231  1.00  0.00     0.068 A 
HETATM   15  C   UNL     1       5.375  32.605  63.166  1.00  0.00     0.095 A 
HETATM   16  C   UNL     1       5.789  33.156  64.386  1.00  0.00     0.039 A 
HETATM   17  C   UNL     1       7.146  33.271  64.688  1.00  0.00     0.003 A 
HETATM   18  C   UNL     1       8.098  32.867  63.758  1.00  0.00     0.002 A 
HETATM   19  C   UNL     1       7.692  32.336  62.531  1.00  0.00     0.032 A 
BRANCH  15  20
HETATM   20  O   UNL     1       4.053  32.673  62.808  1.00  0.00    -0.354 OA
HETATM   21  C   UNL     1       3.462  33.928  63.141  1.00  0.00     0.210 C 
ENDBRANCH  15  20
ENDBRANCH  11  14
ENDBRANCH   8  10
BRANCH   7  22
HETATM   22  C   UNL     1       4.586  32.352  57.354  1.00  0.00    -0.016 A 
HETATM   23  C   UNL     1       3.991  33.564  57.786  1.00  0.00     0.056 A 
HETATM   24  C   UNL     1       3.814  34.613  56.860  1.00  0.00     0.017 A 
HETATM   25  C   UNL     1       4.203  34.475  55.530  1.00  0.00     0.001 A 
HETATM   26  C   UNL     1       4.774  33.284  55.099  1.00  0.00     0.001 A 
HETATM   27  C   UNL     1       4.962  32.236  55.998  1.00  0.00     0.010 A 
BRANCH  23  28
HETATM   28  C   UNL     1       3.515  33.763  59.209  1.00  0.00     0.418 C 
HETATM   29  F   UNL     1       4.515  34.213  60.020  1.00  0.00    -0.166 F 
HETATM   30  F   UNL     1       2.513  34.675  59.318  1.00  0.00    -0.166 F 
HETATM   31  F   UNL     1       3.050  32.626  59.799  1.00  0.00    -0.166 F 
ENDBRANCH  23  28
ENDBRANCH   7  22
BRANCH   3  32
HETATM   32  C   UNL     1       7.189  27.978  56.670  1.00  0.00     0.160 C 
BRANCH  32  33
HETATM   33  C   UNL     1       7.119  26.629  57.402  1.00  0.00     0.187 C 
BRANCH  33  34
HETATM   34  O   UNL     1       8.420  26.181  57.779  1.00  0.00    -0.394 OA
HETATM   35  C   UNL     1       8.651  24.836  57.383  1.00  0.00     0.201 C 
ENDBRANCH  33  34
ENDBRANCH  32  33
ENDBRANCH   3  32
TORSDOF 8
ENDMDL
MODEL 4
REMARK VINA RESULT:      -7.8      3.953      6.782
REMARK  8 active torsions:
REMARK  status: ('A' for Active; 'I' for Inactive)
REMARK    1  A    between atoms: N_3  and  C_4 
REMARK    2  A    between atoms: C_4  and  C_5 
REMARK    3  A    between atoms: C_5  and  O_6 
REMARK    4  A    between atoms: C_11  and  C_12 
REMARK    5  A    between atoms: C_13  and  C_14 
REMARK    6  A    between atoms: C_22  and  C_23 
REMARK       I    between atoms: C_23  and  N_24 
REMARK    7  A    between atoms: N_24  and  C_25 
REMARK    8  A    between atoms: C_26  and  O_27 
ROOT
HETATM    1  C   UNL     1       5.464  27.803  49.433  1.00  0.00     0.069 C 
HETATM    2  C   UNL     1       4.308  28.258  50.295  1.00  0.00     0.026 C 
HETATM    3  N   UNL     1       3.126  28.722  49.697  1.00  0.00    -0.301 N 
HETATM    4  C   UNL     1       1.994  29.061  50.445  1.00  0.00     0.323 C 
HETATM    5  O   UNL     1       0.924  29.445  49.977  1.00  0.00    -0.247 OA
HETATM    6  N   UNL     1       2.099  28.944  51.798  1.00  0.00    -0.330 N 
HETATM    7  C   UNL     1       3.342  28.861  52.522  1.00  0.00     0.161 C 
HETATM    8  C   UNL     1       4.390  28.264  51.643  1.00  0.00     0.059 C 
HETATM    9  H   UNL     1       1.274  29.257  52.290  1.00  0.00     0.165 HD
ENDROOT
BRANCH   8  10
HETATM   10  C   UNL     1       5.522  27.617  52.356  1.00  0.00     0.256 C 
HETATM   11  N   UNL     1       5.221  26.307  52.680  1.00  0.00    -0.321 N 
HETATM   12  H   UNL     1       4.242  26.050  52.646  1.00  0.00     0.169 HD
HETATM   13  O   UNL     1       6.499  28.272  52.687  1.00  0.00    -0.267 OA
BRANCH  11  14
HETATM   14  C   UNL     1       6.098  25.331  53.201  1.00  0.00     0.068 A 
HETATM   15  C   UNL     1       6.167  24.953  54.551  1.00  0.00     0.095 A 
HETATM   16  C   UNL     1       7.105  23.997  54.962  1.00  0.00     0.039 A 
HETATM   17  C   UNL     1       7.967  23.407  54.038  1.00  0.00     0.003 A 
HETATM   18  C   UNL     1       7.918  23.792  52.703  1.00  0.00     0.002 A 
HETATM   19  C   UNL     1       6.999  24.760  52.290  1.00  0.00     0.032 A 
BRANCH  15  20
HETATM   20  O   UNL     1       5.461  25.657  55.493  1.00  0.00    -0.354 OA
HETATM   21  C   UNL     1       5.683  25.169  56.816  1.00  0.00     0.210 C 
ENDBRANCH  15  20
ENDBRANCH  11  14
ENDBRANCH   8  10
BRANCH   7  22
HETATM   22  C   UNL     1       3.702  30.232  53.099  1.00  0.00    -0.016 A 
HETATM   23  C   UNL     1       4.140  30.395  54.438  1.00  0.00     0.056 A 
HETATM   24  C   UNL     1       4.451  31.687  54.910  1.00  0.00     0.017 A 
HETATM   25  C   UNL     1       4.326  32.804  54.087  1.00  0.00     0.001 A 
HETATM   26  C   UNL     1       3.885  32.652  52.779  1.00  0.00     0.001 A 
HETATM   27  C   UNL     1       3.576  31.383  52.291  1.00  0.00     0.010 A 
BRANCH  23  28
HETATM   28  C   UNL     1       4.261  29.225  55.390  1.00  0.00     0.418 C 
HETATM   29  F   UNL     1       3.748  29.518  56.620  1.00  0.00    -0.166 F 
HETATM   30  F   UNL     1       3.597  28.117  54.968  1.00  0.00    -0.166 F 
HETATM   31  F   UNL     1       5.544  28.826  55.615  1.00  0.00    -0.166 F 
ENDBRANCH  23  28
ENDBRANCH   7  22
BRANCH   3  32
HETATM   32  C   UNL     1       2.959  28.765  48.235  1.00  0.00     0.160 C 
BRANCH  32  33
HETATM   33  C   UNL     1       2.265  27.532  47.636  1.00  0.00     0.187 C 
BRANCH  33  34
HETATM   34  O   UNL     1       3.198  26.696  46.954  1.00  0.00    -0.394 OA
HETATM   35  C   UNL     1       3.251  25.393  47.519  1.00  0.00     0.201 C 
ENDBRANCH  33  34
ENDBRANCH  32  33
ENDBRANCH   3  32
TORSDOF 8
ENDMDL
MODEL 5
REMARK VINA RESULT:      -7.7      2.820      6.620
REMARK  8 active torsions:
REMARK  status: ('A' for Active; 'I' for Inactive)
REMARK    1  A    between atoms: N_3  and  C_4 
REMARK    2  A    between atoms: C_4  and  C_5 
REMARK    3  A    between atoms: C_5  and  O_6 
REMARK    4  A    between atoms: C_11  and  C_12 
REMARK    5  A    between atoms: C_13  and  C_14 
REMARK    6  A    between atoms: C_22  and  C_23 
REMARK       I    between atoms: C_23  and  N_24 
REMARK    7  A    between atoms: N_24  and  C_25 
REMARK    8  A    between atoms: C_26  and  O_27 
ROOT
HETATM    1  C   UNL     1       6.939  22.657  53.125  1.00  0.00     0.069 C 
HETATM    2  C   UNL     1       7.480  23.471  54.278  1.00  0.00     0.026 C 
HETATM    3  N   UNL     1       7.806  22.841  55.489  1.00  0.00    -0.301 N 
HETATM    4  C   UNL     1       8.401  23.530  56.553  1.00  0.00     0.323 C 
HETATM    5  O   UNL     1       8.734  23.027  57.624  1.00  0.00    -0.247 OA
HETATM    6  N   UNL     1       8.629  24.859  56.367  1.00  0.00    -0.330 N 
HETATM    7  C   UNL     1       7.998  25.668  55.354  1.00  0.00     0.161 C 
HETATM    8  C   UNL     1       7.630  24.810  54.191  1.00  0.00     0.059 C 
HETATM    9  H   UNL     1       9.004  25.317  57.185  1.00  0.00     0.165 HD
ENDROOT
BRANCH   8  10
HETATM   10  C   UNL     1       7.492  25.524  52.895  1.00  0.00     0.256 C 
HETATM   11  N   UNL     1       6.175  25.867  52.655  1.00  0.00    -0.321 N 
HETATM   12  H   UNL     1       5.478  25.386  53.209  1.00  0.00     0.169 HD
HETATM   13  O   UNL     1       8.451  25.631  52.144  1.00  0.00    -0.267 OA
BRANCH  11  14
HETATM   14  C   UNL     1       5.681  26.695  51.623  1.00  0.00     0.068 A 
HETATM   15  C   UNL     1       5.594  28.094  51.691  1.00  0.00     0.095 A 
HETATM   16  C   UNL     1       5.049  28.813  50.618  1.00  0.00     0.039 A 
HETATM   17  C   UNL     1       4.601  28.151  49.476  1.00  0.00     0.003 A 
HETATM   18  C   UNL     1       4.664  26.763  49.412  1.00  0.00     0.002 A 
HETATM   19  C   UNL     1       5.188  26.039  50.485  1.00  0.00     0.032 A 
BRANCH  15  20
HETATM   20  O   UNL     1       5.854  28.738  52.873  1.00  0.00    -0.354 OA
HETATM   21  C   UNL     1       4.677  29.293  53.461  1.00  0.00     0.210 C 
ENDBRANCH  15  20
ENDBRANCH  11  14
ENDBRANCH   8  10
BRANCH   7  22
HETATM   22  C   UNL     1       6.830  26.448  55.962  1.00  0.00    -0.016 A 
HETATM   23  C   UNL     1       6.897  27.845  56.196  1.00  0.00     0.056 A 
HETATM   24  C   UNL     1       5.787  28.503  56.765  1.00  0.00     0.017 A 
HETATM   25  C   UNL     1       4.632  27.804  57.109  1.00  0.00     0.001 A 
HETATM   26  C   UNL     1       4.566  26.434  56.894  1.00  0.00     0.001 A 
HETATM   27  C   UNL     1       5.650  25.764  56.330  1.00  0.00     0.010 A 
BRANCH  23  28
HETATM   28  C   UNL     1       8.136  28.653  55.877  1.00  0.00     0.418 C 
HETATM   29  F   UNL     1       7.956  29.980  56.137  1.00  0.00    -0.166 F 
HETATM   30  F   UNL     1       9.224  28.280  56.603  1.00  0.00    -0.166 F 
HETATM   31  F   UNL     1       8.520  28.585  54.572  1.00  0.00    -0.166 F 
ENDBRANCH  23  28
ENDBRANCH   7  22
BRANCH   3  32
HETATM   32  C   UNL     1       7.656  21.388  55.676  1.00  0.00     0.160 C 
BRANCH  32  33
HETATM   33  C   UNL     1       8.934  20.576  55.413  1.00  0.00     0.187 C 
BRANCH  33  34
HETATM   34  O   UNL     1       8.724  19.605  54.390  1.00  0.00    -0.394 OA
HETATM   35  C   UNL     1       8.920  20.152  53.093  1.00  0.00     0.201 C 
ENDBRANCH  33  34
ENDBRANCH  32  33
ENDBRANCH   3  32
TORSDOF 8
ENDMDL
MODEL 6
REMARK VINA RESULT:      -7.6      3.056      4.510
REMARK  8 active torsions:
REMARK  status: ('A' for Active; 'I' for Inactive)
REMARK    1  A    between atoms: N_3  and  C_4 
REMARK    2  A    between atoms: C_4  and  C_5 
REMARK    3  A    between atoms: C_5  and  O_6 
REMARK    4  A    between atoms: C_11  and  C_12 
REMARK    5  A    between atoms: C_13  and  C_14 
REMARK    6  A    between atoms: C_22  and  C_23 
REMARK       I    between atoms: C_23  and  N_24 
REMARK    7  A    between atoms: N_24  and  C_25 
REMARK    8  A    between atoms: C_26  and  O_27 
ROOT
HETATM    1  C   UNL     1       4.050  28.575  55.437  1.00  0.00     0.069 C 
HETATM    2  C   UNL     1       4.334  29.232  54.106  1.00  0.00     0.026 C 
HETATM    3  N   UNL     1       4.217  30.624  53.970  1.00  0.00    -0.301 N 
HETATM    4  C   UNL     1       4.562  31.291  52.790  1.00  0.00     0.323 C 
HETATM    5  O   UNL     1       4.508  32.508  52.622  1.00  0.00    -0.247 OA
HETATM    6  N   UNL     1       4.999  30.518  51.757  1.00  0.00    -0.330 N 
HETATM    7  C   UNL     1       4.793  29.095  51.651  1.00  0.00     0.161 C 
HETATM    8  C   UNL     1       4.670  28.508  53.016  1.00  0.00     0.059 C 
HETATM    9  H   UNL     1       5.178  31.044  50.914  1.00  0.00     0.165 HD
ENDROOT
BRANCH   8  10
HETATM   10  C   UNL     1       5.001  27.062  53.116  1.00  0.00     0.256 C 
HETATM   11  N   UNL     1       6.351  26.876  53.343  1.00  0.00    -0.321 N 
HETATM   12  H   UNL     1       6.952  27.668  53.151  1.00  0.00     0.169 HD
HETATM   13  O   UNL     1       4.150  26.216  52.883  1.00  0.00    -0.267 OA
BRANCH  11  14
HETATM   14  C   UNL     1       7.007  25.667  53.663  1.00  0.00     0.068 A 
HETATM   15  C   UNL     1       7.295  25.231  54.966  1.00  0.00     0.095 A 
HETATM   16  C   UNL     1       7.986  24.028  55.164  1.00  0.00     0.039 A 
HETATM   17  C   UNL     1       8.382  23.251  54.076  1.00  0.00     0.003 A 
HETATM   18  C   UNL     1       8.118  23.687  52.782  1.00  0.00     0.002 A 
HETATM   19  C   UNL     1       7.448  24.895  52.577  1.00  0.00     0.032 A 
BRANCH  15  20
HETATM   20  O   UNL     1       7.082  26.071  56.029  1.00  0.00    -0.354 OA
HETATM   21  C   UNL     1       6.016  25.626  56.869  1.00  0.00     0.210 C 
ENDBRANCH  15  20
ENDBRANCH  11  14
ENDBRANCH   8  10
BRANCH   7  22
HETATM   22  C   UNL     1       3.607  28.808  50.727  1.00  0.00    -0.016 A 
HETATM   23  C   UNL     1       3.734  28.007  49.564  1.00  0.00     0.056 A 
HETATM   24  C   UNL     1       2.603  27.786  48.751  1.00  0.00     0.017 A 
HETATM   25  C   UNL     1       1.368  28.347  49.067  1.00  0.00     0.001 A 
HETATM   26  C   UNL     1       1.240  29.143  50.198  1.00  0.00     0.001 A 
HETATM   27  C   UNL     1       2.345  29.372  51.017  1.00  0.00     0.010 A 
BRANCH  23  28
HETATM   28  C   UNL     1       5.057  27.400  49.149  1.00  0.00     0.418 C 
HETATM   29  F   UNL     1       6.028  28.348  49.008  1.00  0.00    -0.166 F 
HETATM   30  F   UNL     1       5.543  26.504  50.049  1.00  0.00    -0.166 F 
HETATM   31  F   UNL     1       5.013  26.742  47.957  1.00  0.00    -0.166 F 
ENDBRANCH  23  28
ENDBRANCH   7  22
BRANCH   3  32
HETATM   32  C   UNL     1       3.839  31.487  55.102  1.00  0.00     0.160 C 
BRANCH  32  33
HETATM   33  C   UNL     1       2.335  31.784  55.203  1.00  0.00     0.187 C 
BRANCH  33  34
HETATM   34  O   UNL     1       2.085  32.881  56.080  1.00  0.00    -0.394 OA
HETATM   35  C   UNL     1       3.281  33.368  56.672  1.00  0.00     0.201 C 
ENDBRANCH  33  34
ENDBRANCH  32  33
ENDBRANCH   3  32
TORSDOF 8
ENDMDL
MODEL 7
REMARK VINA RESULT:      -7.5      3.042      7.407
REMARK  8 active torsions:
REMARK  status: ('A' for Active; 'I' for Inactive)
REMARK    1  A    between atoms: N_3  and  C_4 
REMARK    2  A    between atoms: C_4  and  C_5 
REMARK    3  A    between atoms: C_5  and  O_6 
REMARK    4  A    between atoms: C_11  and  C_12 
REMARK    5  A    between atoms: C_13  and  C_14 
REMARK    6  A    between atoms: C_22  and  C_23 
REMARK       I    between atoms: C_23  and  N_24 
REMARK    7  A    between atoms: N_24  and  C_25 
REMARK    8  A    between atoms: C_26  and  O_27 
ROOT
HETATM    1  C   UNL     1       8.654  26.997  57.020  1.00  0.00     0.069 C 
HETATM    2  C   UNL     1       7.144  26.982  56.958  1.00  0.00     0.026 C 
HETATM    3  N   UNL     1       6.458  25.761  56.860  1.00  0.00    -0.301 N 
HETATM    4  C   UNL     1       5.061  25.685  56.898  1.00  0.00     0.323 C 
HETATM    5  O   UNL     1       4.407  24.645  56.846  1.00  0.00    -0.247 OA
HETATM    6  N   UNL     1       4.388  26.864  57.009  1.00  0.00    -0.330 N 
HETATM    7  C   UNL     1       4.950  28.161  56.728  1.00  0.00     0.161 C 
HETATM    8  C   UNL     1       6.424  28.124  56.958  1.00  0.00     0.059 C 
HETATM    9  H   UNL     1       3.385  26.754  56.972  1.00  0.00     0.165 HD
ENDROOT
BRANCH   8  10
HETATM   10  C   UNL     1       7.053  29.439  57.249  1.00  0.00     0.256 C 
HETATM   11  N   UNL     1       7.109  29.673  58.610  1.00  0.00    -0.321 N 
HETATM   12  H   UNL     1       6.511  29.097  59.189  1.00  0.00     0.169 HD
HETATM   13  O   UNL     1       7.332  30.205  56.338  1.00  0.00    -0.267 OA
BRANCH  11  14
HETATM   14  C   UNL     1       7.783  30.722  59.270  1.00  0.00     0.068 A 
HETATM   15  C   UNL     1       9.162  30.970  59.183  1.00  0.00     0.095 A 
HETATM   16  C   UNL     1       9.732  32.020  59.915  1.00  0.00     0.039 A 
HETATM   17  C   UNL     1       8.938  32.833  60.724  1.00  0.00     0.003 A 
HETATM   18  C   UNL     1       7.575  32.580  60.832  1.00  0.00     0.002 A 
HETATM   19  C   UNL     1       7.004  31.522  60.121  1.00  0.00     0.032 A 
BRANCH  15  20
HETATM   20  O   UNL     1       9.978  30.070  58.546  1.00  0.00    -0.354 OA
HETATM   21  C   UNL     1      10.661  30.647  57.433  1.00  0.00     0.210 C 
ENDBRANCH  15  20
ENDBRANCH  11  14
ENDBRANCH   8  10
BRANCH   7  22
HETATM   22  C   UNL     1       4.537  28.615  55.326  1.00  0.00    -0.016 A 
HETATM   23  C   UNL     1       3.826  29.822  55.104  1.00  0.00     0.056 A 
HETATM   24  C   UNL     1       3.470  30.180  53.788  1.00  0.00     0.017 A 
HETATM   25  C   UNL     1       3.797  29.366  52.705  1.00  0.00     0.001 A 
HETATM   26  C   UNL     1       4.482  28.177  52.918  1.00  0.00     0.001 A 
HETATM   27  C   UNL     1       4.846  27.806  54.211  1.00  0.00     0.010 A 
BRANCH  23  28
HETATM   28  C   UNL     1       3.412  30.730  56.242  1.00  0.00     0.418 C 
HETATM   29  F   UNL     1       2.628  31.759  55.809  1.00  0.00    -0.166 F 
HETATM   30  F   UNL     1       2.689  30.094  57.202  1.00  0.00    -0.166 F 
HETATM   31  F   UNL     1       4.457  31.315  56.891  1.00  0.00    -0.166 F 
ENDBRANCH  23  28
ENDBRANCH   7  22
BRANCH   3  32
HETATM   32  C   UNL     1       7.166  24.471  56.836  1.00  0.00     0.160 C 
BRANCH  32  33
HETATM   33  C   UNL     1       7.424  23.910  55.429  1.00  0.00     0.187 C 
BRANCH  33  34
HETATM   34  O   UNL     1       7.453  22.484  55.440  1.00  0.00    -0.394 OA
HETATM   35  C   UNL     1       8.577  21.973  54.737  1.00  0.00     0.201 C 
ENDBRANCH  33  34
ENDBRANCH  32  33
ENDBRANCH   3  32
TORSDOF 8
ENDMDL
MODEL 8
REMARK VINA RESULT:      -7.4      7.913     11.541
REMARK  8 active torsions:
REMARK  status: ('A' for Active; 'I' for Inactive)
REMARK    1  A    between atoms: N_3  and  C_4 
REMARK    2  A    between atoms: C_4  and  C_5 
REMARK    3  A    between atoms: C_5  and  O_6 
REMARK    4  A    between atoms: C_11  and  C_12 
REMARK    5  A    between atoms: C_13  and  C_14 
REMARK    6  A    between atoms: C_22  and  C_23 
REMARK       I    between atoms: C_23  and  N_24 
REMARK    7  A    between atoms: N_24  and  C_25 
REMARK    8  A    between atoms: C_26  and  O_27 
ROOT
HETATM    1  C   UNL     1       4.357  33.936  57.409  1.00  0.00     0.069 C 
HETATM    2  C   UNL     1       3.595  34.443  58.611  1.00  0.00     0.026 C 
HETATM    3  N   UNL     1       2.613  35.433  58.453  1.00  0.00    -0.301 N 
HETATM    4  C   UNL     1       1.811  35.865  59.516  1.00  0.00     0.323 C 
HETATM    5  O   UNL     1       0.918  36.706  59.432  1.00  0.00    -0.247 OA
HETATM    6  N   UNL     1       2.047  35.295  60.730  1.00  0.00    -0.330 N 
HETATM    7  C   UNL     1       3.250  34.584  61.084  1.00  0.00     0.161 C 
HETATM    8  C   UNL     1       3.856  33.991  59.857  1.00  0.00     0.059 C 
HETATM    9  H   UNL     1       1.482  35.687  61.470  1.00  0.00     0.165 HD
ENDROOT
BRANCH   8  10
HETATM   10  C   UNL     1       4.738  32.818  60.089  1.00  0.00     0.256 C 
HETATM   11  N   UNL     1       6.037  33.215  60.343  1.00  0.00    -0.321 N 
HETATM   12  H   UNL     1       6.274  34.165  60.086  1.00  0.00     0.169 HD
HETATM   13  O   UNL     1       4.312  31.683  59.925  1.00  0.00    -0.267 OA
BRANCH  11  14
HETATM   14  C   UNL     1       7.110  32.406  60.775  1.00  0.00     0.068 A 
HETATM   15  C   UNL     1       7.991  31.720  59.924  1.00  0.00     0.095 A 
HETATM   16  C   UNL     1       9.001  30.913  60.466  1.00  0.00     0.039 A 
HETATM   17  C   UNL     1       9.146  30.792  61.848  1.00  0.00     0.003 A 
HETATM   18  C   UNL     1       8.263  31.452  62.696  1.00  0.00     0.002 A 
HETATM   19  C   UNL     1       7.242  32.242  62.163  1.00  0.00     0.032 A 
BRANCH  15  20
HETATM   20  O   UNL     1       7.744  31.679  58.576  1.00  0.00    -0.354 OA
HETATM   21  C   UNL     1       7.186  30.432  58.162  1.00  0.00     0.210 C 
ENDBRANCH  15  20
ENDBRANCH  11  14
ENDBRANCH   8  10
BRANCH   7  22
HETATM   22  C   UNL     1       4.184  35.502  61.876  1.00  0.00    -0.016 A 
HETATM   23  C   UNL     1       4.540  35.235  63.222  1.00  0.00     0.056 A 
HETATM   24  C   UNL     1       5.402  36.124  63.897  1.00  0.00     0.017 A 
HETATM   25  C   UNL     1       5.900  37.263  63.267  1.00  0.00     0.001 A 
HETATM   26  C   UNL     1       5.544  37.536  61.953  1.00  0.00     0.001 A 
HETATM   27  C   UNL     1       4.697  36.668  61.266  1.00  0.00     0.010 A 
BRANCH  23  28
HETATM   28  C   UNL     1       4.003  34.034  63.971  1.00  0.00     0.418 C 
HETATM   29  F   UNL     1       2.645  34.078  64.091  1.00  0.00    -0.166 F 
HETATM   30  F   UNL     1       4.282  32.851  63.361  1.00  0.00    -0.166 F 
HETATM   31  F   UNL     1       4.479  33.918  65.242  1.00  0.00    -0.166 F 
ENDBRANCH  23  28
ENDBRANCH   7  22
BRANCH   3  32
HETATM   32  C   UNL     1       2.277  35.992  57.133  1.00  0.00     0.160 C 
BRANCH  32  33
HETATM   33  C   UNL     1       0.971  35.456  56.527  1.00  0.00     0.187 C 
BRANCH  33  34
HETATM   34  O   UNL     1       1.100  34.086  56.153  1.00  0.00    -0.394 OA
HETATM   35  C   UNL     1       1.641  33.943  54.847  1.00  0.00     0.201 C 
ENDBRANCH  33  34
ENDBRANCH  32  33
ENDBRANCH   3  32
TORSDOF 8
ENDMDL
MODEL 9
REMARK VINA RESULT:      -7.1      4.966      7.357
REMARK  8 active torsions:
REMARK  status: ('A' for Active; 'I' for Inactive)
REMARK    1  A    between atoms: N_3  and  C_4 
REMARK    2  A    between atoms: C_4  and  C_5 
REMARK    3  A    between atoms: C_5  and  O_6 
REMARK    4  A    between atoms: C_11  and  C_12 
REMARK    5  A    between atoms: C_13  and  C_14 
REMARK    6  A    between atoms: C_22  and  C_23 
REMARK       I    between atoms: C_23  and  N_24 
REMARK    7  A    between atoms: N_24  and  C_25 
REMARK    8  A    between atoms: C_26  and  O_27 
ROOT
HETATM    1  C   UNL     1       4.161  31.366  51.481  1.00  0.00     0.069 C 
HETATM    2  C   UNL     1       4.366  30.814  50.089  1.00  0.00     0.026 C 
HETATM    3  N   UNL     1       4.581  31.689  49.013  1.00  0.00    -0.301 N 
HETATM    4  C   UNL     1       4.874  31.229  47.724  1.00  0.00     0.323 C 
HETATM    5  O   UNL     1       5.100  31.945  46.751  1.00  0.00    -0.247 OA
HETATM    6  N   UNL     1       4.917  29.878  47.553  1.00  0.00    -0.330 N 
HETATM    7  C   UNL     1       4.343  28.916  48.460  1.00  0.00     0.161 C 
HETATM    8  C   UNL     1       4.315  29.488  49.838  1.00  0.00     0.059 C 
HETATM    9  H   UNL     1       5.073  29.603  46.594  1.00  0.00     0.165 HD
ENDROOT
BRANCH   8  10
HETATM   10  C   UNL     1       4.283  28.490  50.938  1.00  0.00     0.256 C 
HETATM   11  N   UNL     1       5.494  27.834  51.050  1.00  0.00    -0.321 N 
HETATM   12  H   UNL     1       6.118  27.906  50.256  1.00  0.00     0.169 HD
HETATM   13  O   UNL     1       3.237  28.253  51.527  1.00  0.00    -0.267 OA
BRANCH  11  14
HETATM   14  C   UNL     1       5.898  26.952  52.075  1.00  0.00     0.068 A 
HETATM   15  C   UNL     1       6.113  27.321  53.412  1.00  0.00     0.095 A 
HETATM   16  C   UNL     1       6.551  26.366  54.339  1.00  0.00     0.039 A 
HETATM   17  C   UNL     1       6.766  25.045  53.948  1.00  0.00     0.003 A 
HETATM   18  C   UNL     1       6.577  24.677  52.620  1.00  0.00     0.002 A 
HETATM   19  C   UNL     1       6.159  25.629  51.686  1.00  0.00     0.032 A 
BRANCH  15  20
HETATM   20  O   UNL     1       6.088  28.645  53.767  1.00  0.00    -0.354 OA
HETATM   21  C   UNL     1       4.957  28.971  54.575  1.00  0.00     0.210 C 
ENDBRANCH  15  20
ENDBRANCH  11  14
ENDBRANCH   8  10
BRANCH   7  22
HETATM   22  C   UNL     1       2.981  28.453  47.937  1.00  0.00    -0.016 A 
HETATM   23  C   UNL     1       2.685  27.084  47.715  1.00  0.00     0.056 A 
HETATM   24  C   UNL     1       1.412  26.725  47.226  1.00  0.00     0.017 A 
HETATM   25  C   UNL     1       0.447  27.690  46.949  1.00  0.00     0.001 A 
HETATM   26  C   UNL     1       0.736  29.033  47.152  1.00  0.00     0.001 A 
HETATM   27  C   UNL     1       1.987  29.410  47.638  1.00  0.00     0.010 A 
BRANCH  23  28
HETATM   28  C   UNL     1       3.703  25.993  47.963  1.00  0.00     0.418 C 
HETATM   29  F   UNL     1       4.930  26.321  47.465  1.00  0.00    -0.166 F 
HETATM   30  F   UNL     1       3.900  25.730  49.283  1.00  0.00    -0.166 F 
HETATM   31  F   UNL     1       3.385  24.799  47.390  1.00  0.00    -0.166 F 
ENDBRANCH  23  28
ENDBRANCH   7  22
BRANCH   3  32
HETATM   32  C   UNL     1       4.635  33.149  49.195  1.00  0.00     0.160 C 
BRANCH  32  33
HETATM   33  C   UNL     1       6.034  33.701  49.513  1.00  0.00     0.187 C 
BRANCH  33  34
HETATM   34  O   UNL     1       6.485  34.582  48.485  1.00  0.00    -0.394 OA
HETATM   35  C   UNL     1       7.646  34.084  47.835  1.00  0.00     0.201 C 
ENDBRANCH  33  34
ENDBRANCH  32  33
ENDBRANCH   3  32
TORSDOF 8
ENDMDL
MODEL 10
REMARK VINA RESULT:      -7.1      8.849     11.752
REMARK  8 active torsions:
REMARK  status: ('A' for Active; 'I' for Inactive)
REMARK    1  A    between atoms: N_3  and  C_4 
REMARK    2  A    between atoms: C_4  and  C_5 
REMARK    3  A    between atoms: C_5  and  O_6 
REMARK    4  A    between atoms: C_11  and  C_12 
REMARK    5  A    between atoms: C_13  and  C_14 
REMARK    6  A    between atoms: C_22  and  C_23 
REMARK       I    between atoms: C_23  and  N_24 
REMARK    7  A    between atoms: N_24  and  C_25 
REMARK    8  A    between atoms: C_26  and  O_27 
ROOT
HETATM    1  C   UNL     1       4.298  33.446  57.767  1.00  0.00     0.069 C 
HETATM    2  C   UNL     1       3.510  34.101  58.878  1.00  0.00     0.026 C 
HETATM    3  N   UNL     1       2.540  35.069  58.574  1.00  0.00    -0.301 N 
HETATM    4  C   UNL     1       1.715  35.633  59.554  1.00  0.00     0.323 C 
HETATM    5  O   UNL     1       0.831  36.461  59.344  1.00  0.00    -0.247 OA
HETATM    6  N   UNL     1       1.915  35.215  60.835  1.00  0.00    -0.330 N 
HETATM    7  C   UNL     1       3.102  34.546  61.305  1.00  0.00     0.161 C 
HETATM    8  C   UNL     1       3.735  33.805  60.176  1.00  0.00     0.059 C 
HETATM    9  H   UNL     1       1.334  35.697  61.506  1.00  0.00     0.165 HD
ENDROOT
BRANCH   8  10
HETATM   10  C   UNL     1       4.601  32.664  60.574  1.00  0.00     0.256 C 
HETATM   11  N   UNL     1       5.938  32.989  60.452  1.00  0.00    -0.321 N 
HETATM   12  H   UNL     1       6.153  33.801  59.887  1.00  0.00     0.169 HD
HETATM   13  O   UNL     1       4.107  31.575  60.833  1.00  0.00    -0.267 OA
BRANCH  11  14
HETATM   14  C   UNL     1       7.046  32.234  60.894  1.00  0.00     0.068 A 
HETATM   15  C   UNL     1       7.632  32.339  62.165  1.00  0.00     0.095 A 
HETATM   16  C   UNL     1       8.756  31.565  62.483  1.00  0.00     0.039 A 
HETATM   17  C   UNL     1       9.294  30.679  61.549  1.00  0.00     0.003 A 
HETATM   18  C   UNL     1       8.731  30.586  60.280  1.00  0.00     0.002 A 
HETATM   19  C   UNL     1       7.623  31.370  59.951  1.00  0.00     0.032 A 
BRANCH  15  20
HETATM   20  O   UNL     1       7.234  33.335  63.020  1.00  0.00    -0.354 OA
HETATM   21  C   UNL     1       7.612  33.075  64.372  1.00  0.00     0.210 C 
ENDBRANCH  15  20
ENDBRANCH  11  14
ENDBRANCH   8  10
BRANCH   7  22
HETATM   22  C   UNL     1       4.024  35.550  62.003  1.00  0.00    -0.016 A 
HETATM   23  C   UNL     1       4.416  35.397  63.357  1.00  0.00     0.056 A 
HETATM   24  C   UNL     1       5.263  36.360  63.942  1.00  0.00     0.017 A 
HETATM   25  C   UNL     1       5.712  37.462  63.216  1.00  0.00     0.001 A 
HETATM   26  C   UNL     1       5.320  37.623  61.894  1.00  0.00     0.001 A 
HETATM   27  C   UNL     1       4.486  36.681  61.295  1.00  0.00     0.010 A 
BRANCH  23  28
HETATM   28  C   UNL     1       3.934  34.241  64.207  1.00  0.00     0.418 C 
HETATM   29  F   UNL     1       4.443  34.295  65.471  1.00  0.00    -0.166 F 
HETATM   30  F   UNL     1       2.583  34.210  64.354  1.00  0.00    -0.166 F 
HETATM   31  F   UNL     1       4.284  33.016  63.724  1.00  0.00    -0.166 F 
ENDBRANCH  23  28
ENDBRANCH   7  22
BRANCH   3  32
HETATM   32  C   UNL     1       2.243  35.464  57.187  1.00  0.00     0.160 C 
BRANCH  32  33
HETATM   33  C   UNL     1       3.030  36.686  56.689  1.00  0.00     0.187 C 
BRANCH  33  34
HETATM   34  O   UNL     1       3.077  36.721  55.264  1.00  0.00    -0.394 OA
HETATM   35  C   UNL     1       3.764  35.598  54.730  1.00  0.00     0.201 C 
ENDBRANCH  33  34
ENDBRANCH  32  33
ENDBRANCH   3  32
TORSDOF 8
ENDMDL
