MODEL 1
REMARK VINA RESULT:      -8.8      0.000      0.000
REMARK  5 active torsions:
REMARK  status: ('A' for Active; 'I' for Inactive)
REMARK    1  A    between atoms: C_8  and  N_9 
REMARK       I    between atoms: N_9  and  C_10 
REMARK    2  A    between atoms: C_10  and  C_11 
REMARK    3  A    between atoms: C_11  and  N_12 
REMARK    4  A    between atoms: N_12  and  C_13 
REMARK    5  A    between atoms: C_13  and  C_14 
ROOT
HETATM    1  C   UNL     1       6.746  27.184  56.867  1.00  0.00     0.372 C 
ENDROOT
BRANCH   1   2
HETATM    2  C   UNL     1       7.346  28.597  56.785  1.00  0.00     0.250 C 
HETATM    3  N   UNL     1       8.110  28.906  57.890  1.00  0.00    -0.322 N 
HETATM    4  H   UNL     1       8.170  28.160  58.578  1.00  0.00     0.169 HD
HETATM    5  O   UNL     1       7.143  29.302  55.803  1.00  0.00    -0.271 OA
BRANCH   3   6
HETATM    6  C   UNL     1       8.759  30.091  58.180  1.00  0.00     0.085 A 
HETATM    7  C   UNL     1      10.041  30.342  57.728  1.00  0.00     0.052 A 
HETATM    8  C   UNL     1      10.991  29.549  56.913  1.00  0.00     0.072 C 
HETATM    9  N   UNL     1      10.370  31.580  58.203  1.00  0.00    -0.280 N 
HETATM   10  H   UNL     1      11.236  32.092  58.073  1.00  0.00     0.189 HD
HETATM   11  N   UNL     1       9.407  32.153  58.928  1.00  0.00    -0.177 NA
HETATM   12  C   UNL     1       8.408  31.257  58.923  1.00  0.00     0.079 A 
HETATM   13  C   UNL     1       7.162  31.602  59.654  1.00  0.00     0.075 C 
ENDBRANCH   3   6
ENDBRANCH   1   2
BRANCH   1  14
HETATM   14  N   UNL     1       7.443  26.261  55.932  1.00  0.00     0.100 N 
HETATM   15  H   UNL     1       8.408  26.594  55.851  1.00  0.00     0.317 HD
BRANCH  14  16
HETATM   16  C   UNL     1       7.500  24.891  56.477  1.00  0.00     0.250 C 
HETATM   17  C   UNL     1       8.649  24.813  57.489  1.00  0.00     0.048 C 
BRANCH  16  18
HETATM   18  C   UNL     1       7.680  23.823  55.411  1.00  0.00    -0.024 A 
HETATM   19  C   UNL     1       8.001  22.495  55.748  1.00  0.00     0.036 A 
HETATM   20  C   UNL     1       8.144  21.526  54.752  1.00  0.00     0.073 A 
HETATM   21 CL   UNL     1       8.541  19.911  55.194  1.00  0.00    -0.081 Cl
HETATM   22  C   UNL     1       7.964  21.874  53.416  1.00  0.00     0.138 A 
HETATM   23  F   UNL     1       8.092  20.958  52.444  1.00  0.00    -0.204 F 
HETATM   24  C   UNL     1       7.642  23.180  53.062  1.00  0.00     0.044 A 
HETATM   25  C   UNL     1       7.500  24.152  54.056  1.00  0.00     0.012 A 
ENDBRANCH  16  18
ENDBRANCH  14  16
ENDBRANCH   1  14
TORSDOF 5
ENDMDL
MODEL 2
REMARK VINA RESULT:      -8.4      1.434      1.949
REMARK  5 active torsions:
REMARK  status: ('A' for Active; 'I' for Inactive)
REMARK    1  A    between atoms: C_8  and  N_9 
REMARK       I    between atoms: N_9  and  C_10 
REMARK    2  A    between atoms: C_10  and  C_11 
REMARK    3  A    between atoms: C_11  and  N_12 
REMARK    4  A    between atoms: N_12  and  C_13 
REMARK    5  A    between atoms: C_13  and  C_14 
ROOT
HETATM    1  C   UNL     1       7.184  27.257  55.952  1.00  0.00     0.372 C 
ENDROOT
BRANCH   1   2
HETATM    2  C   UNL     1       7.779  28.023  57.143  1.00  0.00     0.250 C 
HETATM    3  N   UNL     1       8.015  29.349  56.847  1.00  0.00    -0.322 N 
HETATM    4  H   UNL     1       7.754  29.619  55.902  1.00  0.00     0.169 HD
HETATM    5  O   UNL     1       7.971  27.458  58.213  1.00  0.00    -0.271 OA
BRANCH   3   6
HETATM    6  C   UNL     1       8.581  30.320  57.650  1.00  0.00     0.085 A 
HETATM    7  C   UNL     1       9.952  30.486  57.726  1.00  0.00     0.052 A 
HETATM    8  C   UNL     1      11.084  29.789  57.074  1.00  0.00     0.072 C 
HETATM    9  N   UNL     1      10.157  31.508  58.608  1.00  0.00    -0.280 N 
HETATM   10  H   UNL     1      11.039  31.905  58.914  1.00  0.00     0.189 HD
HETATM   11  N   UNL     1       9.032  32.019  59.114  1.00  0.00    -0.177 NA
HETATM   12  C   UNL     1       8.053  31.306  58.535  1.00  0.00     0.079 A 
HETATM   13  C   UNL     1       6.650  31.638  58.891  1.00  0.00     0.075 C 
ENDBRANCH   3   6
ENDBRANCH   1   2
BRANCH   1  14
HETATM   14  N   UNL     1       7.317  25.789  56.150  1.00  0.00     0.100 N 
HETATM   15  H   UNL     1       6.451  25.471  56.596  1.00  0.00     0.317 HD
BRANCH  14  16
HETATM   16  C   UNL     1       7.426  25.083  54.859  1.00  0.00     0.250 C 
HETATM   17  C   UNL     1       6.113  25.266  54.088  1.00  0.00     0.048 C 
BRANCH  16  18
HETATM   18  C   UNL     1       7.735  23.602  55.004  1.00  0.00    -0.024 A 
HETATM   19  C   UNL     1       7.835  22.758  53.882  1.00  0.00     0.036 A 
HETATM   20  C   UNL     1       8.137  21.404  54.038  1.00  0.00     0.073 A 
HETATM   21 CL   UNL     1       8.249  20.396  52.648  1.00  0.00    -0.081 Cl
HETATM   22  C   UNL     1       8.347  20.883  55.312  1.00  0.00     0.138 A 
HETATM   23  F   UNL     1       8.644  19.587  55.484  1.00  0.00    -0.204 F 
HETATM   24  C   UNL     1       8.258  21.701  56.434  1.00  0.00     0.044 A 
HETATM   25  C   UNL     1       7.953  23.056  56.281  1.00  0.00     0.012 A 
ENDBRANCH  16  18
ENDBRANCH  14  16
ENDBRANCH   1  14
TORSDOF 5
ENDMDL
MODEL 3
REMARK VINA RESULT:      -8.4      5.245      7.802
REMARK  5 active torsions:
REMARK  status: ('A' for Active; 'I' for Inactive)
REMARK    1  A    between atoms: C_8  and  N_9 
REMARK       I    between atoms: N_9  and  C_10 
REMARK    2  A    between atoms: C_10  and  C_11 
REMARK    3  A    between atoms: C_11  and  N_12 
REMARK    4  A    between atoms: N_12  and  C_13 
REMARK    5  A    between atoms: C_13  and  C_14 
ROOT
HETATM    1  C   UNL     1       6.363  25.710  51.665  1.00  0.00     0.372 C 
ENDROOT
BRANCH   1   2
HETATM    2  C   UNL     1       5.288  26.577  50.991  1.00  0.00     0.250 C 
HETATM    3  N   UNL     1       5.215  26.356  49.631  1.00  0.00    -0.322 N 
HETATM    4  H   UNL     1       5.866  25.656  49.286  1.00  0.00     0.169 HD
HETATM    5  O   UNL     1       4.595  27.338  51.656  1.00  0.00    -0.271 OA
BRANCH   3   6
HETATM    6  C   UNL     1       4.406  26.983  48.703  1.00  0.00     0.085 A 
HETATM    7  C   UNL     1       3.448  26.284  47.991  1.00  0.00     0.052 A 
HETATM    8  C   UNL     1       3.039  24.860  47.990  1.00  0.00     0.072 C 
HETATM    9  N   UNL     1       2.853  27.197  47.168  1.00  0.00    -0.280 N 
HETATM   10  H   UNL     1       2.107  27.045  46.499  1.00  0.00     0.189 HD
HETATM   11  N   UNL     1       3.347  28.432  47.285  1.00  0.00    -0.177 NA
HETATM   12  C   UNL     1       4.299  28.322  48.225  1.00  0.00     0.079 A 
HETATM   13  C   UNL     1       5.051  29.547  48.598  1.00  0.00     0.075 C 
ENDBRANCH   3   6
ENDBRANCH   1   2
BRANCH   1  14
HETATM   14  N   UNL     1       5.742  24.723  52.587  1.00  0.00     0.100 N 
HETATM   15  H   UNL     1       5.819  23.806  52.135  1.00  0.00     0.317 HD
BRANCH  14  16
HETATM   16  C   UNL     1       6.480  24.643  53.862  1.00  0.00     0.250 C 
HETATM   17  C   UNL     1       7.504  25.783  53.908  1.00  0.00     0.048 C 
BRANCH  16  18
HETATM   18  C   UNL     1       7.183  23.311  54.071  1.00  0.00    -0.024 A 
HETATM   19  C   UNL     1       7.429  22.805  55.361  1.00  0.00     0.036 A 
HETATM   20  C   UNL     1       8.060  21.571  55.528  1.00  0.00     0.073 A 
HETATM   21 CL   UNL     1       8.351  20.978  57.118  1.00  0.00    -0.081 Cl
HETATM   22  C   UNL     1       8.445  20.832  54.414  1.00  0.00     0.138 A 
HETATM   23  F   UNL     1       9.048  19.641  54.552  1.00  0.00    -0.204 F 
HETATM   24  C   UNL     1       8.207  21.312  53.130  1.00  0.00     0.044 A 
HETATM   25  C   UNL     1       7.577  22.548  52.959  1.00  0.00     0.012 A 
ENDBRANCH  16  18
ENDBRANCH  14  16
ENDBRANCH   1  14
TORSDOF 5
ENDMDL
MODEL 4
REMARK VINA RESULT:      -8.4      4.840      7.434
REMARK  5 active torsions:
REMARK  status: ('A' for Active; 'I' for Inactive)
REMARK    1  A    between atoms: C_8  and  N_9 
REMARK       I    between atoms: N_9  and  C_10 
REMARK    2  A    between atoms: C_10  and  C_11 
REMARK    3  A    between atoms: C_11  and  N_12 
REMARK    4  A    between atoms: N_12  and  C_13 
REMARK    5  A    between atoms: C_13  and  C_14 
ROOT
HETATM    1  C   UNL     1       5.084  25.930  52.961  1.00  0.00     0.372 C 
ENDROOT
BRANCH   1   2
HETATM    2  C   UNL     1       5.444  26.040  51.471  1.00  0.00     0.250 C 
HETATM    3  N   UNL     1       4.421  26.585  50.725  1.00  0.00    -0.322 N 
HETATM    4  H   UNL     1       3.598  26.839  51.266  1.00  0.00     0.169 HD
HETATM    5  O   UNL     1       6.546  25.686  51.069  1.00  0.00    -0.271 OA
BRANCH   3   6
HETATM    6  C   UNL     1       4.370  26.791  49.359  1.00  0.00     0.085 A 
HETATM    7  C   UNL     1       4.920  27.918  48.778  1.00  0.00     0.052 A 
HETATM    8  C   UNL     1       5.632  29.090  49.338  1.00  0.00     0.072 C 
HETATM    9  N   UNL     1       4.681  27.803  47.438  1.00  0.00    -0.280 N 
HETATM   10  H   UNL     1       4.939  28.447  46.697  1.00  0.00     0.189 HD
HETATM   11  N   UNL     1       4.019  26.694  47.101  1.00  0.00    -0.177 NA
HETATM   12  C   UNL     1       3.822  26.057  48.266  1.00  0.00     0.079 A 
HETATM   13  C   UNL     1       3.101  24.759  48.234  1.00  0.00     0.075 C 
ENDBRANCH   3   6
ENDBRANCH   1   2
BRANCH   1  14
HETATM   14  N   UNL     1       6.312  25.819  53.793  1.00  0.00     0.100 N 
HETATM   15  H   UNL     1       6.419  26.712  54.283  1.00  0.00     0.317 HD
BRANCH  14  16
HETATM   16  C   UNL     1       6.168  24.772  54.822  1.00  0.00     0.250 C 
HETATM   17  C   UNL     1       6.580  25.357  56.178  1.00  0.00     0.048 C 
BRANCH  16  18
HETATM   18  C   UNL     1       6.983  23.523  54.532  1.00  0.00    -0.024 A 
HETATM   19  C   UNL     1       7.442  22.688  55.568  1.00  0.00     0.036 A 
HETATM   20  C   UNL     1       8.174  21.535  55.276  1.00  0.00     0.073 A 
HETATM   21 CL   UNL     1       8.727  20.536  56.563  1.00  0.00    -0.081 Cl
HETATM   22  C   UNL     1       8.448  21.204  53.952  1.00  0.00     0.138 A 
HETATM   23  F   UNL     1       9.144  20.098  53.649  1.00  0.00    -0.204 F 
HETATM   24  C   UNL     1       7.998  22.013  52.913  1.00  0.00     0.044 A 
HETATM   25  C   UNL     1       7.267  23.168  53.202  1.00  0.00     0.012 A 
ENDBRANCH  16  18
ENDBRANCH  14  16
ENDBRANCH   1  14
TORSDOF 5
ENDMDL
MODEL 5
REMARK VINA RESULT:      -8.3      1.368      2.376
REMARK  5 active torsions:
REMARK  status: ('A' for Active; 'I' for Inactive)
REMARK    1  A    between atoms: C_8  and  N_9 
REMARK       I    between atoms: N_9  and  C_10 
REMARK    2  A    between atoms: C_10  and  C_11 
REMARK    3  A    between atoms: C_11  and  N_12 
REMARK    4  A    between atoms: N_12  and  C_13 
REMARK    5  A    between atoms: C_13  and  C_14 
ROOT
HETATM    1  C   UNL     1       7.086  27.281  55.589  1.00  0.00     0.372 C 
ENDROOT
BRANCH   1   2
HETATM    2  C   UNL     1       7.941  27.888  56.713  1.00  0.00     0.250 C 
HETATM    3  N   UNL     1       7.880  29.265  56.732  1.00  0.00    -0.322 N 
HETATM    4  H   UNL     1       7.280  29.666  56.016  1.00  0.00     0.169 HD
HETATM    5  O   UNL     1       8.559  27.163  57.484  1.00  0.00    -0.271 OA
BRANCH   3   6
HETATM    6  C   UNL     1       8.548  30.142  57.564  1.00  0.00     0.085 A 
HETATM    7  C   UNL     1       7.866  31.004  58.403  1.00  0.00     0.052 A 
HETATM    8  C   UNL     1       6.423  31.234  58.646  1.00  0.00     0.072 C 
HETATM    9  N   UNL     1       8.823  31.723  59.060  1.00  0.00    -0.280 N 
HETATM   10  H   UNL     1       8.694  32.452  59.754  1.00  0.00     0.189 HD
HETATM   11  N   UNL     1      10.072  31.400  58.717  1.00  0.00    -0.177 NA
HETATM   12  C   UNL     1       9.925  30.429  57.802  1.00  0.00     0.079 A 
HETATM   13  C   UNL     1      11.154  29.839  57.213  1.00  0.00     0.075 C 
ENDBRANCH   3   6
ENDBRANCH   1   2
BRANCH   1  14
HETATM   14  N   UNL     1       7.034  25.800  55.707  1.00  0.00     0.100 N 
HETATM   15  H   UNL     1       6.200  25.576  56.258  1.00  0.00     0.317 HD
BRANCH  14  16
HETATM   16  C   UNL     1       6.867  25.164  54.386  1.00  0.00     0.250 C 
HETATM   17  C   UNL     1       5.386  25.227  53.995  1.00  0.00     0.048 C 
BRANCH  16  18
HETATM   18  C   UNL     1       7.349  23.723  54.344  1.00  0.00    -0.024 A 
HETATM   19  C   UNL     1       7.593  22.995  55.524  1.00  0.00     0.036 A 
HETATM   20  C   UNL     1       8.018  21.666  55.460  1.00  0.00     0.073 A 
HETATM   21 CL   UNL     1       8.313  20.802  56.919  1.00  0.00    -0.081 Cl
HETATM   22  C   UNL     1       8.198  21.054  54.224  1.00  0.00     0.138 A 
HETATM   23  F   UNL     1       8.601  19.777  54.140  1.00  0.00    -0.204 F 
HETATM   24  C   UNL     1       7.957  21.755  53.046  1.00  0.00     0.044 A 
HETATM   25  C   UNL     1       7.533  23.085  53.106  1.00  0.00     0.012 A 
ENDBRANCH  16  18
ENDBRANCH  14  16
ENDBRANCH   1  14
TORSDOF 5
ENDMDL
MODEL 6
REMARK VINA RESULT:      -8.3      2.168      3.311
REMARK  5 active torsions:
REMARK  status: ('A' for Active; 'I' for Inactive)
REMARK    1  A    between atoms: C_8  and  N_9 
REMARK       I    between atoms: N_9  and  C_10 
REMARK    2  A    between atoms: C_10  and  C_11 
REMARK    3  A    between atoms: C_11  and  N_12 
REMARK    4  A    between atoms: N_12  and  C_13 
REMARK    5  A    between atoms: C_13  and  C_14 
ROOT
HETATM    1  C   UNL     1       5.421  26.466  54.094  1.00  0.00     0.372 C 
ENDROOT
BRANCH   1   2
HETATM    2  C   UNL     1       5.710  26.923  55.533  1.00  0.00     0.250 C 
HETATM    3  N   UNL     1       6.163  28.224  55.587  1.00  0.00    -0.322 N 
HETATM    4  H   UNL     1       6.226  28.683  54.682  1.00  0.00     0.169 HD
HETATM    5  O   UNL     1       5.513  26.167  56.477  1.00  0.00    -0.271 OA
BRANCH   3   6
HETATM    6  C   UNL     1       6.562  28.947  56.694  1.00  0.00     0.085 A 
HETATM    7  C   UNL     1       5.677  29.749  57.392  1.00  0.00     0.052 A 
HETATM    8  C   UNL     1       4.237  30.048  57.210  1.00  0.00     0.072 C 
HETATM    9  N   UNL     1       6.400  30.316  58.401  1.00  0.00    -0.280 N 
HETATM   10  H   UNL     1       6.082  30.965  59.113  1.00  0.00     0.189 HD
HETATM   11  N   UNL     1       7.685  29.951  58.417  1.00  0.00    -0.177 NA
HETATM   12  C   UNL     1       7.803  29.107  57.379  1.00  0.00     0.079 A 
HETATM   13  C   UNL     1       9.137  28.508  57.121  1.00  0.00     0.075 C 
ENDBRANCH   3   6
ENDBRANCH   1   2
BRANCH   1  14
HETATM   14  N   UNL     1       5.700  25.014  53.936  1.00  0.00     0.100 N 
HETATM   15  H   UNL     1       5.164  24.696  53.124  1.00  0.00     0.317 HD
BRANCH  14  16
HETATM   16  C   UNL     1       7.126  24.773  53.638  1.00  0.00     0.250 C 
HETATM   17  C   UNL     1       7.375  25.079  52.156  1.00  0.00     0.048 C 
BRANCH  16  18
HETATM   18  C   UNL     1       7.579  23.358  53.955  1.00  0.00    -0.024 A 
HETATM   19  C   UNL     1       7.719  22.911  55.282  1.00  0.00     0.036 A 
HETATM   20  C   UNL     1       8.120  21.600  55.549  1.00  0.00     0.073 A 
HETATM   21 CL   UNL     1       8.287  21.084  57.182  1.00  0.00    -0.081 Cl
HETATM   22  C   UNL     1       8.378  20.726  54.498  1.00  0.00     0.138 A 
HETATM   23  F   UNL     1       8.759  19.461  54.732  1.00  0.00    -0.204 F 
HETATM   24  C   UNL     1       8.240  21.146  53.178  1.00  0.00     0.044 A 
HETATM   25  C   UNL     1       7.842  22.458  52.908  1.00  0.00     0.012 A 
ENDBRANCH  16  18
ENDBRANCH  14  16
ENDBRANCH   1  14
TORSDOF 5
ENDMDL
MODEL 7
REMARK VINA RESULT:      -8.2      2.398      3.284
REMARK  5 active torsions:
REMARK  status: ('A' for Active; 'I' for Inactive)
REMARK    1  A    between atoms: C_8  and  N_9 
REMARK       I    between atoms: N_9  and  C_10 
REMARK    2  A    between atoms: C_10  and  C_11 
REMARK    3  A    between atoms: C_11  and  N_12 
REMARK    4  A    between atoms: N_12  and  C_13 
REMARK    5  A    between atoms: C_13  and  C_14 
ROOT
HETATM    1  C   UNL     1       6.524  27.658  53.232  1.00  0.00     0.372 C 
ENDROOT
BRANCH   1   2
HETATM    2  C   UNL     1       5.853  28.235  54.489  1.00  0.00     0.250 C 
HETATM    3  N   UNL     1       6.639  29.180  55.114  1.00  0.00    -0.322 N 
HETATM    4  H   UNL     1       7.527  29.358  54.650  1.00  0.00     0.169 HD
HETATM    5  O   UNL     1       4.733  27.866  54.822  1.00  0.00    -0.271 OA
BRANCH   3   6
HETATM    6  C   UNL     1       6.385  29.870  56.283  1.00  0.00     0.085 A 
HETATM    7  C   UNL     1       6.956  29.491  57.485  1.00  0.00     0.052 A 
HETATM    8  C   UNL     1       7.882  28.395  57.854  1.00  0.00     0.072 C 
HETATM    9  N   UNL     1       6.484  30.370  58.417  1.00  0.00    -0.280 N 
HETATM   10  H   UNL     1       6.687  30.398  59.411  1.00  0.00     0.189 HD
HETATM   11  N   UNL     1       5.652  31.288  57.921  1.00  0.00    -0.177 NA
HETATM   12  C   UNL     1       5.581  31.001  56.612  1.00  0.00     0.079 A 
HETATM   13  C   UNL     1       4.721  31.859  55.759  1.00  0.00     0.075 C 
ENDBRANCH   3   6
ENDBRANCH   1   2
BRANCH   1  14
HETATM   14  N   UNL     1       7.645  26.754  53.601  1.00  0.00     0.100 N 
HETATM   15  H   UNL     1       7.455  26.418  54.550  1.00  0.00     0.317 HD
BRANCH  14  16
HETATM   16  C   UNL     1       7.689  25.569  52.722  1.00  0.00     0.250 C 
HETATM   17  C   UNL     1       6.494  25.626  51.763  1.00  0.00     0.048 C 
BRANCH  16  18
HETATM   18  C   UNL     1       7.677  24.252  53.481  1.00  0.00    -0.024 A 
HETATM   19  C   UNL     1       7.948  23.031  52.837  1.00  0.00     0.036 A 
HETATM   20  C   UNL     1       7.950  21.835  53.558  1.00  0.00     0.073 A 
HETATM   21 CL   UNL     1       8.280  20.356  52.743  1.00  0.00    -0.081 Cl
HETATM   22  C   UNL     1       7.686  21.850  54.925  1.00  0.00     0.138 A 
HETATM   23  F   UNL     1       7.687  20.713  55.638  1.00  0.00    -0.204 F 
HETATM   24  C   UNL     1       7.421  23.047  55.581  1.00  0.00     0.044 A 
HETATM   25  C   UNL     1       7.416  24.245  54.862  1.00  0.00     0.012 A 
ENDBRANCH  16  18
ENDBRANCH  14  16
ENDBRANCH   1  14
TORSDOF 5
ENDMDL
MODEL 8
REMARK VINA RESULT:      -8.1      4.527      8.572
REMARK  5 active torsions:
REMARK  status: ('A' for Active; 'I' for Inactive)
REMARK    1  A    between atoms: C_8  and  N_9 
REMARK       I    between atoms: N_9  and  C_10 
REMARK    2  A    between atoms: C_10  and  C_11 
REMARK    3  A    between atoms: C_11  and  N_12 
REMARK    4  A    between atoms: N_12  and  C_13 
REMARK    5  A    between atoms: C_13  and  C_14 
ROOT
HETATM    1  C   UNL     1       7.315  25.355  57.354  1.00  0.00     0.372 C 
ENDROOT
BRANCH   1   2
HETATM    2  C   UNL     1       6.935  24.518  56.123  1.00  0.00     0.250 C 
HETATM    3  N   UNL     1       7.843  23.510  55.875  1.00  0.00    -0.322 N 
HETATM    4  H   UNL     1       8.611  23.466  56.540  1.00  0.00     0.169 HD
HETATM    5  O   UNL     1       5.910  24.762  55.497  1.00  0.00    -0.271 OA
BRANCH   3   6
HETATM    6  C   UNL     1       7.850  22.599  54.837  1.00  0.00     0.085 A 
HETATM    7  C   UNL     1       7.867  21.236  55.072  1.00  0.00     0.052 A 
HETATM    8  C   UNL     1       7.879  20.433  56.317  1.00  0.00     0.072 C 
HETATM    9  N   UNL     1       7.883  20.644  53.842  1.00  0.00    -0.280 N 
HETATM   10  H   UNL     1       7.900  19.653  53.623  1.00  0.00     0.189 HD
HETATM   11  N   UNL     1       7.880  21.510  52.826  1.00  0.00    -0.177 NA
HETATM   12  C   UNL     1       7.856  22.715  53.415  1.00  0.00     0.079 A 
HETATM   13  C   UNL     1       7.842  23.915  52.542  1.00  0.00     0.075 C 
ENDBRANCH   3   6
ENDBRANCH   1   2
BRANCH   1  14
HETATM   14  N   UNL     1       8.341  26.373  57.003  1.00  0.00     0.100 N 
HETATM   15  H   UNL     1       8.793  26.052  56.141  1.00  0.00     0.317 HD
BRANCH  14  16
HETATM   16  C   UNL     1       7.720  27.679  56.708  1.00  0.00     0.250 C 
HETATM   17  C   UNL     1       7.681  27.871  55.187  1.00  0.00     0.048 C 
BRANCH  16  18
HETATM   18  C   UNL     1       8.438  28.850  57.357  1.00  0.00    -0.024 A 
HETATM   19  C   UNL     1       7.909  29.502  58.487  1.00  0.00     0.036 A 
HETATM   20  C   UNL     1       8.596  30.564  59.078  1.00  0.00     0.073 A 
HETATM   21 CL   UNL     1       7.922  31.345  60.456  1.00  0.00    -0.081 Cl
HETATM   22  C   UNL     1       9.814  30.981  58.551  1.00  0.00     0.138 A 
HETATM   23  F   UNL     1      10.493  31.996  59.106  1.00  0.00    -0.204 F 
HETATM   24  C   UNL     1      10.357  30.347  57.437  1.00  0.00     0.044 A 
HETATM   25  C   UNL     1       9.672  29.285  56.843  1.00  0.00     0.012 A 
ENDBRANCH  16  18
ENDBRANCH  14  16
ENDBRANCH   1  14
TORSDOF 5
ENDMDL
MODEL 9
REMARK VINA RESULT:      -7.7      3.423      4.424
REMARK  5 active torsions:
REMARK  status: ('A' for Active; 'I' for Inactive)
REMARK    1  A    between atoms: C_8  and  N_9 
REMARK       I    between atoms: N_9  and  C_10 
REMARK    2  A    between atoms: C_10  and  C_11 
REMARK    3  A    between atoms: C_11  and  N_12 
REMARK    4  A    between atoms: N_12  and  C_13 
REMARK    5  A    between atoms: C_13  and  C_14 
ROOT
HETATM    1  C   UNL     1       7.141  26.478  55.688  1.00  0.00     0.372 C 
ENDROOT
BRANCH   1   2
HETATM    2  C   UNL     1       6.585  27.876  55.375  1.00  0.00     0.250 C 
HETATM    3  N   UNL     1       5.219  27.867  55.188  1.00  0.00    -0.322 N 
HETATM    4  H   UNL     1       4.789  26.952  55.295  1.00  0.00     0.169 HD
HETATM    5  O   UNL     1       7.331  28.848  55.336  1.00  0.00    -0.271 OA
BRANCH   3   6
HETATM    6  C   UNL     1       4.392  28.920  54.849  1.00  0.00     0.085 A 
HETATM    7  C   UNL     1       3.897  29.065  53.566  1.00  0.00     0.052 A 
HETATM    8  C   UNL     1       4.063  28.265  52.330  1.00  0.00     0.072 C 
HETATM    9  N   UNL     1       3.140  30.201  53.583  1.00  0.00    -0.280 N 
HETATM   10  H   UNL     1       2.623  30.622  52.818  1.00  0.00     0.189 HD
HETATM   11  N   UNL     1       3.104  30.809  54.771  1.00  0.00    -0.177 NA
HETATM   12  C   UNL     1       3.863  30.035  55.563  1.00  0.00     0.079 A 
HETATM   13  C   UNL     1       4.025  30.443  56.982  1.00  0.00     0.075 C 
ENDBRANCH   3   6
ENDBRANCH   1   2
BRANCH   1  14
HETATM   14  N   UNL     1       6.207  25.422  55.215  1.00  0.00     0.100 N 
HETATM   15  H   UNL     1       5.311  25.881  55.027  1.00  0.00     0.317 HD
BRANCH  14  16
HETATM   16  C   UNL     1       6.669  24.832  53.943  1.00  0.00     0.250 C 
HETATM   17  C   UNL     1       5.484  24.769  52.973  1.00  0.00     0.048 C 
BRANCH  16  18
HETATM   18  C   UNL     1       7.275  23.447  54.105  1.00  0.00    -0.024 A 
HETATM   19  C   UNL     1       7.502  22.888  55.376  1.00  0.00     0.036 A 
HETATM   20  C   UNL     1       8.043  21.607  55.500  1.00  0.00     0.073 A 
HETATM   21 CL   UNL     1       8.314  20.951  57.068  1.00  0.00    -0.081 Cl
HETATM   22  C   UNL     1       8.356  20.874  54.360  1.00  0.00     0.138 A 
HETATM   23  F   UNL     1       8.872  19.639  54.456  1.00  0.00    -0.204 F 
HETATM   24  C   UNL     1       8.135  21.406  53.093  1.00  0.00     0.044 A 
HETATM   25  C   UNL     1       7.595  22.688  52.966  1.00  0.00     0.012 A 
ENDBRANCH  16  18
ENDBRANCH  14  16
ENDBRANCH   1  14
TORSDOF 5
ENDMDL
MODEL 10
REMARK VINA RESULT:      -7.7      3.895      5.247
REMARK  5 active torsions:
REMARK  status: ('A' for Active; 'I' for Inactive)
REMARK    1  A    between atoms: C_8  and  N_9 
REMARK       I    between atoms: N_9  and  C_10 
REMARK    2  A    between atoms: C_10  and  C_11 
REMARK    3  A    between atoms: C_11  and  N_12 
REMARK    4  A    between atoms: N_12  and  C_13 
REMARK    5  A    between atoms: C_13  and  C_14 
ROOT
HETATM    1  C   UNL     1       6.781  26.688  55.365  1.00  0.00     0.372 C 
ENDROOT
BRANCH   1   2
HETATM    2  C   UNL     1       6.364  27.718  54.304  1.00  0.00     0.250 C 
HETATM    3  N   UNL     1       5.017  28.010  54.360  1.00  0.00    -0.322 N 
HETATM    4  H   UNL     1       4.512  27.515  55.091  1.00  0.00     0.169 HD
HETATM    5  O   UNL     1       7.195  28.201  53.544  1.00  0.00    -0.271 OA
BRANCH   3   6
HETATM    6  C   UNL     1       4.286  28.847  53.540  1.00  0.00     0.085 A 
HETATM    7  C   UNL     1       3.645  29.967  54.037  1.00  0.00     0.052 A 
HETATM    8  C   UNL     1       3.548  30.546  55.398  1.00  0.00     0.072 C 
HETATM    9  N   UNL     1       3.019  30.546  52.970  1.00  0.00    -0.280 N 
HETATM   10  H   UNL     1       2.450  31.385  52.957  1.00  0.00     0.189 HD
HETATM   11  N   UNL     1       3.198  29.892  51.820  1.00  0.00    -0.177 NA
HETATM   12  C   UNL     1       3.977  28.849  52.147  1.00  0.00     0.079 A 
HETATM   13  C   UNL     1       4.370  27.910  51.066  1.00  0.00     0.075 C 
ENDBRANCH   3   6
ENDBRANCH   1   2
BRANCH   1  14
HETATM   14  N   UNL     1       6.146  25.370  55.099  1.00  0.00     0.100 N 
HETATM   15  H   UNL     1       5.147  25.545  54.960  1.00  0.00     0.317 HD
BRANCH  14  16
HETATM   16  C   UNL     1       6.659  24.772  53.851  1.00  0.00     0.250 C 
HETATM   17  C   UNL     1       5.508  24.675  52.843  1.00  0.00     0.048 C 
BRANCH  16  18
HETATM   18  C   UNL     1       7.285  23.401  54.051  1.00  0.00    -0.024 A 
HETATM   19  C   UNL     1       7.497  22.870  55.337  1.00  0.00     0.036 A 
HETATM   20  C   UNL     1       8.056  21.601  55.497  1.00  0.00     0.073 A 
HETATM   21 CL   UNL     1       8.307  20.980  57.082  1.00  0.00    -0.081 Cl
HETATM   22  C   UNL     1       8.403  20.851  54.377  1.00  0.00     0.138 A 
HETATM   23  F   UNL     1       8.937  19.627  54.507  1.00  0.00    -0.204 F 
HETATM   24  C   UNL     1       8.197  21.355  53.096  1.00  0.00     0.044 A 
HETATM   25  C   UNL     1       7.639  22.625  52.934  1.00  0.00     0.012 A 
ENDBRANCH  16  18
ENDBRANCH  14  16
ENDBRANCH   1  14
TORSDOF 5
ENDMDL
