MODEL 1
REMARK VINA RESULT:      -9.6      0.000      0.000
REMARK  5 active torsions:
REMARK  status: ('A' for Active; 'I' for Inactive)
REMARK    1  A    between atoms: C_4  and  C_5 
REMARK       I    between atoms: C_5  and  N_6 
REMARK    2  A    between atoms: N_6  and  C_7 
REMARK    3  A    between atoms: C_10  and  N_11 
REMARK       I    between atoms: N_11  and  C_12 
REMARK       I    between atoms: C_12  and  N_13 
REMARK    4  A    between atoms: N_13  and  C_14 
REMARK    5  A    between atoms: C_14  and  C_15 
ROOT
HETATM    1  C   UNL     1       7.657  30.222  58.541  1.00  0.00     0.035 A 
HETATM    2  C   UNL     1       8.749  29.528  58.018  1.00  0.00     0.032 A 
HETATM    3  C   UNL     1       8.688  28.948  56.736  1.00  0.00     0.032 A 
HETATM    4  C   UNL     1       7.526  29.039  55.972  1.00  0.00     0.036 A 
HETATM    5  C   UNL     1       6.433  29.733  56.506  1.00  0.00     0.032 A 
HETATM    6  C   UNL     1       6.495  30.317  57.773  1.00  0.00     0.032 A 
ENDROOT
BRANCH   4   7
HETATM    7  N   UNL     1       7.356  28.544  54.669  1.00  0.00    -0.309 N 
HETATM    8  C   UNL     1       7.092  27.332  54.130  1.00  0.00     0.321 C 
HETATM    9  N   UNL     1       6.674  26.321  54.926  1.00  0.00    -0.337 N 
HETATM   10  O   UNL     1       7.220  27.197  52.912  1.00  0.00    -0.247 OA
HETATM   11  H   UNL     1       6.113  26.572  55.728  1.00  0.00     0.164 HD
HETATM   12  H   UNL     1       7.530  29.207  53.923  1.00  0.00     0.170 HD
BRANCH   9  13
HETATM   13  C   UNL     1       6.309  25.064  54.307  1.00  0.00     0.183 C 
BRANCH  13  14
HETATM   14  C   UNL     1       7.355  23.984  54.458  1.00  0.00     0.053 A 
HETATM   15  N   UNL     1       8.242  24.075  55.486  1.00  0.00    -0.264 NA
HETATM   16  C   UNL     1       9.151  23.083  55.615  1.00  0.00     0.118 A 
HETATM   17  C   UNL     1       9.215  21.983  54.781  1.00  0.00     0.043 A 
HETATM   18  C   UNL     1       8.288  21.904  53.754  1.00  0.00     0.037 A 
HETATM   19 CL   UNL     1       8.301  20.551  52.689  1.00  0.00    -0.084 Cl
HETATM   20  C   UNL     1       7.344  22.907  53.579  1.00  0.00     0.052 A 
ENDBRANCH  13  14
ENDBRANCH   9  13
ENDBRANCH   4   7
BRANCH   1  21
HETATM   21  N   UNL     1       7.643  30.871  59.787  1.00  0.00    -0.321 N 
HETATM   22  C   UNL     1       8.283  32.037  60.168  1.00  0.00     0.279 C 
HETATM   23  O   UNL     1       9.051  32.689  59.470  1.00  0.00    -0.265 OA
HETATM   24  H   UNL     1       7.073  30.454  60.516  1.00  0.00     0.169 HD
BRANCH  22  25
HETATM   25  C   UNL     1       7.945  32.426  61.528  1.00  0.00     0.142 A 
HETATM   26  O   UNL     1       6.973  33.376  61.733  1.00  0.00    -0.317 OA
HETATM   27  C   UNL     1       6.873  33.565  63.074  1.00  0.00     0.143 A 
HETATM   28  C   UNL     1       7.756  32.752  63.743  1.00  0.00     0.027 A 
HETATM   29  C   UNL     1       8.448  32.018  62.749  1.00  0.00     0.045 A 
ENDBRANCH  22  25
ENDBRANCH   1  21
TORSDOF 5
ENDMDL
MODEL 2
REMARK VINA RESULT:      -9.0      2.132      2.784
REMARK  5 active torsions:
REMARK  status: ('A' for Active; 'I' for Inactive)
REMARK    1  A    between atoms: C_4  and  C_5 
REMARK       I    between atoms: C_5  and  N_6 
REMARK    2  A    between atoms: N_6  and  C_7 
REMARK    3  A    between atoms: C_10  and  N_11 
REMARK       I    between atoms: N_11  and  C_12 
REMARK       I    between atoms: C_12  and  N_13 
REMARK    4  A    between atoms: N_13  and  C_14 
REMARK    5  A    between atoms: C_14  and  C_15 
ROOT
HETATM    1  C   UNL     1       7.787  28.730  57.046  1.00  0.00     0.035 A 
HETATM    2  C   UNL     1       8.222  28.926  55.735  1.00  0.00     0.032 A 
HETATM    3  C   UNL     1       7.655  28.198  54.671  1.00  0.00     0.032 A 
HETATM    4  C   UNL     1       6.661  27.251  54.911  1.00  0.00     0.036 A 
HETATM    5  C   UNL     1       6.234  27.057  56.231  1.00  0.00     0.032 A 
HETATM    6  C   UNL     1       6.788  27.785  57.286  1.00  0.00     0.032 A 
ENDROOT
BRANCH   4   7
HETATM    7  N   UNL     1       5.989  26.496  53.936  1.00  0.00    -0.309 N 
HETATM    8  C   UNL     1       6.297  25.423  53.172  1.00  0.00     0.321 C 
HETATM    9  N   UNL     1       7.397  24.691  53.458  1.00  0.00    -0.337 N 
HETATM   10  O   UNL     1       5.539  25.134  52.244  1.00  0.00    -0.247 OA
HETATM   11  H   UNL     1       7.660  24.622  54.432  1.00  0.00     0.164 HD
HETATM   12  H   UNL     1       5.078  26.846  53.663  1.00  0.00     0.170 HD
BRANCH   9  13
HETATM   13  C   UNL     1       7.648  23.494  52.682  1.00  0.00     0.183 C 
BRANCH  13  14
HETATM   14  C   UNL     1       7.976  22.282  53.523  1.00  0.00     0.053 A 
HETATM   15  N   UNL     1       8.340  21.131  52.894  1.00  0.00    -0.264 NA
HETATM   16  C   UNL     1       8.655  20.069  53.669  1.00  0.00     0.118 A 
HETATM   17  C   UNL     1       8.647  20.094  55.050  1.00  0.00     0.043 A 
HETATM   18  C   UNL     1       8.292  21.284  55.667  1.00  0.00     0.037 A 
HETATM   19 CL   UNL     1       8.280  21.388  57.385  1.00  0.00    -0.084 Cl
HETATM   20  C   UNL     1       7.951  22.395  54.908  1.00  0.00     0.052 A 
ENDBRANCH  13  14
ENDBRANCH   9  13
ENDBRANCH   4   7
BRANCH   1  21
HETATM   21  N   UNL     1       8.261  29.443  58.161  1.00  0.00    -0.321 N 
HETATM   22  C   UNL     1       7.805  30.637  58.687  1.00  0.00     0.279 C 
HETATM   23  O   UNL     1       6.916  31.334  58.210  1.00  0.00    -0.265 OA
HETATM   24  H   UNL     1       9.030  29.029  58.678  1.00  0.00     0.169 HD
BRANCH  22  25
HETATM   25  C   UNL     1       8.511  31.003  59.906  1.00  0.00     0.142 A 
HETATM   26  O   UNL     1       8.828  30.024  60.817  1.00  0.00    -0.317 OA
HETATM   27  C   UNL     1       9.457  30.632  61.857  1.00  0.00     0.143 A 
HETATM   28  C   UNL     1       9.559  31.984  61.634  1.00  0.00     0.027 A 
HETATM   29  C   UNL     1       8.951  32.225  60.377  1.00  0.00     0.045 A 
ENDBRANCH  22  25
ENDBRANCH   1  21
TORSDOF 5
ENDMDL
MODEL 3
REMARK VINA RESULT:      -8.9      2.846      4.665
REMARK  5 active torsions:
REMARK  status: ('A' for Active; 'I' for Inactive)
REMARK    1  A    between atoms: C_4  and  C_5 
REMARK       I    between atoms: C_5  and  N_6 
REMARK    2  A    between atoms: N_6  and  C_7 
REMARK    3  A    between atoms: C_10  and  N_11 
REMARK       I    between atoms: N_11  and  C_12 
REMARK       I    between atoms: C_12  and  N_13 
REMARK    4  A    between atoms: N_13  and  C_14 
REMARK    5  A    between atoms: C_14  and  C_15 
ROOT
HETATM    1  C   UNL     1       7.642  32.248  62.319  1.00  0.00     0.035 A 
HETATM    2  C   UNL     1       8.423  31.105  62.498  1.00  0.00     0.032 A 
HETATM    3  C   UNL     1       9.171  30.569  61.432  1.00  0.00     0.032 A 
HETATM    4  C   UNL     1       9.129  31.158  60.170  1.00  0.00     0.036 A 
HETATM    5  C   UNL     1       8.338  32.301  59.997  1.00  0.00     0.032 A 
HETATM    6  C   UNL     1       7.604  32.840  61.055  1.00  0.00     0.032 A 
ENDROOT
BRANCH   4   7
HETATM    7  N   UNL     1       9.860  30.747  59.044  1.00  0.00    -0.309 N 
HETATM    8  C   UNL     1       9.582  30.037  57.926  1.00  0.00     0.321 C 
HETATM    9  N   UNL     1       8.295  29.779  57.599  1.00  0.00    -0.337 N 
HETATM   10  O   UNL     1      10.524  29.668  57.223  1.00  0.00    -0.247 OA
HETATM   11  H   UNL     1       7.609  30.476  57.854  1.00  0.00     0.164 HD
HETATM   12  H   UNL     1      10.851  30.955  59.065  1.00  0.00     0.170 HD
BRANCH   9  13
HETATM   13  C   UNL     1       8.026  29.099  56.349  1.00  0.00     0.183 C 
BRANCH  13  14
HETATM   14  C   UNL     1       7.750  27.622  56.507  1.00  0.00     0.053 A 
HETATM   15  N   UNL     1       7.935  27.051  57.728  1.00  0.00    -0.264 NA
HETATM   16  C   UNL     1       7.655  25.733  57.849  1.00  0.00     0.118 A 
HETATM   17  C   UNL     1       7.178  24.949  56.817  1.00  0.00     0.043 A 
HETATM   18  C   UNL     1       6.980  25.559  55.588  1.00  0.00     0.037 A 
HETATM   19 CL   UNL     1       6.371  24.642  54.264  1.00  0.00    -0.084 Cl
HETATM   20  C   UNL     1       7.264  26.907  55.417  1.00  0.00     0.052 A 
ENDBRANCH  13  14
ENDBRANCH   9  13
ENDBRANCH   4   7
BRANCH   1  21
HETATM   21  N   UNL     1       6.902  32.878  63.333  1.00  0.00    -0.321 N 
HETATM   22  C   UNL     1       5.661  32.541  63.842  1.00  0.00     0.279 C 
HETATM   23  O   UNL     1       4.943  31.636  63.431  1.00  0.00    -0.265 OA
HETATM   24  H   UNL     1       7.329  33.682  63.783  1.00  0.00     0.169 HD
BRANCH  22  25
HETATM   25  C   UNL     1       5.274  33.398  64.952  1.00  0.00     0.142 A 
HETATM   26  O   UNL     1       3.945  33.701  65.135  1.00  0.00    -0.317 OA
HETATM   27  C   UNL     1       3.866  34.522  66.214  1.00  0.00     0.143 A 
HETATM   28  C   UNL     1       5.115  34.752  66.738  1.00  0.00     0.027 A 
HETATM   29  C   UNL     1       6.023  34.028  65.927  1.00  0.00     0.045 A 
ENDBRANCH  22  25
ENDBRANCH   1  21
TORSDOF 5
ENDMDL
MODEL 4
REMARK VINA RESULT:      -8.8      1.594      2.163
REMARK  5 active torsions:
REMARK  status: ('A' for Active; 'I' for Inactive)
REMARK    1  A    between atoms: C_4  and  C_5 
REMARK       I    between atoms: C_5  and  N_6 
REMARK    2  A    between atoms: N_6  and  C_7 
REMARK    3  A    between atoms: C_10  and  N_11 
REMARK       I    between atoms: N_11  and  C_12 
REMARK       I    between atoms: C_12  and  N_13 
REMARK    4  A    between atoms: N_13  and  C_14 
REMARK    5  A    between atoms: C_14  and  C_15 
ROOT
HETATM    1  C   UNL     1       6.423  29.568  57.418  1.00  0.00     0.035 A 
HETATM    2  C   UNL     1       5.060  29.279  57.330  1.00  0.00     0.032 A 
HETATM    3  C   UNL     1       4.512  28.742  56.149  1.00  0.00     0.032 A 
HETATM    4  C   UNL     1       5.318  28.507  55.037  1.00  0.00     0.036 A 
HETATM    5  C   UNL     1       6.683  28.804  55.131  1.00  0.00     0.032 A 
HETATM    6  C   UNL     1       7.231  29.328  56.305  1.00  0.00     0.032 A 
ENDROOT
BRANCH   4   7
HETATM    7  N   UNL     1       4.902  27.937  53.823  1.00  0.00    -0.309 N 
HETATM    8  C   UNL     1       5.278  26.865  53.088  1.00  0.00     0.321 C 
HETATM    9  N   UNL     1       6.091  25.932  53.633  1.00  0.00    -0.337 N 
HETATM   10  O   UNL     1       4.839  26.764  51.941  1.00  0.00    -0.247 OA
HETATM   11  H   UNL     1       6.000  25.768  54.626  1.00  0.00     0.164 HD
HETATM   12  H   UNL     1       4.201  28.459  53.311  1.00  0.00     0.170 HD
BRANCH   9  13
HETATM   13  C   UNL     1       6.399  24.749  52.855  1.00  0.00     0.183 C 
BRANCH  13  14
HETATM   14  C   UNL     1       7.394  23.826  53.519  1.00  0.00     0.053 A 
HETATM   15  N   UNL     1       7.975  24.223  54.684  1.00  0.00    -0.264 NA
HETATM   16  C   UNL     1       8.841  23.367  55.272  1.00  0.00     0.118 A 
HETATM   17  C   UNL     1       9.150  22.118  54.771  1.00  0.00     0.043 A 
HETATM   18  C   UNL     1       8.530  21.729  53.593  1.00  0.00     0.037 A 
HETATM   19 CL   UNL     1       8.857  20.177  52.924  1.00  0.00    -0.084 Cl
HETATM   20  C   UNL     1       7.642  22.581  52.951  1.00  0.00     0.052 A 
ENDBRANCH  13  14
ENDBRANCH   9  13
ENDBRANCH   4   7
BRANCH   1  21
HETATM   21  N   UNL     1       7.064  30.060  58.568  1.00  0.00    -0.321 N 
HETATM   22  C   UNL     1       7.147  31.361  59.027  1.00  0.00     0.279 C 
HETATM   23  O   UNL     1       6.710  32.351  58.450  1.00  0.00    -0.265 OA
HETATM   24  H   UNL     1       7.516  29.379  59.169  1.00  0.00     0.169 HD
BRANCH  22  25
HETATM   25  C   UNL     1       7.830  31.447  60.309  1.00  0.00     0.142 A 
HETATM   26  O   UNL     1       8.774  30.501  60.631  1.00  0.00    -0.317 OA
HETATM   27  C   UNL     1       9.234  30.800  61.873  1.00  0.00     0.143 A 
HETATM   28  C   UNL     1       8.611  31.924  62.360  1.00  0.00     0.027 A 
HETATM   29  C   UNL     1       7.707  32.342  61.354  1.00  0.00     0.045 A 
ENDBRANCH  22  25
ENDBRANCH   1  21
TORSDOF 5
ENDMDL
MODEL 5
REMARK VINA RESULT:      -8.7      3.510      9.484
REMARK  5 active torsions:
REMARK  status: ('A' for Active; 'I' for Inactive)
REMARK    1  A    between atoms: C_4  and  C_5 
REMARK       I    between atoms: C_5  and  N_6 
REMARK    2  A    between atoms: N_6  and  C_7 
REMARK    3  A    between atoms: C_10  and  N_11 
REMARK       I    between atoms: N_11  and  C_12 
REMARK       I    between atoms: C_12  and  N_13 
REMARK    4  A    between atoms: N_13  and  C_14 
REMARK    5  A    between atoms: C_14  and  C_15 
ROOT
HETATM    1  C   UNL     1       5.999  25.243  55.282  1.00  0.00     0.035 A 
HETATM    2  C   UNL     1       5.635  25.418  56.618  1.00  0.00     0.032 A 
HETATM    3  C   UNL     1       4.977  26.590  57.038  1.00  0.00     0.032 A 
HETATM    4  C   UNL     1       4.695  27.609  56.130  1.00  0.00     0.036 A 
HETATM    5  C   UNL     1       5.067  27.428  54.792  1.00  0.00     0.032 A 
HETATM    6  C   UNL     1       5.711  26.262  54.371  1.00  0.00     0.032 A 
ENDROOT
BRANCH   4   7
HETATM    7  N   UNL     1       4.007  28.800  56.415  1.00  0.00    -0.309 N 
HETATM    8  C   UNL     1       4.233  29.872  57.208  1.00  0.00     0.321 C 
HETATM    9  N   UNL     1       5.459  30.059  57.748  1.00  0.00    -0.337 N 
HETATM   10  O   UNL     1       3.308  30.664  57.392  1.00  0.00    -0.247 OA
HETATM   11  H   UNL     1       6.251  29.745  57.204  1.00  0.00     0.164 HD
HETATM   12  H   UNL     1       3.087  28.884  56.000  1.00  0.00     0.170 HD
BRANCH   9  13
HETATM   13  C   UNL     1       5.697  31.265  58.513  1.00  0.00     0.183 C 
BRANCH  13  14
HETATM   14  C   UNL     1       7.146  31.471  58.890  1.00  0.00     0.053 A 
HETATM   15  N   UNL     1       7.435  32.252  59.966  1.00  0.00    -0.264 NA
HETATM   16  C   UNL     1       8.738  32.398  60.299  1.00  0.00     0.118 A 
HETATM   17  C   UNL     1       9.778  31.788  59.625  1.00  0.00     0.043 A 
HETATM   18  C   UNL     1       9.455  30.981  58.544  1.00  0.00     0.037 A 
HETATM   19 CL   UNL     1      10.703  30.178  57.671  1.00  0.00    -0.084 Cl
HETATM   20  C   UNL     1       8.131  30.813  58.162  1.00  0.00     0.052 A 
ENDBRANCH  13  14
ENDBRANCH   9  13
ENDBRANCH   4   7
BRANCH   1  21
HETATM   21  N   UNL     1       6.615  24.091  54.764  1.00  0.00    -0.321 N 
HETATM   22  C   UNL     1       7.802  23.495  55.144  1.00  0.00     0.279 C 
HETATM   23  O   UNL     1       8.579  23.926  55.989  1.00  0.00    -0.265 OA
HETATM   24  H   UNL     1       6.125  23.602  54.022  1.00  0.00     0.169 HD
BRANCH  22  25
HETATM   25  C   UNL     1       8.052  22.260  54.416  1.00  0.00     0.142 A 
HETATM   26  O   UNL     1       8.635  21.201  55.070  1.00  0.00    -0.317 OA
HETATM   27  C   UNL     1       8.771  20.197  54.166  1.00  0.00     0.143 A 
HETATM   28  C   UNL     1       8.282  20.581  52.941  1.00  0.00     0.027 A 
HETATM   29  C   UNL     1       7.818  21.910  53.100  1.00  0.00     0.045 A 
ENDBRANCH  22  25
ENDBRANCH   1  21
TORSDOF 5
ENDMDL
MODEL 6
REMARK VINA RESULT:      -8.6      4.063      9.559
REMARK  5 active torsions:
REMARK  status: ('A' for Active; 'I' for Inactive)
REMARK    1  A    between atoms: C_4  and  C_5 
REMARK       I    between atoms: C_5  and  N_6 
REMARK    2  A    between atoms: N_6  and  C_7 
REMARK    3  A    between atoms: C_10  and  N_11 
REMARK       I    between atoms: N_11  and  C_12 
REMARK       I    between atoms: C_12  and  N_13 
REMARK    4  A    between atoms: N_13  and  C_14 
REMARK    5  A    between atoms: C_14  and  C_15 
ROOT
HETATM    1  C   UNL     1       6.628  25.701  55.713  1.00  0.00     0.035 A 
HETATM    2  C   UNL     1       5.590  26.134  56.540  1.00  0.00     0.032 A 
HETATM    3  C   UNL     1       5.201  27.487  56.561  1.00  0.00     0.032 A 
HETATM    4  C   UNL     1       5.860  28.426  55.769  1.00  0.00     0.036 A 
HETATM    5  C   UNL     1       6.904  27.985  54.946  1.00  0.00     0.032 A 
HETATM    6  C   UNL     1       7.285  26.641  54.917  1.00  0.00     0.032 A 
ENDROOT
BRANCH   4   7
HETATM    7  N   UNL     1       5.539  29.789  55.667  1.00  0.00    -0.309 N 
HETATM    8  C   UNL     1       5.523  30.837  56.522  1.00  0.00     0.321 C 
HETATM    9  N   UNL     1       6.123  30.727  57.729  1.00  0.00    -0.337 N 
HETATM   10  O   UNL     1       4.975  31.878  56.155  1.00  0.00    -0.247 OA
HETATM   11  H   UNL     1       6.941  30.136  57.781  1.00  0.00     0.164 HD
HETATM   12  H   UNL     1       5.162  30.084  54.775  1.00  0.00     0.170 HD
BRANCH   9  13
HETATM   13  C   UNL     1       6.171  31.896  58.583  1.00  0.00     0.183 C 
BRANCH  13  14
HETATM   14  C   UNL     1       7.366  31.925  59.507  1.00  0.00     0.053 A 
HETATM   15  N   UNL     1       8.611  31.828  58.967  1.00  0.00    -0.264 NA
HETATM   16  C   UNL     1       9.665  31.883  59.813  1.00  0.00     0.118 A 
HETATM   17  C   UNL     1       9.547  32.051  61.179  1.00  0.00     0.043 A 
HETATM   18  C   UNL     1       8.269  32.167  61.703  1.00  0.00     0.037 A 
HETATM   19 CL   UNL     1       8.053  32.396  63.396  1.00  0.00    -0.084 Cl
HETATM   20  C   UNL     1       7.160  32.105  60.871  1.00  0.00     0.052 A 
ENDBRANCH  13  14
ENDBRANCH   9  13
ENDBRANCH   4   7
BRANCH   1  21
HETATM   21  N   UNL     1       7.052  24.367  55.593  1.00  0.00    -0.321 N 
HETATM   22  C   UNL     1       7.932  23.659  56.390  1.00  0.00     0.279 C 
HETATM   23  O   UNL     1       8.563  24.116  57.337  1.00  0.00    -0.265 OA
HETATM   24  H   UNL     1       6.652  23.824  54.834  1.00  0.00     0.169 HD
BRANCH  22  25
HETATM   25  C   UNL     1       8.043  22.267  55.981  1.00  0.00     0.142 A 
HETATM   26  O   UNL     1       7.683  21.913  54.702  1.00  0.00    -0.317 OA
HETATM   27  C   UNL     1       7.862  20.571  54.592  1.00  0.00     0.143 A 
HETATM   28  C   UNL     1       8.337  20.050  55.772  1.00  0.00     0.027 A 
HETATM   29  C   UNL     1       8.455  21.141  56.667  1.00  0.00     0.045 A 
ENDBRANCH  22  25
ENDBRANCH   1  21
TORSDOF 5
ENDMDL
MODEL 7
REMARK VINA RESULT:      -8.6      3.104      4.583
REMARK  5 active torsions:
REMARK  status: ('A' for Active; 'I' for Inactive)
REMARK    1  A    between atoms: C_4  and  C_5 
REMARK       I    between atoms: C_5  and  N_6 
REMARK    2  A    between atoms: N_6  and  C_7 
REMARK    3  A    between atoms: C_10  and  N_11 
REMARK       I    between atoms: N_11  and  C_12 
REMARK       I    between atoms: C_12  and  N_13 
REMARK    4  A    between atoms: N_13  and  C_14 
REMARK    5  A    between atoms: C_14  and  C_15 
ROOT
HETATM    1  C   UNL     1       7.184  32.171  61.545  1.00  0.00     0.035 A 
HETATM    2  C   UNL     1       6.557  32.298  60.305  1.00  0.00     0.032 A 
HETATM    3  C   UNL     1       7.074  31.652  59.166  1.00  0.00     0.032 A 
HETATM    4  C   UNL     1       8.237  30.889  59.251  1.00  0.00     0.036 A 
HETATM    5  C   UNL     1       8.864  30.770  60.498  1.00  0.00     0.032 A 
HETATM    6  C   UNL     1       8.346  31.401  61.631  1.00  0.00     0.032 A 
ENDROOT
BRANCH   4   7
HETATM    7  N   UNL     1       8.826  30.163  58.203  1.00  0.00    -0.309 N 
HETATM    8  C   UNL     1       8.607  28.957  57.630  1.00  0.00     0.321 C 
HETATM    9  N   UNL     1       7.466  28.284  57.900  1.00  0.00    -0.337 N 
HETATM   10  O   UNL     1       9.458  28.521  56.852  1.00  0.00    -0.247 OA
HETATM   11  H   UNL     1       6.639  28.838  58.077  1.00  0.00     0.164 HD
HETATM   12  H   UNL     1       9.656  30.577  57.796  1.00  0.00     0.170 HD
BRANCH   9  13
HETATM   13  C   UNL     1       7.217  27.042  57.198  1.00  0.00     0.183 C 
BRANCH  13  14
HETATM   14  C   UNL     1       6.287  27.186  56.016  1.00  0.00     0.053 A 
HETATM   15  N   UNL     1       5.658  28.377  55.822  1.00  0.00    -0.264 NA
HETATM   16  C   UNL     1       4.852  28.489  54.742  1.00  0.00     0.118 A 
HETATM   17  C   UNL     1       4.651  27.477  53.824  1.00  0.00     0.043 A 
HETATM   18  C   UNL     1       5.319  26.279  54.032  1.00  0.00     0.037 A 
HETATM   19 CL   UNL     1       5.124  24.984  52.916  1.00  0.00    -0.084 Cl
HETATM   20  C   UNL     1       6.147  26.119  55.135  1.00  0.00     0.052 A 
ENDBRANCH  13  14
ENDBRANCH   9  13
ENDBRANCH   4   7
BRANCH   1  21
HETATM   21  N   UNL     1       6.714  32.738  62.742  1.00  0.00    -0.321 N 
HETATM   22  C   UNL     1       5.672  32.325  63.550  1.00  0.00     0.279 C 
HETATM   23  O   UNL     1       4.913  31.391  63.314  1.00  0.00    -0.265 OA
HETATM   24  H   UNL     1       7.209  33.554  63.089  1.00  0.00     0.169 HD
BRANCH  22  25
HETATM   25  C   UNL     1       5.557  33.136  64.753  1.00  0.00     0.142 A 
HETATM   26  O   UNL     1       4.319  33.326  65.319  1.00  0.00    -0.317 OA
HETATM   27  C   UNL     1       4.492  34.127  66.402  1.00  0.00     0.143 A 
HETATM   28  C   UNL     1       5.818  34.454  66.553  1.00  0.00     0.027 A 
HETATM   29  C   UNL     1       6.506  33.816  65.492  1.00  0.00     0.045 A 
ENDBRANCH  22  25
ENDBRANCH   1  21
TORSDOF 5
ENDMDL
MODEL 8
REMARK VINA RESULT:      -8.1      4.539      8.689
REMARK  5 active torsions:
REMARK  status: ('A' for Active; 'I' for Inactive)
REMARK    1  A    between atoms: C_4  and  C_5 
REMARK       I    between atoms: C_5  and  N_6 
REMARK    2  A    between atoms: N_6  and  C_7 
REMARK    3  A    between atoms: C_10  and  N_11 
REMARK       I    between atoms: N_11  and  C_12 
REMARK       I    between atoms: C_12  and  N_13 
REMARK    4  A    between atoms: N_13  and  C_14 
REMARK    5  A    between atoms: C_14  and  C_15 
ROOT
HETATM    1  C   UNL     1       4.728  27.897  52.391  1.00  0.00     0.035 A 
HETATM    2  C   UNL     1       4.031  27.843  53.599  1.00  0.00     0.032 A 
HETATM    3  C   UNL     1       4.719  27.802  54.827  1.00  0.00     0.032 A 
HETATM    4  C   UNL     1       6.112  27.795  54.858  1.00  0.00     0.036 A 
HETATM    5  C   UNL     1       6.805  27.844  53.642  1.00  0.00     0.032 A 
HETATM    6  C   UNL     1       6.124  27.894  52.423  1.00  0.00     0.032 A 
ENDROOT
BRANCH   4   7
HETATM    7  N   UNL     1       6.911  27.801  56.013  1.00  0.00    -0.309 N 
HETATM    8  C   UNL     1       7.539  26.857  56.751  1.00  0.00     0.321 C 
HETATM    9  N   UNL     1       7.677  25.605  56.259  1.00  0.00    -0.337 N 
HETATM   10  O   UNL     1       7.990  27.184  57.850  1.00  0.00    -0.247 OA
HETATM   11  H   UNL     1       7.782  25.516  55.258  1.00  0.00     0.164 HD
HETATM   12  H   UNL     1       7.009  28.699  56.473  1.00  0.00     0.170 HD
BRANCH   9  13
HETATM   13  C   UNL     1       8.437  24.643  57.030  1.00  0.00     0.183 C 
BRANCH  13  14
HETATM   14  C   UNL     1       8.374  23.237  56.480  1.00  0.00     0.053 A 
HETATM   15  N   UNL     1       8.410  22.193  57.352  1.00  0.00    -0.264 NA
HETATM   16  C   UNL     1       8.326  20.946  56.836  1.00  0.00     0.118 A 
HETATM   17  C   UNL     1       8.186  20.678  55.488  1.00  0.00     0.043 A 
HETATM   18  C   UNL     1       8.131  21.759  54.622  1.00  0.00     0.037 A 
HETATM   19 CL   UNL     1       7.940  21.495  52.932  1.00  0.00    -0.084 Cl
HETATM   20  C   UNL     1       8.226  23.056  55.109  1.00  0.00     0.052 A 
ENDBRANCH  13  14
ENDBRANCH   9  13
ENDBRANCH   4   7
BRANCH   1  21
HETATM   21  N   UNL     1       4.127  27.986  51.124  1.00  0.00    -0.321 N 
HETATM   22  C   UNL     1       4.236  27.126  50.047  1.00  0.00     0.279 C 
HETATM   23  O   UNL     1       4.955  26.134  49.996  1.00  0.00    -0.265 OA
HETATM   24  H   UNL     1       3.507  28.774  50.964  1.00  0.00     0.169 HD
BRANCH  22  25
HETATM   25  C   UNL     1       3.384  27.527  48.938  1.00  0.00     0.142 A 
HETATM   26  O   UNL     1       2.726  26.562  48.213  1.00  0.00    -0.317 OA
HETATM   27  C   UNL     1       2.028  27.200  47.238  1.00  0.00     0.143 A 
HETATM   28  C   UNL     1       2.216  28.559  47.320  1.00  0.00     0.027 A 
HETATM   29  C   UNL     1       3.088  28.772  48.415  1.00  0.00     0.045 A 
ENDBRANCH  22  25
ENDBRANCH   1  21
TORSDOF 5
ENDMDL
MODEL 9
REMARK VINA RESULT:      -8.1      6.991      9.792
REMARK  5 active torsions:
REMARK  status: ('A' for Active; 'I' for Inactive)
REMARK    1  A    between atoms: C_4  and  C_5 
REMARK       I    between atoms: C_5  and  N_6 
REMARK    2  A    between atoms: N_6  and  C_7 
REMARK    3  A    between atoms: C_10  and  N_11 
REMARK       I    between atoms: N_11  and  C_12 
REMARK       I    between atoms: C_12  and  N_13 
REMARK    4  A    between atoms: N_13  and  C_14 
REMARK    5  A    between atoms: C_14  and  C_15 
ROOT
HETATM    1  C   UNL     1       6.801  25.016  53.753  1.00  0.00     0.035 A 
HETATM    2  C   UNL     1       7.489  26.226  53.861  1.00  0.00     0.032 A 
HETATM    3  C   UNL     1       7.032  27.378  53.193  1.00  0.00     0.032 A 
HETATM    4  C   UNL     1       5.892  27.327  52.392  1.00  0.00     0.036 A 
HETATM    5  C   UNL     1       5.210  26.109  52.284  1.00  0.00     0.032 A 
HETATM    6  C   UNL     1       5.656  24.967  52.954  1.00  0.00     0.032 A 
ENDROOT
BRANCH   4   7
HETATM    7  N   UNL     1       5.313  28.411  51.714  1.00  0.00    -0.309 N 
HETATM    8  C   UNL     1       5.175  28.769  50.416  1.00  0.00     0.321 C 
HETATM    9  N   UNL     1       5.430  27.865  49.442  1.00  0.00    -0.337 N 
HETATM   10  O   UNL     1       4.793  29.913  50.166  1.00  0.00    -0.247 OA
HETATM   11  H   UNL     1       5.227  26.897  49.651  1.00  0.00     0.164 HD
HETATM   12  H   UNL     1       4.963  29.159  52.301  1.00  0.00     0.170 HD
BRANCH   9  13
HETATM   13  C   UNL     1       5.182  28.248  48.067  1.00  0.00     0.183 C 
BRANCH  13  14
HETATM   14  C   UNL     1       3.827  27.820  47.552  1.00  0.00     0.053 A 
HETATM   15  N   UNL     1       3.605  26.498  47.319  1.00  0.00    -0.264 NA
HETATM   16  C   UNL     1       2.376  26.139  46.884  1.00  0.00     0.118 A 
HETATM   17  C   UNL     1       1.339  27.029  46.685  1.00  0.00     0.043 A 
HETATM   18  C   UNL     1       1.584  28.368  46.949  1.00  0.00     0.037 A 
HETATM   19 CL   UNL     1       0.329  29.527  46.738  1.00  0.00    -0.084 Cl
HETATM   20  C   UNL     1       2.835  28.781  47.387  1.00  0.00     0.052 A 
ENDBRANCH  13  14
ENDBRANCH   9  13
ENDBRANCH   4   7
BRANCH   1  21
HETATM   21  N   UNL     1       7.155  23.831  54.419  1.00  0.00    -0.321 N 
HETATM   22  C   UNL     1       7.658  22.655  53.893  1.00  0.00     0.279 C 
HETATM   23  O   UNL     1       7.826  22.421  52.701  1.00  0.00    -0.265 OA
HETATM   24  H   UNL     1       7.056  23.824  55.429  1.00  0.00     0.169 HD
BRANCH  22  25
HETATM   25  C   UNL     1       7.980  21.686  54.930  1.00  0.00     0.142 A 
HETATM   26  O   UNL     1       7.972  22.083  56.246  1.00  0.00    -0.317 OA
HETATM   27  C   UNL     1       8.323  21.004  56.992  1.00  0.00     0.143 A 
HETATM   28  C   UNL     1       8.552  19.914  56.187  1.00  0.00     0.027 A 
HETATM   29  C   UNL     1       8.330  20.351  54.858  1.00  0.00     0.045 A 
ENDBRANCH  22  25
ENDBRANCH   1  21
TORSDOF 5
ENDMDL
MODEL 10
REMARK VINA RESULT:      -7.9      3.832     10.100
REMARK  5 active torsions:
REMARK  status: ('A' for Active; 'I' for Inactive)
REMARK    1  A    between atoms: C_4  and  C_5 
REMARK       I    between atoms: C_5  and  N_6 
REMARK    2  A    between atoms: N_6  and  C_7 
REMARK    3  A    between atoms: C_10  and  N_11 
REMARK       I    between atoms: N_11  and  C_12 
REMARK       I    between atoms: C_12  and  N_13 
REMARK    4  A    between atoms: N_13  and  C_14 
REMARK    5  A    between atoms: C_14  and  C_15 
ROOT
HETATM    1  C   UNL     1       7.498  28.513  56.155  1.00  0.00     0.035 A 
HETATM    2  C   UNL     1       6.702  29.174  57.092  1.00  0.00     0.032 A 
HETATM    3  C   UNL     1       7.280  30.006  58.070  1.00  0.00     0.032 A 
HETATM    4  C   UNL     1       8.663  30.170  58.134  1.00  0.00     0.036 A 
HETATM    5  C   UNL     1       9.455  29.499  57.193  1.00  0.00     0.032 A 
HETATM    6  C   UNL     1       8.882  28.682  56.216  1.00  0.00     0.032 A 
ENDROOT
BRANCH   4   7
HETATM    7  N   UNL     1       9.354  31.003  59.029  1.00  0.00    -0.309 N 
HETATM    8  C   UNL     1       9.273  31.264  60.353  1.00  0.00     0.321 C 
HETATM    9  N   UNL     1       8.537  30.458  61.152  1.00  0.00    -0.337 N 
HETATM   10  O   UNL     1       9.903  32.227  60.795  1.00  0.00    -0.247 OA
HETATM   11  H   UNL     1       8.489  29.481  60.897  1.00  0.00     0.164 HD
HETATM   12  H   UNL     1      10.040  31.620  58.611  1.00  0.00     0.170 HD
BRANCH   9  13
HETATM   13  C   UNL     1       8.546  30.708  62.578  1.00  0.00     0.183 C 
BRANCH  13  14
HETATM   14  C   UNL     1       7.542  31.747  63.021  1.00  0.00     0.053 A 
HETATM   15  N   UNL     1       7.949  32.726  63.872  1.00  0.00    -0.264 NA
HETATM   16  C   UNL     1       7.039  33.659  64.232  1.00  0.00     0.118 A 
HETATM   17  C   UNL     1       5.737  33.682  63.771  1.00  0.00     0.043 A 
HETATM   18  C   UNL     1       5.352  32.684  62.888  1.00  0.00     0.037 A 
HETATM   19 CL   UNL     1       3.748  32.665  62.263  1.00  0.00    -0.084 Cl
HETATM   20  C   UNL     1       6.252  31.701  62.502  1.00  0.00     0.052 A 
ENDBRANCH  13  14
ENDBRANCH   9  13
ENDBRANCH   4   7
BRANCH   1  21
HETATM   21  N   UNL     1       7.007  27.703  55.118  1.00  0.00    -0.321 N 
HETATM   22  C   UNL     1       6.989  26.324  55.026  1.00  0.00     0.279 C 
HETATM   23  O   UNL     1       7.477  25.548  55.840  1.00  0.00    -0.265 OA
HETATM   24  H   UNL     1       6.582  28.176  54.326  1.00  0.00     0.169 HD
BRANCH  22  25
HETATM   25  C   UNL     1       6.312  25.864  53.823  1.00  0.00     0.142 A 
HETATM   26  O   UNL     1       6.780  26.266  52.594  1.00  0.00    -0.317 OA
HETATM   27  C   UNL     1       5.965  25.718  51.656  1.00  0.00     0.143 A 
HETATM   28  C   UNL     1       4.983  24.963  52.252  1.00  0.00     0.027 A 
HETATM   29  C   UNL     1       5.205  25.055  53.647  1.00  0.00     0.045 A 
ENDBRANCH  22  25
ENDBRANCH   1  21
TORSDOF 5
ENDMDL
