MODEL 1
REMARK VINA RESULT:      -9.9      0.000      0.000
REMARK  6 active torsions:
REMARK  status: ('A' for Active; 'I' for Inactive)
REMARK    1  A    between atoms: C_3  and  O_4 
REMARK    2  A    between atoms: O_4  and  C_5 
REMARK    3  A    between atoms: C_5  and  C_6 
REMARK       I    between atoms: C_6  and  N_7 
REMARK    4  A    between atoms: N_7  and  C_8 
REMARK    5  A    between atoms: C_8  and  C_9 
REMARK       I    between atoms: C_9  and  N_10 
REMARK    6  A    between atoms: N_10  and  N_11 
ROOT
HETATM    1  C   UNL     1       7.320  28.451  57.632  1.00  0.00     0.255 C 
HETATM    2  N   UNL     1       6.473  27.719  56.819  1.00  0.00    -0.245 N 
HETATM    3  O   UNL     1       8.303  27.997  58.218  1.00  0.00    -0.270 OA
HETATM    4  H   UNL     1       5.647  28.165  56.412  1.00  0.00     0.192 HD
ENDROOT
BRANCH   1   5
HETATM    5  C   UNL     1       6.900  29.908  57.823  1.00  0.00     0.227 C 
BRANCH   5   6
HETATM    6  N   UNL     1       7.987  30.827  58.145  1.00  0.00    -0.350 N 
HETATM    7  C   UNL     1       7.957  31.880  59.019  1.00  0.00     0.242 C 
HETATM    8  O   UNL     1       9.020  32.415  59.336  1.00  0.00    -0.271 OA
HETATM    9  H   UNL     1       8.928  30.571  57.863  1.00  0.00     0.163 HD
BRANCH   7  10
HETATM   10  C   UNL     1       6.622  32.325  59.607  1.00  0.00     0.278 C 
BRANCH  10  11
HETATM   11  O   UNL     1       6.448  31.695  60.870  1.00  0.00    -0.342 OA
BRANCH  11  12
HETATM   12  C   UNL     1       6.617  32.480  61.979  1.00  0.00     0.075 A 
HETATM   13  C   UNL     1       7.666  32.120  62.843  1.00  0.00    -0.029 A 
HETATM   14  C   UNL     1       8.502  30.891  62.610  1.00  0.00     0.051 C 
HETATM   15  C   UNL     1       7.898  32.885  63.998  1.00  0.00     0.009 A 
HETATM   16  C   UNL     1       7.125  34.011  64.272  1.00  0.00     0.001 A 
HETATM   17  C   UNL     1       6.106  34.379  63.401  1.00  0.00     0.003 A 
HETATM   18  C   UNL     1       5.852  33.618  62.258  1.00  0.00     0.037 A 
ENDBRANCH  11  12
ENDBRANCH  10  11
ENDBRANCH   7  10
ENDBRANCH   5   6
ENDBRANCH   1   5
BRANCH   2  19
HETATM   19  N   UNL     1       6.731  26.401  56.574  1.00  0.00    -0.166 NA
HETATM   20  C   UNL     1       7.056  26.082  55.364  1.00  0.00     0.157 A 
HETATM   21  C   UNL     1       7.221  26.993  54.147  1.00  0.00     0.277 A 
HETATM   22  C   UNL     1       7.362  24.734  54.900  1.00  0.00     0.028 A 
HETATM   23  O   UNL     1       7.049  28.193  54.154  1.00  0.00    -0.266 OA
HETATM   24  N   UNL     1       7.596  26.164  53.113  1.00  0.00    -0.321 N 
HETATM   25  C   UNL     1       7.680  24.843  53.546  1.00  0.00     0.048 A 
HETATM   26  H   UNL     1       7.782  26.495  52.177  1.00  0.00     0.169 HD
HETATM   27  C   UNL     1       8.025  23.735  52.802  1.00  0.00     0.032 A 
HETATM   28  C   UNL     1       8.041  22.499  53.462  1.00  0.00     0.021 A 
HETATM   29  C   UNL     1       7.715  22.404  54.832  1.00  0.00     0.012 A 
HETATM   30 BR   UNL     1       7.747  20.710  55.674  1.00  0.00    -0.051 Br
HETATM   31  C   UNL     1       7.369  23.531  55.576  1.00  0.00     0.035 A 
ENDBRANCH   2  19
TORSDOF 6
ENDMDL
MODEL 2
REMARK VINA RESULT:      -9.7      1.809      2.847
REMARK  6 active torsions:
REMARK  status: ('A' for Active; 'I' for Inactive)
REMARK    1  A    between atoms: C_3  and  O_4 
REMARK    2  A    between atoms: O_4  and  C_5 
REMARK    3  A    between atoms: C_5  and  C_6 
REMARK       I    between atoms: C_6  and  N_7 
REMARK    4  A    between atoms: N_7  and  C_8 
REMARK    5  A    between atoms: C_8  and  C_9 
REMARK       I    between atoms: C_9  and  N_10 
REMARK    6  A    between atoms: N_10  and  N_11 
ROOT
HETATM    1  C   UNL     1       6.310  27.774  55.479  1.00  0.00     0.255 C 
HETATM    2  N   UNL     1       7.546  27.158  55.399  1.00  0.00    -0.245 N 
HETATM    3  O   UNL     1       5.244  27.265  55.131  1.00  0.00    -0.270 OA
HETATM    4  H   UNL     1       8.389  27.674  55.663  1.00  0.00     0.192 HD
ENDROOT
BRANCH   1   5
HETATM    5  C   UNL     1       6.360  29.216  55.984  1.00  0.00     0.227 C 
BRANCH   5   6
HETATM    6  N   UNL     1       7.701  29.764  56.154  1.00  0.00    -0.350 N 
HETATM    7  C   UNL     1       8.371  29.980  57.328  1.00  0.00     0.242 C 
HETATM    8  O   UNL     1       9.574  30.242  57.282  1.00  0.00    -0.271 OA
HETATM    9  H   UNL     1       8.302  29.818  55.338  1.00  0.00     0.163 HD
BRANCH   7  10
HETATM   10  C   UNL     1       7.624  29.842  58.650  1.00  0.00     0.278 C 
BRANCH  10  11
HETATM   11  O   UNL     1       8.496  30.222  59.708  1.00  0.00    -0.342 OA
BRANCH  11  12
HETATM   12  C   UNL     1       8.022  31.157  60.590  1.00  0.00     0.075 A 
HETATM   13  C   UNL     1       8.621  31.173  61.862  1.00  0.00    -0.029 A 
HETATM   14  C   UNL     1       9.665  30.166  62.262  1.00  0.00     0.051 C 
HETATM   15  C   UNL     1       8.186  32.108  62.815  1.00  0.00     0.009 A 
HETATM   16  C   UNL     1       7.196  33.036  62.499  1.00  0.00     0.001 A 
HETATM   17  C   UNL     1       6.625  33.034  61.232  1.00  0.00     0.003 A 
HETATM   18  C   UNL     1       7.035  32.098  60.279  1.00  0.00     0.037 A 
ENDBRANCH  11  12
ENDBRANCH  10  11
ENDBRANCH   7  10
ENDBRANCH   5   6
ENDBRANCH   1   5
BRANCH   2  19
HETATM   19  N   UNL     1       7.640  25.871  54.955  1.00  0.00    -0.166 NA
HETATM   20  C   UNL     1       7.892  24.962  55.840  1.00  0.00     0.157 A 
HETATM   21  C   UNL     1       8.080  25.123  57.349  1.00  0.00     0.277 A 
HETATM   22  C   UNL     1       8.038  23.537  55.568  1.00  0.00     0.028 A 
HETATM   23  O   UNL     1       8.024  26.179  57.943  1.00  0.00    -0.266 OA
HETATM   24  N   UNL     1       8.304  23.852  57.832  1.00  0.00    -0.321 N 
HETATM   25  C   UNL     1       8.281  22.921  56.796  1.00  0.00     0.048 A 
HETATM   26  H   UNL     1       8.458  23.650  58.809  1.00  0.00     0.169 HD
HETATM   27  C   UNL     1       8.463  21.558  56.887  1.00  0.00     0.032 A 
HETATM   28  C   UNL     1       8.395  20.821  55.698  1.00  0.00     0.021 A 
HETATM   29  C   UNL     1       8.151  21.458  54.463  1.00  0.00     0.012 A 
HETATM   30 BR   UNL     1       8.073  20.416  52.885  1.00  0.00    -0.051 Br
HETATM   31  C   UNL     1       7.966  22.837  54.381  1.00  0.00     0.035 A 
ENDBRANCH   2  19
TORSDOF 6
ENDMDL
MODEL 3
REMARK VINA RESULT:      -9.7      1.338      2.125
REMARK  6 active torsions:
REMARK  status: ('A' for Active; 'I' for Inactive)
REMARK    1  A    between atoms: C_3  and  O_4 
REMARK    2  A    between atoms: O_4  and  C_5 
REMARK    3  A    between atoms: C_5  and  C_6 
REMARK       I    between atoms: C_6  and  N_7 
REMARK    4  A    between atoms: N_7  and  C_8 
REMARK    5  A    between atoms: C_8  and  C_9 
REMARK       I    between atoms: C_9  and  N_10 
REMARK    6  A    between atoms: N_10  and  N_11 
ROOT
HETATM    1  C   UNL     1       7.019  28.459  57.534  1.00  0.00     0.255 C 
HETATM    2  N   UNL     1       6.287  27.704  56.635  1.00  0.00    -0.245 N 
HETATM    3  O   UNL     1       7.925  28.025  58.246  1.00  0.00    -0.270 OA
HETATM    4  H   UNL     1       5.515  28.135  56.119  1.00  0.00     0.192 HD
ENDROOT
BRANCH   1   5
HETATM    5  C   UNL     1       6.566  29.915  57.644  1.00  0.00     0.227 C 
BRANCH   5   6
HETATM    6  N   UNL     1       5.177  30.100  58.051  1.00  0.00    -0.350 N 
HETATM    7  C   UNL     1       4.580  31.256  58.479  1.00  0.00     0.242 C 
HETATM    8  O   UNL     1       3.353  31.287  58.572  1.00  0.00    -0.271 OA
HETATM    9  H   UNL     1       4.510  29.371  57.819  1.00  0.00     0.163 HD
BRANCH   7  10
HETATM   10  C   UNL     1       5.444  32.476  58.778  1.00  0.00     0.278 C 
BRANCH  10  11
HETATM   11  O   UNL     1       5.611  32.583  60.186  1.00  0.00    -0.342 OA
BRANCH  11  12
HETATM   12  C   UNL     1       6.861  32.321  60.679  1.00  0.00     0.075 A 
HETATM   13  C   UNL     1       6.927  31.911  62.022  1.00  0.00    -0.029 A 
HETATM   14  C   UNL     1       5.703  31.844  62.895  1.00  0.00     0.051 C 
HETATM   15  C   UNL     1       8.178  31.622  62.592  1.00  0.00     0.009 A 
HETATM   16  C   UNL     1       9.342  31.706  61.831  1.00  0.00     0.001 A 
HETATM   17  C   UNL     1       9.269  32.086  60.496  1.00  0.00     0.003 A 
HETATM   18  C   UNL     1       8.034  32.393  59.920  1.00  0.00     0.037 A 
ENDBRANCH  11  12
ENDBRANCH  10  11
ENDBRANCH   7  10
ENDBRANCH   5   6
ENDBRANCH   1   5
BRANCH   2  19
HETATM   19  N   UNL     1       6.584  26.386  56.448  1.00  0.00    -0.166 NA
HETATM   20  C   UNL     1       6.950  26.030  55.260  1.00  0.00     0.157 A 
HETATM   21  C   UNL     1       7.124  26.897  54.013  1.00  0.00     0.277 A 
HETATM   22  C   UNL     1       7.303  24.673  54.857  1.00  0.00     0.028 A 
HETATM   23  O   UNL     1       6.922  28.092  53.969  1.00  0.00    -0.266 OA
HETATM   24  N   UNL     1       7.548  26.039  53.021  1.00  0.00    -0.321 N 
HETATM   25  C   UNL     1       7.654  24.739  53.508  1.00  0.00     0.048 A 
HETATM   26  H   UNL     1       7.750  26.339  52.078  1.00  0.00     0.169 HD
HETATM   27  C   UNL     1       8.047  23.613  52.817  1.00  0.00     0.032 A 
HETATM   28  C   UNL     1       8.076  22.403  53.524  1.00  0.00     0.021 A 
HETATM   29  C   UNL     1       7.716  22.352  54.888  1.00  0.00     0.012 A 
HETATM   30 BR   UNL     1       7.768  20.693  55.796  1.00  0.00    -0.051 Br
HETATM   31  C   UNL     1       7.321  23.498  55.578  1.00  0.00     0.035 A 
ENDBRANCH   2  19
TORSDOF 6
ENDMDL
MODEL 4
REMARK VINA RESULT:      -9.5      3.636     10.637
REMARK  6 active torsions:
REMARK  status: ('A' for Active; 'I' for Inactive)
REMARK    1  A    between atoms: C_3  and  O_4 
REMARK    2  A    between atoms: O_4  and  C_5 
REMARK    3  A    between atoms: C_5  and  C_6 
REMARK       I    between atoms: C_6  and  N_7 
REMARK    4  A    between atoms: N_7  and  C_8 
REMARK    5  A    between atoms: C_8  and  C_9 
REMARK       I    between atoms: C_9  and  N_10 
REMARK    6  A    between atoms: N_10  and  N_11 
ROOT
HETATM    1  C   UNL     1       6.631  30.305  57.753  1.00  0.00     0.255 C 
HETATM    2  N   UNL     1       7.515  31.082  58.479  1.00  0.00    -0.245 N 
HETATM    3  O   UNL     1       5.407  30.324  57.877  1.00  0.00    -0.270 OA
HETATM    4  H   UNL     1       8.524  30.964  58.348  1.00  0.00     0.192 HD
ENDROOT
BRANCH   1   5
HETATM    5  C   UNL     1       7.304  29.324  56.791  1.00  0.00     0.227 C 
BRANCH   5   6
HETATM    6  N   UNL     1       8.004  28.216  57.431  1.00  0.00    -0.350 N 
HETATM    7  C   UNL     1       7.946  26.889  57.096  1.00  0.00     0.242 C 
HETATM    8  O   UNL     1       8.766  26.118  57.596  1.00  0.00    -0.271 OA
HETATM    9  H   UNL     1       8.769  28.433  58.060  1.00  0.00     0.163 HD
BRANCH   7  10
HETATM   10  C   UNL     1       6.907  26.419  56.085  1.00  0.00     0.278 C 
BRANCH  10  11
HETATM   11  O   UNL     1       7.577  25.997  54.904  1.00  0.00    -0.342 OA
BRANCH  11  12
HETATM   12  C   UNL     1       7.615  24.649  54.665  1.00  0.00     0.075 A 
HETATM   13  C   UNL     1       7.837  24.259  53.333  1.00  0.00    -0.029 A 
HETATM   14  C   UNL     1       7.942  25.262  52.216  1.00  0.00     0.051 C 
HETATM   15  C   UNL     1       7.891  22.891  53.018  1.00  0.00     0.009 A 
HETATM   16  C   UNL     1       7.763  21.926  54.015  1.00  0.00     0.001 A 
HETATM   17  C   UNL     1       7.571  22.317  55.335  1.00  0.00     0.003 A 
HETATM   18  C   UNL     1       7.497  23.674  55.661  1.00  0.00     0.037 A 
ENDBRANCH  11  12
ENDBRANCH  10  11
ENDBRANCH   7  10
ENDBRANCH   5   6
ENDBRANCH   1   5
BRANCH   2  19
HETATM   19  N   UNL     1       7.044  31.992  59.380  1.00  0.00    -0.166 NA
HETATM   20  C   UNL     1       7.503  31.918  60.586  1.00  0.00     0.157 A 
HETATM   21  C   UNL     1       8.541  30.949  61.155  1.00  0.00     0.277 A 
HETATM   22  C   UNL     1       7.122  32.790  61.690  1.00  0.00     0.028 A 
HETATM   23  O   UNL     1       9.089  30.073  60.520  1.00  0.00    -0.266 OA
HETATM   24  N   UNL     1       8.692  31.304  62.477  1.00  0.00    -0.321 N 
HETATM   25  C   UNL     1       7.866  32.379  62.796  1.00  0.00     0.048 A 
HETATM   26  H   UNL     1       9.325  30.833  63.108  1.00  0.00     0.169 HD
HETATM   27  C   UNL     1       7.741  33.009  64.015  1.00  0.00     0.032 A 
HETATM   28  C   UNL     1       6.837  34.077  64.096  1.00  0.00     0.021 A 
HETATM   29  C   UNL     1       6.090  34.481  62.969  1.00  0.00     0.012 A 
HETATM   30 BR   UNL     1       4.880  35.926  63.132  1.00  0.00    -0.051 Br
HETATM   31  C   UNL     1       6.225  33.837  61.739  1.00  0.00     0.035 A 
ENDBRANCH   2  19
TORSDOF 6
ENDMDL
MODEL 5
REMARK VINA RESULT:      -9.1      6.173      9.483
REMARK  6 active torsions:
REMARK  status: ('A' for Active; 'I' for Inactive)
REMARK    1  A    between atoms: C_3  and  O_4 
REMARK    2  A    between atoms: O_4  and  C_5 
REMARK    3  A    between atoms: C_5  and  C_6 
REMARK       I    between atoms: C_6  and  N_7 
REMARK    4  A    between atoms: N_7  and  C_8 
REMARK    5  A    between atoms: C_8  and  C_9 
REMARK       I    between atoms: C_9  and  N_10 
REMARK    6  A    between atoms: N_10  and  N_11 
ROOT
HETATM    1  C   UNL     1       5.530  27.324  54.342  1.00  0.00     0.255 C 
HETATM    2  N   UNL     1       4.469  27.272  53.456  1.00  0.00    -0.245 N 
HETATM    3  O   UNL     1       6.477  28.108  54.266  1.00  0.00    -0.270 OA
HETATM    4  H   UNL     1       3.749  26.552  53.566  1.00  0.00     0.192 HD
ENDROOT
BRANCH   1   5
HETATM    5  C   UNL     1       5.489  26.253  55.433  1.00  0.00     0.227 C 
BRANCH   5   6
HETATM    6  N   UNL     1       6.285  26.549  56.619  1.00  0.00    -0.350 N 
HETATM    7  C   UNL     1       7.165  25.719  57.261  1.00  0.00     0.242 C 
HETATM    8  O   UNL     1       7.915  26.198  58.112  1.00  0.00    -0.271 OA
HETATM    9  H   UNL     1       6.370  27.518  56.908  1.00  0.00     0.163 HD
BRANCH   7  10
HETATM   10  C   UNL     1       7.224  24.246  56.869  1.00  0.00     0.278 C 
BRANCH  10  11
HETATM   11  O   UNL     1       8.103  24.104  55.761  1.00  0.00    -0.342 OA
BRANCH  11  12
HETATM   12  C   UNL     1       8.031  22.926  55.066  1.00  0.00     0.075 A 
HETATM   13  C   UNL     1       8.010  23.030  53.665  1.00  0.00    -0.029 A 
HETATM   14  C   UNL     1       7.981  24.362  52.966  1.00  0.00     0.051 C 
HETATM   15  C   UNL     1       7.940  21.861  52.889  1.00  0.00     0.009 A 
HETATM   16  C   UNL     1       7.927  20.606  53.495  1.00  0.00     0.001 A 
HETATM   17  C   UNL     1       7.976  20.507  54.881  1.00  0.00     0.003 A 
HETATM   18  C   UNL     1       8.028  21.661  55.665  1.00  0.00     0.037 A 
ENDBRANCH  11  12
ENDBRANCH  10  11
ENDBRANCH   7  10
ENDBRANCH   5   6
ENDBRANCH   1   5
BRANCH   2  19
HETATM   19  N   UNL     1       4.392  28.168  52.430  1.00  0.00    -0.166 NA
HETATM   20  C   UNL     1       4.632  27.721  51.241  1.00  0.00     0.157 A 
HETATM   21  C   UNL     1       4.975  26.296  50.806  1.00  0.00     0.277 A 
HETATM   22  C   UNL     1       4.607  28.517  50.019  1.00  0.00     0.028 A 
HETATM   23  O   UNL     1       5.082  25.352  51.560  1.00  0.00    -0.266 OA
HETATM   24  N   UNL     1       5.114  26.350  49.437  1.00  0.00    -0.321 N 
HETATM   25  C   UNL     1       4.900  27.645  48.971  1.00  0.00     0.048 A 
HETATM   26  H   UNL     1       5.338  25.544  48.871  1.00  0.00     0.169 HD
HETATM   27  C   UNL     1       4.952  28.087  47.667  1.00  0.00     0.032 A 
HETATM   28  C   UNL     1       4.699  29.447  47.440  1.00  0.00     0.021 A 
HETATM   29  C   UNL     1       4.405  30.318  48.511  1.00  0.00     0.012 A 
HETATM   30 BR   UNL     1       4.076  32.146  48.151  1.00  0.00    -0.051 Br
HETATM   31  C   UNL     1       4.354  29.860  49.827  1.00  0.00     0.035 A 
ENDBRANCH   2  19
TORSDOF 6
ENDMDL
MODEL 6
REMARK VINA RESULT:      -8.9      2.530      3.860
REMARK  6 active torsions:
REMARK  status: ('A' for Active; 'I' for Inactive)
REMARK    1  A    between atoms: C_3  and  O_4 
REMARK    2  A    between atoms: O_4  and  C_5 
REMARK    3  A    between atoms: C_5  and  C_6 
REMARK       I    between atoms: C_6  and  N_7 
REMARK    4  A    between atoms: N_7  and  C_8 
REMARK    5  A    between atoms: C_8  and  C_9 
REMARK       I    between atoms: C_9  and  N_10 
REMARK    6  A    between atoms: N_10  and  N_11 
ROOT
HETATM    1  C   UNL     1       4.647  28.120  54.377  1.00  0.00     0.255 C 
HETATM    2  N   UNL     1       5.734  27.566  55.031  1.00  0.00    -0.245 N 
HETATM    3  O   UNL     1       4.025  27.581  53.461  1.00  0.00    -0.270 OA
HETATM    4  H   UNL     1       6.225  28.107  55.748  1.00  0.00     0.192 HD
ENDROOT
BRANCH   1   5
HETATM    5  C   UNL     1       4.295  29.535  54.835  1.00  0.00     0.227 C 
BRANCH   5   6
HETATM    6  N   UNL     1       3.836  29.641  56.216  1.00  0.00    -0.350 N 
HETATM    7  C   UNL     1       4.327  30.460  57.197  1.00  0.00     0.242 C 
HETATM    8  O   UNL     1       3.685  30.582  58.241  1.00  0.00    -0.271 OA
HETATM    9  H   UNL     1       2.942  29.226  56.456  1.00  0.00     0.163 HD
BRANCH   7  10
HETATM   10  C   UNL     1       5.619  31.231  56.949  1.00  0.00     0.278 C 
BRANCH  10  11
HETATM   11  O   UNL     1       6.714  30.440  57.393  1.00  0.00    -0.342 OA
BRANCH  11  12
HETATM   12  C   UNL     1       7.482  30.962  58.400  1.00  0.00     0.075 A 
HETATM   13  C   UNL     1       8.834  30.576  58.416  1.00  0.00    -0.029 A 
HETATM   14  C   UNL     1       9.388  29.579  57.435  1.00  0.00     0.051 C 
HETATM   15  C   UNL     1       9.680  31.077  59.418  1.00  0.00     0.009 A 
HETATM   16  C   UNL     1       9.200  31.976  60.370  1.00  0.00     0.001 A 
HETATM   17  C   UNL     1       7.869  32.376  60.334  1.00  0.00     0.003 A 
HETATM   18  C   UNL     1       7.012  31.872  59.353  1.00  0.00     0.037 A 
ENDBRANCH  11  12
ENDBRANCH  10  11
ENDBRANCH   7  10
ENDBRANCH   5   6
ENDBRANCH   1   5
BRANCH   2  19
HETATM   19  N   UNL     1       6.157  26.310  54.710  1.00  0.00    -0.166 NA
HETATM   20  C   UNL     1       6.756  25.637  55.637  1.00  0.00     0.157 A 
HETATM   21  C   UNL     1       7.045  26.048  57.081  1.00  0.00     0.277 A 
HETATM   22  C   UNL     1       7.286  24.286  55.492  1.00  0.00     0.028 A 
HETATM   23  O   UNL     1       6.742  27.117  57.568  1.00  0.00    -0.266 OA
HETATM   24  N   UNL     1       7.682  24.970  57.653  1.00  0.00    -0.321 N 
HETATM   25  C   UNL     1       7.827  23.937  56.730  1.00  0.00     0.048 A 
HETATM   26  H   UNL     1       7.991  24.954  58.615  1.00  0.00     0.169 HD
HETATM   27  C   UNL     1       8.411  22.705  56.931  1.00  0.00     0.032 A 
HETATM   28  C   UNL     1       8.441  21.823  55.843  1.00  0.00     0.021 A 
HETATM   29  C   UNL     1       7.891  22.191  54.597  1.00  0.00     0.012 A 
HETATM   30 BR   UNL     1       7.960  20.964  53.158  1.00  0.00    -0.051 Br
HETATM   31  C   UNL     1       7.301  23.439  54.403  1.00  0.00     0.035 A 
ENDBRANCH   2  19
TORSDOF 6
ENDMDL
MODEL 7
REMARK VINA RESULT:      -8.8      6.337      9.863
REMARK  6 active torsions:
REMARK  status: ('A' for Active; 'I' for Inactive)
REMARK    1  A    between atoms: C_3  and  O_4 
REMARK    2  A    between atoms: O_4  and  C_5 
REMARK    3  A    between atoms: C_5  and  C_6 
REMARK       I    between atoms: C_6  and  N_7 
REMARK    4  A    between atoms: N_7  and  C_8 
REMARK    5  A    between atoms: C_8  and  C_9 
REMARK       I    between atoms: C_9  and  N_10 
REMARK    6  A    between atoms: N_10  and  N_11 
ROOT
HETATM    1  C   UNL     1       5.329  28.405  52.875  1.00  0.00     0.255 C 
HETATM    2  N   UNL     1       5.517  28.495  51.507  1.00  0.00    -0.245 N 
HETATM    3  O   UNL     1       4.281  28.672  53.463  1.00  0.00    -0.270 OA
HETATM    4  H   UNL     1       6.439  28.303  51.107  1.00  0.00     0.192 HD
ENDROOT
BRANCH   1   5
HETATM    5  C   UNL     1       6.582  28.004  53.654  1.00  0.00     0.227 C 
BRANCH   5   6
HETATM    6  N   UNL     1       6.403  27.897  55.098  1.00  0.00    -0.350 N 
HETATM    7  C   UNL     1       6.353  26.753  55.849  1.00  0.00     0.242 C 
HETATM    8  O   UNL     1       6.416  26.848  57.076  1.00  0.00    -0.271 OA
HETATM    9  H   UNL     1       6.521  28.735  55.658  1.00  0.00     0.163 HD
BRANCH   7  10
HETATM   10  C   UNL     1       6.271  25.402  55.147  1.00  0.00     0.278 C 
BRANCH  10  11
HETATM   11  O   UNL     1       7.579  24.850  55.064  1.00  0.00    -0.342 OA
BRANCH  11  12
HETATM   12  C   UNL     1       7.668  23.526  54.728  1.00  0.00     0.075 A 
HETATM   13  C   UNL     1       7.852  23.241  53.364  1.00  0.00    -0.029 A 
HETATM   14  C   UNL     1       7.865  24.324  52.319  1.00  0.00     0.051 C 
HETATM   15  C   UNL     1       7.955  21.903  52.949  1.00  0.00     0.009 A 
HETATM   16  C   UNL     1       7.912  20.866  53.877  1.00  0.00     0.001 A 
HETATM   17  C   UNL     1       7.757  21.153  55.229  1.00  0.00     0.003 A 
HETATM   18  C   UNL     1       7.635  22.478  55.654  1.00  0.00     0.037 A 
ENDBRANCH  11  12
ENDBRANCH  10  11
ENDBRANCH   7  10
ENDBRANCH   5   6
ENDBRANCH   1   5
BRANCH   2  19
HETATM   19  N   UNL     1       4.478  28.852  50.698  1.00  0.00    -0.166 NA
HETATM   20  C   UNL     1       4.000  27.938  49.918  1.00  0.00     0.157 A 
HETATM   21  C   UNL     1       4.426  26.475  49.788  1.00  0.00     0.277 A 
HETATM   22  C   UNL     1       2.901  28.120  48.978  1.00  0.00     0.028 A 
HETATM   23  O   UNL     1       5.319  25.957  50.423  1.00  0.00    -0.266 OA
HETATM   24  N   UNL     1       3.590  25.929  48.838  1.00  0.00    -0.321 N 
HETATM   25  C   UNL     1       2.697  26.886  48.361  1.00  0.00     0.048 A 
HETATM   26  H   UNL     1       3.638  24.963  48.548  1.00  0.00     0.169 HD
HETATM   27  C   UNL     1       1.714  26.717  47.410  1.00  0.00     0.032 A 
HETATM   28  C   UNL     1       0.932  27.835  47.089  1.00  0.00     0.021 A 
HETATM   29  C   UNL     1       1.151  29.077  47.721  1.00  0.00     0.012 A 
HETATM   30 BR   UNL     1       0.070  30.557  47.248  1.00  0.00    -0.051 Br
HETATM   31  C   UNL     1       2.148  29.238  48.683  1.00  0.00     0.035 A 
ENDBRANCH   2  19
TORSDOF 6
ENDMDL
MODEL 8
REMARK VINA RESULT:      -8.7      7.041     10.186
REMARK  6 active torsions:
REMARK  status: ('A' for Active; 'I' for Inactive)
REMARK    1  A    between atoms: C_3  and  O_4 
REMARK    2  A    between atoms: O_4  and  C_5 
REMARK    3  A    between atoms: C_5  and  C_6 
REMARK       I    between atoms: C_6  and  N_7 
REMARK    4  A    between atoms: N_7  and  C_8 
REMARK    5  A    between atoms: C_8  and  C_9 
REMARK       I    between atoms: C_9  and  N_10 
REMARK    6  A    between atoms: N_10  and  N_11 
ROOT
HETATM    1  C   UNL     1       5.321  27.050  53.233  1.00  0.00     0.255 C 
HETATM    2  N   UNL     1       5.400  27.172  51.857  1.00  0.00    -0.245 N 
HETATM    3  O   UNL     1       5.362  27.989  54.028  1.00  0.00    -0.270 OA
HETATM    4  H   UNL     1       5.410  26.332  51.272  1.00  0.00     0.192 HD
ENDROOT
BRANCH   1   5
HETATM    5  C   UNL     1       5.249  25.606  53.731  1.00  0.00     0.227 C 
BRANCH   5   6
HETATM    6  N   UNL     1       4.995  25.459  55.161  1.00  0.00    -0.350 N 
HETATM    7  C   UNL     1       5.899  25.146  56.140  1.00  0.00     0.242 C 
HETATM    8  O   UNL     1       5.564  25.278  57.317  1.00  0.00    -0.271 OA
HETATM    9  H   UNL     1       4.116  25.808  55.528  1.00  0.00     0.163 HD
BRANCH   7  10
HETATM   10  C   UNL     1       7.301  24.695  55.745  1.00  0.00     0.278 C 
BRANCH  10  11
HETATM   11  O   UNL     1       7.468  23.336  56.131  1.00  0.00    -0.342 OA
BRANCH  11  12
HETATM   12  C   UNL     1       7.762  22.445  55.133  1.00  0.00     0.075 A 
HETATM   13  C   UNL     1       8.195  21.172  55.544  1.00  0.00    -0.029 A 
HETATM   14  C   UNL     1       8.407  20.833  56.994  1.00  0.00     0.051 C 
HETATM   15  C   UNL     1       8.510  20.208  54.572  1.00  0.00     0.009 A 
HETATM   16  C   UNL     1       8.364  20.490  53.216  1.00  0.00     0.001 A 
HETATM   17  C   UNL     1       7.910  21.742  52.816  1.00  0.00     0.003 A 
HETATM   18  C   UNL     1       7.609  22.717  53.770  1.00  0.00     0.037 A 
ENDBRANCH  11  12
ENDBRANCH  10  11
ENDBRANCH   7  10
ENDBRANCH   5   6
ENDBRANCH   1   5
BRANCH   2  19
HETATM   19  N   UNL     1       5.478  28.407  51.284  1.00  0.00    -0.166 NA
HETATM   20  C   UNL     1       5.121  28.503  50.045  1.00  0.00     0.157 A 
HETATM   21  C   UNL     1       4.589  27.411  49.116  1.00  0.00     0.277 A 
HETATM   22  C   UNL     1       5.138  29.728  49.254  1.00  0.00     0.028 A 
HETATM   23  O   UNL     1       4.435  26.251  49.432  1.00  0.00    -0.266 OA
HETATM   24  N   UNL     1       4.340  28.036  47.914  1.00  0.00    -0.321 N 
HETATM   25  C   UNL     1       4.658  29.390  47.988  1.00  0.00     0.048 A 
HETATM   26  H   UNL     1       3.973  27.555  47.105  1.00  0.00     0.169 HD
HETATM   27  C   UNL     1       4.544  30.336  46.992  1.00  0.00     0.032 A 
HETATM   28  C   UNL     1       4.930  31.646  47.304  1.00  0.00     0.021 A 
HETATM   29  C   UNL     1       5.415  31.973  48.588  1.00  0.00     0.012 A 
HETATM   30 BR   UNL     1       5.927  33.757  48.956  1.00  0.00    -0.051 Br
HETATM   31  C   UNL     1       5.526  31.009  49.590  1.00  0.00     0.035 A 
ENDBRANCH   2  19
TORSDOF 6
ENDMDL
MODEL 9
REMARK VINA RESULT:      -8.7      3.934     10.602
REMARK  6 active torsions:
REMARK  status: ('A' for Active; 'I' for Inactive)
REMARK    1  A    between atoms: C_3  and  O_4 
REMARK    2  A    between atoms: O_4  and  C_5 
REMARK    3  A    between atoms: C_5  and  C_6 
REMARK       I    between atoms: C_6  and  N_7 
REMARK    4  A    between atoms: N_7  and  C_8 
REMARK    5  A    between atoms: C_8  and  C_9 
REMARK       I    between atoms: C_9  and  N_10 
REMARK    6  A    between atoms: N_10  and  N_11 
ROOT
HETATM    1  C   UNL     1       8.750  31.312  59.152  1.00  0.00     0.255 C 
HETATM    2  N   UNL     1       7.585  31.096  59.866  1.00  0.00    -0.245 N 
HETATM    3  O   UNL     1       9.226  32.419  58.895  1.00  0.00    -0.270 OA
HETATM    4  H   UNL     1       7.233  30.143  59.988  1.00  0.00     0.192 HD
ENDROOT
BRANCH   1   5
HETATM    5  C   UNL     1       9.402  30.038  58.615  1.00  0.00     0.227 C 
BRANCH   5   6
HETATM    6  N   UNL     1       9.295  29.851  57.172  1.00  0.00    -0.350 N 
HETATM    7  C   UNL     1       8.584  28.889  56.506  1.00  0.00     0.242 C 
HETATM    8  O   UNL     1       8.425  29.007  55.291  1.00  0.00    -0.271 OA
HETATM    9  H   UNL     1       9.604  30.605  56.568  1.00  0.00     0.163 HD
BRANCH   7  10
HETATM   10  C   UNL     1       7.972  27.734  57.292  1.00  0.00     0.278 C 
BRANCH  10  11
HETATM   11  O   UNL     1       7.182  26.949  56.408  1.00  0.00    -0.342 OA
BRANCH  11  12
HETATM   12  C   UNL     1       7.620  25.676  56.157  1.00  0.00     0.075 A 
HETATM   13  C   UNL     1       7.606  25.267  54.812  1.00  0.00    -0.029 A 
HETATM   14  C   UNL     1       7.059  26.144  53.719  1.00  0.00     0.051 C 
HETATM   15  C   UNL     1       8.046  23.974  54.483  1.00  0.00     0.009 A 
HETATM   16  C   UNL     1       8.526  23.114  55.468  1.00  0.00     0.001 A 
HETATM   17  C   UNL     1       8.564  23.533  56.793  1.00  0.00     0.003 A 
HETATM   18  C   UNL     1       8.113  24.809  57.138  1.00  0.00     0.037 A 
ENDBRANCH  11  12
ENDBRANCH  10  11
ENDBRANCH   7  10
ENDBRANCH   5   6
ENDBRANCH   1   5
BRANCH   2  19
HETATM   19  N   UNL     1       6.900  32.153  60.392  1.00  0.00    -0.166 NA
HETATM   20  C   UNL     1       7.103  32.420  61.641  1.00  0.00     0.157 A 
HETATM   21  C   UNL     1       8.038  31.722  62.628  1.00  0.00     0.277 A 
HETATM   22  C   UNL     1       6.465  33.499  62.387  1.00  0.00     0.028 A 
HETATM   23  O   UNL     1       8.741  30.771  62.359  1.00  0.00    -0.266 OA
HETATM   24  N   UNL     1       7.898  32.404  63.817  1.00  0.00    -0.321 N 
HETATM   25  C   UNL     1       6.980  33.443  63.682  1.00  0.00     0.048 A 
HETATM   26  H   UNL     1       8.406  32.164  64.656  1.00  0.00     0.169 HD
HETATM   27  C   UNL     1       6.580  34.340  64.649  1.00  0.00     0.032 A 
HETATM   28  C   UNL     1       5.636  35.306  64.276  1.00  0.00     0.021 A 
HETATM   29  C   UNL     1       5.123  35.349  62.962  1.00  0.00     0.012 A 
HETATM   30 BR   UNL     1       3.847  36.672  62.511  1.00  0.00    -0.051 Br
HETATM   31  C   UNL     1       5.536  34.438  61.991  1.00  0.00     0.035 A 
ENDBRANCH   2  19
TORSDOF 6
ENDMDL
MODEL 10
REMARK VINA RESULT:      -8.6      3.510     10.581
REMARK  6 active torsions:
REMARK  status: ('A' for Active; 'I' for Inactive)
REMARK    1  A    between atoms: C_3  and  O_4 
REMARK    2  A    between atoms: O_4  and  C_5 
REMARK    3  A    between atoms: C_5  and  C_6 
REMARK       I    between atoms: C_6  and  N_7 
REMARK    4  A    between atoms: N_7  and  C_8 
REMARK    5  A    between atoms: C_8  and  C_9 
REMARK       I    between atoms: C_9  and  N_10 
REMARK    6  A    between atoms: N_10  and  N_11 
ROOT
HETATM    1  C   UNL     1       7.939  29.814  58.144  1.00  0.00     0.255 C 
HETATM    2  N   UNL     1       6.984  30.758  58.475  1.00  0.00    -0.245 N 
HETATM    3  O   UNL     1       8.872  29.469  58.870  1.00  0.00    -0.270 OA
HETATM    4  H   UNL     1       6.270  31.022  57.790  1.00  0.00     0.192 HD
ENDROOT
BRANCH   1   5
HETATM    5  C   UNL     1       7.798  29.248  56.731  1.00  0.00     0.227 C 
BRANCH   5   6
HETATM    6  N   UNL     1       6.446  28.840  56.361  1.00  0.00    -0.350 N 
HETATM    7  C   UNL     1       6.057  27.649  55.810  1.00  0.00     0.242 C 
HETATM    8  O   UNL     1       4.855  27.385  55.764  1.00  0.00    -0.271 OA
HETATM    9  H   UNL     1       5.668  29.388  56.714  1.00  0.00     0.163 HD
BRANCH   7  10
HETATM   10  C   UNL     1       7.118  26.672  55.317  1.00  0.00     0.278 C 
BRANCH  10  11
HETATM   11  O   UNL     1       6.513  25.761  54.407  1.00  0.00    -0.342 OA
BRANCH  11  12
HETATM   12  C   UNL     1       7.017  24.488  54.384  1.00  0.00     0.075 A 
HETATM   13  C   UNL     1       7.615  24.078  53.180  1.00  0.00    -0.029 A 
HETATM   14  C   UNL     1       7.626  24.954  51.957  1.00  0.00     0.051 C 
HETATM   15  C   UNL     1       8.156  22.785  53.087  1.00  0.00     0.009 A 
HETATM   16  C   UNL     1       8.136  21.926  54.184  1.00  0.00     0.001 A 
HETATM   17  C   UNL     1       7.568  22.345  55.381  1.00  0.00     0.003 A 
HETATM   18  C   UNL     1       7.010  23.622  55.482  1.00  0.00     0.037 A 
ENDBRANCH  11  12
ENDBRANCH  10  11
ENDBRANCH   7  10
ENDBRANCH   5   6
ENDBRANCH   1   5
BRANCH   2  19
HETATM   19  N   UNL     1       7.002  31.347  59.706  1.00  0.00    -0.166 NA
HETATM   20  C   UNL     1       6.173  32.318  59.905  1.00  0.00     0.157 A 
HETATM   21  C   UNL     1       5.134  32.900  58.945  1.00  0.00     0.277 A 
HETATM   22  C   UNL     1       6.043  33.077  61.143  1.00  0.00     0.028 A 
HETATM   23  O   UNL     1       4.949  32.513  57.810  1.00  0.00    -0.266 OA
HETATM   24  N   UNL     1       4.498  33.899  59.648  1.00  0.00    -0.321 N 
HETATM   25  C   UNL     1       5.025  34.008  60.933  1.00  0.00     0.048 A 
HETATM   26  H   UNL     1       3.752  34.460  59.262  1.00  0.00     0.169 HD
HETATM   27  C   UNL     1       4.646  34.888  61.924  1.00  0.00     0.032 A 
HETATM   28  C   UNL     1       5.327  34.809  63.146  1.00  0.00     0.021 A 
HETATM   29  C   UNL     1       6.356  33.864  63.343  1.00  0.00     0.012 A 
HETATM   30 BR   UNL     1       7.247  33.802  65.011  1.00  0.00    -0.051 Br
HETATM   31  C   UNL     1       6.730  32.977  62.335  1.00  0.00     0.035 A 
ENDBRANCH   2  19
TORSDOF 6
ENDMDL
