MODEL 1
REMARK VINA RESULT:     -12.0      0.000      0.000
REMARK  7 active torsions:
REMARK  status: ('A' for Active; 'I' for Inactive)
REMARK    1  A    between atoms: N_1  and  C_2 
REMARK    2  A    between atoms: C_2  and  C_3 
REMARK    3  A    between atoms: C_6  and  C_24 
REMARK    4  A    between atoms: C_8  and  C_9 
REMARK    5  A    between atoms: C_13  and  C_15 
REMARK       I    between atoms: C_15  and  N_17 
REMARK    6  A    between atoms: N_17  and  C_18 
REMARK       I    between atoms: C_24  and  N_26 
REMARK    7  A    between atoms: N_26  and  C_27 
ROOT
HETATM    1  C   UNL     1       6.290  28.094  57.047  1.00  0.00    -0.020 A 
HETATM    2  C   UNL     1       5.498  26.977  56.720  1.00  0.00     0.011 A 
HETATM    3  C   UNL     1       6.060  25.707  56.602  1.00  0.00     0.017 A 
HETATM    4  C   UNL     1       7.428  25.517  56.819  1.00  0.00     0.033 A 
HETATM    5  C   UNL     1       8.226  26.618  57.158  1.00  0.00     0.030 A 
HETATM    6  C   UNL     1       7.676  27.911  57.291  1.00  0.00    -0.017 A 
ENDROOT
BRANCH   6   7
HETATM    7  C   UNL     1       8.561  29.029  57.670  1.00  0.00    -0.024 A 
HETATM    8  C   UNL     1       9.701  29.347  56.916  1.00  0.00     0.012 A 
HETATM    9  C   UNL     1      10.504  30.438  57.258  1.00  0.00     0.002 A 
HETATM   10  C   UNL     1      10.158  31.248  58.339  1.00  0.00     0.017 A 
HETATM   11  C   UNL     1       9.018  30.956  59.094  1.00  0.00     0.033 A 
HETATM   12  C   UNL     1       8.262  29.819  58.789  1.00  0.00     0.029 A 
BRANCH  11  13
HETATM   13  C   UNL     1       8.613  31.897  60.179  1.00  0.00     0.256 C 
HETATM   14  O   UNL     1       8.861  33.088  60.034  1.00  0.00    -0.267 OA
HETATM   15  N   UNL     1       7.935  31.309  61.234  1.00  0.00    -0.323 N 
HETATM   16  H   UNL     1       7.765  30.310  61.180  1.00  0.00     0.169 HD
BRANCH  15  17
HETATM   17  C   UNL     1       7.375  31.949  62.360  1.00  0.00     0.035 A 
HETATM   18  C   UNL     1       8.123  32.557  63.369  1.00  0.00     0.029 A 
HETATM   19  C   UNL     1       7.484  33.189  64.442  1.00  0.00     0.002 A 
HETATM   20  C   UNL     1       6.094  33.214  64.517  1.00  0.00     0.000 A 
HETATM   21  C   UNL     1       5.339  32.605  63.519  1.00  0.00     0.002 A 
HETATM   22  C   UNL     1       5.976  31.976  62.446  1.00  0.00     0.029 A 
ENDBRANCH  15  17
ENDBRANCH  11  13
ENDBRANCH   6   7
BRANCH   1  23
HETATM   23  C   UNL     1       5.614  29.450  57.089  1.00  0.00     0.306 C 
BRANCH  23  24
HETATM   24  N   UNL     1       4.554  29.510  58.097  1.00  0.00     0.082 N 
HETATM   25  H   UNL     1       3.674  29.699  57.615  1.00  0.00     0.313 HD
HETATM   26  H   UNL     1       4.446  28.579  58.502  1.00  0.00     0.313 HD
ENDBRANCH  23  24
ENDBRANCH   1  23
BRANCH   4  27
HETATM   27  C   UNL     1       7.983  24.145  56.625  1.00  0.00     0.256 C 
HETATM   28  O   UNL     1       8.669  23.666  57.522  1.00  0.00    -0.267 OA
HETATM   29  N   UNL     1       7.687  23.534  55.422  1.00  0.00    -0.320 N 
HETATM   30  H   UNL     1       7.206  24.074  54.712  1.00  0.00     0.169 HD
BRANCH  29  31
HETATM   31  C   UNL     1       8.040  22.222  55.021  1.00  0.00     0.076 A 
HETATM   32  C   UNL     1       8.035  21.113  55.862  1.00  0.00     0.052 A 
HETATM   33  C   UNL     1       8.398  19.879  55.335  1.00  0.00     0.118 A 
HETATM   34  N   UNL     1       8.755  19.680  54.046  1.00  0.00    -0.270 NA
HETATM   35  C   UNL     1       8.748  20.770  53.247  1.00  0.00     0.160 A 
HETATM   36  C   UNL     1       8.404  22.036  53.687  1.00  0.00     0.160 A 
HETATM   37  F   UNL     1       8.415  23.074  52.837  1.00  0.00    -0.202 F 
ENDBRANCH  29  31
ENDBRANCH   4  27
TORSDOF 7
ENDMDL
MODEL 2
REMARK VINA RESULT:     -11.2      2.676     10.682
REMARK  7 active torsions:
REMARK  status: ('A' for Active; 'I' for Inactive)
REMARK    1  A    between atoms: N_1  and  C_2 
REMARK    2  A    between atoms: C_2  and  C_3 
REMARK    3  A    between atoms: C_6  and  C_24 
REMARK    4  A    between atoms: C_8  and  C_9 
REMARK    5  A    between atoms: C_13  and  C_15 
REMARK       I    between atoms: C_15  and  N_17 
REMARK    6  A    between atoms: N_17  and  C_18 
REMARK       I    between atoms: C_24  and  N_26 
REMARK    7  A    between atoms: N_26  and  C_27 
ROOT
HETATM    1  C   UNL     1       9.583  29.702  57.263  1.00  0.00    -0.020 A 
HETATM    2  C   UNL     1      10.372  30.779  57.708  1.00  0.00     0.011 A 
HETATM    3  C   UNL     1       9.982  31.553  58.800  1.00  0.00     0.017 A 
HETATM    4  C   UNL     1       8.799  31.263  59.485  1.00  0.00     0.033 A 
HETATM    5  C   UNL     1       8.009  30.185  59.061  1.00  0.00     0.030 A 
HETATM    6  C   UNL     1       8.390  29.383  57.963  1.00  0.00    -0.017 A 
ENDROOT
BRANCH   6   7
HETATM    7  C   UNL     1       7.530  28.250  57.575  1.00  0.00    -0.024 A 
HETATM    8  C   UNL     1       6.153  28.415  57.359  1.00  0.00     0.012 A 
HETATM    9  C   UNL     1       5.359  27.342  56.946  1.00  0.00     0.002 A 
HETATM   10  C   UNL     1       5.938  26.096  56.707  1.00  0.00     0.017 A 
HETATM   11  C   UNL     1       7.311  25.915  56.902  1.00  0.00     0.033 A 
HETATM   12  C   UNL     1       8.084  26.975  57.387  1.00  0.00     0.029 A 
BRANCH  11  13
HETATM   13  C   UNL     1       7.922  24.602  56.539  1.00  0.00     0.256 C 
HETATM   14  O   UNL     1       8.834  24.177  57.237  1.00  0.00    -0.267 OA
HETATM   15  N   UNL     1       7.336  23.970  55.455  1.00  0.00    -0.323 N 
HETATM   16  H   UNL     1       6.551  24.436  55.011  1.00  0.00     0.169 HD
BRANCH  15  17
HETATM   17  C   UNL     1       7.651  22.700  54.927  1.00  0.00     0.035 A 
HETATM   18  C   UNL     1       7.767  21.539  55.695  1.00  0.00     0.029 A 
HETATM   19  C   UNL     1       8.063  20.314  55.087  1.00  0.00     0.002 A 
HETATM   20  C   UNL     1       8.251  20.240  53.709  1.00  0.00     0.000 A 
HETATM   21  C   UNL     1       8.145  21.392  52.936  1.00  0.00     0.002 A 
HETATM   22  C   UNL     1       7.846  22.615  53.542  1.00  0.00     0.029 A 
ENDBRANCH  15  17
ENDBRANCH  11  13
ENDBRANCH   6   7
BRANCH   1  23
HETATM   23  C   UNL     1      10.042  28.954  56.028  1.00  0.00     0.306 C 
BRANCH  23  24
HETATM   24  N   UNL     1       9.255  29.304  54.843  1.00  0.00     0.082 N 
HETATM   25  H   UNL     1       9.906  29.564  54.101  1.00  0.00     0.313 HD
HETATM   26  H   UNL     1       8.788  28.459  54.510  1.00  0.00     0.313 HD
ENDBRANCH  23  24
ENDBRANCH   1  23
BRANCH   4  27
HETATM   27  C   UNL     1       8.405  32.159  60.612  1.00  0.00     0.256 C 
HETATM   28  O   UNL     1       8.761  33.332  60.570  1.00  0.00    -0.267 OA
HETATM   29  N   UNL     1       7.678  31.572  61.630  1.00  0.00    -0.320 N 
HETATM   30  H   UNL     1       7.541  30.568  61.608  1.00  0.00     0.169 HD
BRANCH  29  31
HETATM   31  C   UNL     1       7.137  32.212  62.771  1.00  0.00     0.076 A 
HETATM   32  C   UNL     1       7.895  32.739  63.813  1.00  0.00     0.052 A 
HETATM   33  C   UNL     1       7.234  33.350  64.873  1.00  0.00     0.118 A 
HETATM   34  N   UNL     1       5.890  33.472  64.958  1.00  0.00    -0.270 NA
HETATM   35  C   UNL     1       5.174  32.958  63.933  1.00  0.00     0.160 A 
HETATM   36  C   UNL     1       5.749  32.331  62.842  1.00  0.00     0.160 A 
HETATM   37  F   UNL     1       4.977  31.847  61.857  1.00  0.00    -0.202 F 
ENDBRANCH  29  31
ENDBRANCH   4  27
TORSDOF 7
ENDMDL
MODEL 3
REMARK VINA RESULT:     -10.9      3.057     10.884
REMARK  7 active torsions:
REMARK  status: ('A' for Active; 'I' for Inactive)
REMARK    1  A    between atoms: N_1  and  C_2 
REMARK    2  A    between atoms: C_2  and  C_3 
REMARK    3  A    between atoms: C_6  and  C_24 
REMARK    4  A    between atoms: C_8  and  C_9 
REMARK    5  A    between atoms: C_13  and  C_15 
REMARK       I    between atoms: C_15  and  N_17 
REMARK    6  A    between atoms: N_17  and  C_18 
REMARK       I    between atoms: C_24  and  N_26 
REMARK    7  A    between atoms: N_26  and  C_27 
ROOT
HETATM    1  C   UNL     1       9.432  30.317  57.831  1.00  0.00    -0.020 A 
HETATM    2  C   UNL     1      10.175  31.314  58.490  1.00  0.00     0.011 A 
HETATM    3  C   UNL     1       9.709  31.897  59.668  1.00  0.00     0.017 A 
HETATM    4  C   UNL     1       8.493  31.490  60.224  1.00  0.00     0.033 A 
HETATM    5  C   UNL     1       7.749  30.488  59.585  1.00  0.00     0.030 A 
HETATM    6  C   UNL     1       8.207  29.879  58.397  1.00  0.00    -0.017 A 
ENDROOT
BRANCH   6   7
HETATM    7  C   UNL     1       7.392  28.816  57.780  1.00  0.00    -0.024 A 
HETATM    8  C   UNL     1       6.070  29.051  57.371  1.00  0.00     0.012 A 
HETATM    9  C   UNL     1       5.325  28.049  56.744  1.00  0.00     0.002 A 
HETATM   10  C   UNL     1       5.903  26.807  56.486  1.00  0.00     0.017 A 
HETATM   11  C   UNL     1       7.224  26.557  56.872  1.00  0.00     0.033 A 
HETATM   12  C   UNL     1       7.937  27.542  57.565  1.00  0.00     0.029 A 
BRANCH  11  13
HETATM   13  C   UNL     1       7.852  25.259  56.490  1.00  0.00     0.256 C 
HETATM   14  O   UNL     1       8.860  24.906  57.090  1.00  0.00    -0.267 OA
HETATM   15  N   UNL     1       7.175  24.553  55.509  1.00  0.00    -0.323 N 
HETATM   16  H   UNL     1       6.321  24.963  55.145  1.00  0.00     0.169 HD
BRANCH  15  17
HETATM   17  C   UNL     1       7.489  23.276  54.998  1.00  0.00     0.035 A 
HETATM   18  C   UNL     1       7.600  22.125  55.780  1.00  0.00     0.029 A 
HETATM   19  C   UNL     1       7.895  20.891  55.187  1.00  0.00     0.002 A 
HETATM   20  C   UNL     1       8.085  20.800  53.811  1.00  0.00     0.000 A 
HETATM   21  C   UNL     1       7.982  21.943  53.024  1.00  0.00     0.002 A 
HETATM   22  C   UNL     1       7.685  23.174  53.614  1.00  0.00     0.029 A 
ENDBRANCH  15  17
ENDBRANCH  11  13
ENDBRANCH   6   7
BRANCH   1  23
HETATM   23  C   UNL     1       9.975  29.783  56.521  1.00  0.00     0.306 C 
BRANCH  23  24
HETATM   24  N   UNL     1      11.357  29.314  56.643  1.00  0.00     0.082 N 
HETATM   25  H   UNL     1      11.926  29.838  55.977  1.00  0.00     0.313 HD
HETATM   26  H   UNL     1      11.704  29.582  57.565  1.00  0.00     0.313 HD
ENDBRANCH  23  24
ENDBRANCH   1  23
BRANCH   4  27
HETATM   27  C   UNL     1       8.019  32.188  61.456  1.00  0.00     0.256 C 
HETATM   28  O   UNL     1       8.758  32.202  62.434  1.00  0.00    -0.267 OA
HETATM   29  N   UNL     1       6.758  32.749  61.388  1.00  0.00    -0.320 N 
HETATM   30  H   UNL     1       6.195  32.574  60.563  1.00  0.00     0.169 HD
BRANCH  29  31
HETATM   31  C   UNL     1       6.108  33.510  62.391  1.00  0.00     0.076 A 
HETATM   32  C   UNL     1       6.116  34.901  62.453  1.00  0.00     0.052 A 
HETATM   33  C   UNL     1       5.429  35.523  63.489  1.00  0.00     0.118 A 
HETATM   34  N   UNL     1       4.743  34.861  64.448  1.00  0.00    -0.270 NA
HETATM   35  C   UNL     1       4.746  33.512  64.366  1.00  0.00     0.160 A 
HETATM   36  C   UNL     1       5.405  32.811  63.371  1.00  0.00     0.160 A 
HETATM   37  F   UNL     1       5.362  31.470  63.348  1.00  0.00    -0.202 F 
ENDBRANCH  29  31
ENDBRANCH   4  27
TORSDOF 7
ENDMDL
MODEL 4
REMARK VINA RESULT:     -10.6      3.902      4.990
REMARK  7 active torsions:
REMARK  status: ('A' for Active; 'I' for Inactive)
REMARK    1  A    between atoms: N_1  and  C_2 
REMARK    2  A    between atoms: C_2  and  C_3 
REMARK    3  A    between atoms: C_6  and  C_24 
REMARK    4  A    between atoms: C_8  and  C_9 
REMARK    5  A    between atoms: C_13  and  C_15 
REMARK       I    between atoms: C_15  and  N_17 
REMARK    6  A    between atoms: N_17  and  C_18 
REMARK       I    between atoms: C_24  and  N_26 
REMARK    7  A    between atoms: N_26  and  C_27 
ROOT
HETATM    1  C   UNL     1       7.310  26.187  56.777  1.00  0.00    -0.020 A 
HETATM    2  C   UNL     1       6.529  25.288  56.028  1.00  0.00     0.011 A 
HETATM    3  C   UNL     1       5.854  25.705  54.881  1.00  0.00     0.017 A 
HETATM    4  C   UNL     1       5.952  27.030  54.447  1.00  0.00     0.033 A 
HETATM    5  C   UNL     1       6.736  27.933  55.176  1.00  0.00     0.030 A 
HETATM    6  C   UNL     1       7.435  27.530  56.335  1.00  0.00    -0.017 A 
ENDROOT
BRANCH   6   7
HETATM    7  C   UNL     1       8.262  28.519  57.051  1.00  0.00    -0.024 A 
HETATM    8  C   UNL     1       9.620  28.698  56.744  1.00  0.00     0.012 A 
HETATM    9  C   UNL     1      10.380  29.671  57.397  1.00  0.00     0.002 A 
HETATM   10  C   UNL     1       9.783  30.505  58.342  1.00  0.00     0.017 A 
HETATM   11  C   UNL     1       8.428  30.353  58.651  1.00  0.00     0.033 A 
HETATM   12  C   UNL     1       7.694  29.327  58.047  1.00  0.00     0.029 A 
BRANCH  11  13
HETATM   13  C   UNL     1       7.790  31.325  59.587  1.00  0.00     0.256 C 
HETATM   14  O   UNL     1       7.220  32.299  59.109  1.00  0.00    -0.267 OA
HETATM   15  N   UNL     1       7.871  30.979  60.926  1.00  0.00    -0.323 N 
HETATM   16  H   UNL     1       8.338  30.108  61.154  1.00  0.00     0.169 HD
BRANCH  15  17
HETATM   17  C   UNL     1       7.307  31.661  62.025  1.00  0.00     0.035 A 
HETATM   18  C   UNL     1       5.936  31.744  62.276  1.00  0.00     0.029 A 
HETATM   19  C   UNL     1       5.462  32.424  63.404  1.00  0.00     0.002 A 
HETATM   20  C   UNL     1       6.353  33.030  64.286  1.00  0.00     0.000 A 
HETATM   21  C   UNL     1       7.721  32.959  64.041  1.00  0.00     0.002 A 
HETATM   22  C   UNL     1       8.195  32.277  62.916  1.00  0.00     0.029 A 
ENDBRANCH  15  17
ENDBRANCH  11  13
ENDBRANCH   6   7
BRANCH   1  23
HETATM   23  C   UNL     1       7.956  25.671  58.047  1.00  0.00     0.306 C 
BRANCH  23  24
HETATM   24  N   UNL     1       8.417  24.288  57.912  1.00  0.00     0.082 N 
HETATM   25  H   UNL     1       8.494  24.079  56.916  1.00  0.00     0.313 HD
HETATM   26  H   UNL     1       9.370  24.233  58.275  1.00  0.00     0.313 HD
ENDBRANCH  23  24
ENDBRANCH   1  23
BRANCH   4  27
HETATM   27  C   UNL     1       5.163  27.432  53.244  1.00  0.00     0.256 C 
HETATM   28  O   UNL     1       4.010  27.815  53.411  1.00  0.00    -0.267 OA
HETATM   29  N   UNL     1       5.808  27.316  52.028  1.00  0.00    -0.320 N 
HETATM   30  H   UNL     1       6.723  26.879  52.006  1.00  0.00     0.169 HD
BRANCH  29  31
HETATM   31  C   UNL     1       5.305  27.686  50.757  1.00  0.00     0.076 A 
HETATM   32  C   UNL     1       5.375  28.970  50.224  1.00  0.00     0.052 A 
HETATM   33  C   UNL     1       4.847  29.194  48.958  1.00  0.00     0.118 A 
HETATM   34  N   UNL     1       4.267  28.237  48.199  1.00  0.00    -0.270 NA
HETATM   35  C   UNL     1       4.213  26.997  48.734  1.00  0.00     0.160 A 
HETATM   36  C   UNL     1       4.711  26.686  49.987  1.00  0.00     0.160 A 
HETATM   37  F   UNL     1       4.628  25.430  50.454  1.00  0.00    -0.202 F 
ENDBRANCH  29  31
ENDBRANCH   4  27
TORSDOF 7
ENDMDL
MODEL 5
REMARK VINA RESULT:      -9.7      1.916      2.218
REMARK  7 active torsions:
REMARK  status: ('A' for Active; 'I' for Inactive)
REMARK    1  A    between atoms: N_1  and  C_2 
REMARK    2  A    between atoms: C_2  and  C_3 
REMARK    3  A    between atoms: C_6  and  C_24 
REMARK    4  A    between atoms: C_8  and  C_9 
REMARK    5  A    between atoms: C_13  and  C_15 
REMARK       I    between atoms: C_15  and  N_17 
REMARK    6  A    between atoms: N_17  and  C_18 
REMARK       I    between atoms: C_24  and  N_26 
REMARK    7  A    between atoms: N_26  and  C_27 
ROOT
HETATM    1  C   UNL     1       5.335  29.353  55.107  1.00  0.00    -0.020 A 
HETATM    2  C   UNL     1       4.533  28.623  54.210  1.00  0.00     0.011 A 
HETATM    3  C   UNL     1       4.769  27.269  53.975  1.00  0.00     0.017 A 
HETATM    4  C   UNL     1       5.805  26.607  54.639  1.00  0.00     0.033 A 
HETATM    5  C   UNL     1       6.603  27.319  55.545  1.00  0.00     0.030 A 
HETATM    6  C   UNL     1       6.376  28.688  55.805  1.00  0.00    -0.017 A 
ENDROOT
BRANCH   6   7
HETATM    7  C   UNL     1       7.234  29.381  56.783  1.00  0.00    -0.024 A 
HETATM    8  C   UNL     1       8.633  29.379  56.662  1.00  0.00     0.012 A 
HETATM    9  C   UNL     1       9.431  30.079  57.570  1.00  0.00     0.002 A 
HETATM   10  C   UNL     1       8.841  30.823  58.591  1.00  0.00     0.017 A 
HETATM   11  C   UNL     1       7.449  30.851  58.719  1.00  0.00     0.033 A 
HETATM   12  C   UNL     1       6.661  30.086  57.852  1.00  0.00     0.029 A 
BRANCH  11  13
HETATM   13  C   UNL     1       6.839  31.737  59.754  1.00  0.00     0.256 C 
HETATM   14  O   UNL     1       5.674  32.082  59.605  1.00  0.00    -0.267 OA
HETATM   15  N   UNL     1       7.668  32.034  60.823  1.00  0.00    -0.323 N 
HETATM   16  H   UNL     1       8.597  31.627  60.820  1.00  0.00     0.169 HD
BRANCH  15  17
HETATM   17  C   UNL     1       7.349  32.784  61.975  1.00  0.00     0.035 A 
HETATM   18  C   UNL     1       6.459  33.860  61.988  1.00  0.00     0.029 A 
HETATM   19  C   UNL     1       6.184  34.538  63.181  1.00  0.00     0.002 A 
HETATM   20  C   UNL     1       6.798  34.149  64.369  1.00  0.00     0.000 A 
HETATM   21  C   UNL     1       7.691  33.082  64.365  1.00  0.00     0.002 A 
HETATM   22  C   UNL     1       7.964  32.403  63.174  1.00  0.00     0.029 A 
ENDBRANCH  15  17
ENDBRANCH  11  13
ENDBRANCH   6   7
BRANCH   1  23
HETATM   23  C   UNL     1       5.056  30.836  55.255  1.00  0.00     0.306 C 
BRANCH  23  24
HETATM   24  N   UNL     1       3.692  31.100  55.716  1.00  0.00     0.082 N 
HETATM   25  H   UNL     1       3.752  31.678  56.556  1.00  0.00     0.313 HD
HETATM   26  H   UNL     1       3.227  31.683  55.019  1.00  0.00     0.313 HD
ENDBRANCH  23  24
ENDBRANCH   1  23
BRANCH   4  27
HETATM   27  C   UNL     1       6.045  25.171  54.307  1.00  0.00     0.256 C 
HETATM   28  O   UNL     1       5.279  24.624  53.520  1.00  0.00    -0.267 OA
HETATM   29  N   UNL     1       7.115  24.571  54.941  1.00  0.00    -0.320 N 
HETATM   30  H   UNL     1       7.607  25.094  55.657  1.00  0.00     0.169 HD
BRANCH  29  31
HETATM   31  C   UNL     1       7.586  23.248  54.754  1.00  0.00     0.076 A 
HETATM   32  C   UNL     1       7.459  22.226  55.690  1.00  0.00     0.052 A 
HETATM   33  C   UNL     1       7.961  20.969  55.373  1.00  0.00     0.118 A 
HETATM   34  N   UNL     1       8.567  20.668  54.202  1.00  0.00    -0.270 NA
HETATM   35  C   UNL     1       8.676  21.675  53.306  1.00  0.00     0.160 A 
HETATM   36  C   UNL     1       8.208  22.956  53.539  1.00  0.00     0.160 A 
HETATM   37  F   UNL     1       8.345  23.907  52.603  1.00  0.00    -0.202 F 
ENDBRANCH  29  31
ENDBRANCH   4  27
TORSDOF 7
ENDMDL
MODEL 6
REMARK VINA RESULT:      -9.7      4.176     10.882
REMARK  7 active torsions:
REMARK  status: ('A' for Active; 'I' for Inactive)
REMARK    1  A    between atoms: N_1  and  C_2 
REMARK    2  A    between atoms: C_2  and  C_3 
REMARK    3  A    between atoms: C_6  and  C_24 
REMARK    4  A    between atoms: C_8  and  C_9 
REMARK    5  A    between atoms: C_13  and  C_15 
REMARK       I    between atoms: C_15  and  N_17 
REMARK    6  A    between atoms: N_17  and  C_18 
REMARK       I    between atoms: C_24  and  N_26 
REMARK    7  A    between atoms: N_26  and  C_27 
ROOT
HETATM    1  C   UNL     1       5.406  32.705  58.740  1.00  0.00    -0.020 A 
HETATM    2  C   UNL     1       4.387  33.355  59.461  1.00  0.00     0.011 A 
HETATM    3  C   UNL     1       4.353  33.312  60.854  1.00  0.00     0.017 A 
HETATM    4  C   UNL     1       5.344  32.628  61.563  1.00  0.00     0.033 A 
HETATM    5  C   UNL     1       6.372  31.986  60.859  1.00  0.00     0.030 A 
HETATM    6  C   UNL     1       6.430  32.025  59.448  1.00  0.00    -0.017 A 
ENDROOT
BRANCH   6   7
HETATM    7  C   UNL     1       7.546  31.349  58.761  1.00  0.00    -0.024 A 
HETATM    8  C   UNL     1       8.879  31.729  58.982  1.00  0.00     0.012 A 
HETATM    9  C   UNL     1       9.930  31.049  58.360  1.00  0.00     0.002 A 
HETATM   10  C   UNL     1       9.664  29.956  57.537  1.00  0.00     0.017 A 
HETATM   11  C   UNL     1       8.343  29.552  57.316  1.00  0.00     0.033 A 
HETATM   12  C   UNL     1       7.294  30.285  57.883  1.00  0.00     0.029 A 
BRANCH  11  13
HETATM   13  C   UNL     1       8.092  28.317  56.516  1.00  0.00     0.256 C 
HETATM   14  O   UNL     1       8.022  28.422  55.298  1.00  0.00    -0.267 OA
HETATM   15  N   UNL     1       8.017  27.150  57.259  1.00  0.00    -0.323 N 
HETATM   16  H   UNL     1       8.146  27.228  58.263  1.00  0.00     0.169 HD
BRANCH  15  17
HETATM   17  C   UNL     1       7.857  25.834  56.777  1.00  0.00     0.035 A 
HETATM   18  C   UNL     1       6.973  25.473  55.759  1.00  0.00     0.029 A 
HETATM   19  C   UNL     1       6.893  24.145  55.327  1.00  0.00     0.002 A 
HETATM   20  C   UNL     1       7.692  23.165  55.913  1.00  0.00     0.000 A 
HETATM   21  C   UNL     1       8.571  23.513  56.933  1.00  0.00     0.002 A 
HETATM   22  C   UNL     1       8.654  24.841  57.363  1.00  0.00     0.029 A 
ENDBRANCH  15  17
ENDBRANCH  11  13
ENDBRANCH   6   7
BRANCH   1  23
HETATM   23  C   UNL     1       5.332  32.742  57.226  1.00  0.00     0.306 C 
BRANCH  23  24
HETATM   24  N   UNL     1       4.809  34.015  56.728  1.00  0.00     0.082 N 
HETATM   25  H   UNL     1       5.119  34.124  55.761  1.00  0.00     0.313 HD
HETATM   26  H   UNL     1       3.792  33.945  56.680  1.00  0.00     0.313 HD
ENDBRANCH  23  24
ENDBRANCH   1  23
BRANCH   4  27
HETATM   27  C   UNL     1       5.226  32.570  63.051  1.00  0.00     0.256 C 
HETATM   28  O   UNL     1       4.891  31.507  63.563  1.00  0.00    -0.267 OA
HETATM   29  N   UNL     1       5.490  33.745  63.728  1.00  0.00    -0.320 N 
HETATM   30  H   UNL     1       5.647  34.588  63.188  1.00  0.00     0.169 HD
BRANCH  29  31
HETATM   31  C   UNL     1       5.506  33.936  65.131  1.00  0.00     0.076 A 
HETATM   32  C   UNL     1       6.659  33.943  65.912  1.00  0.00     0.052 A 
HETATM   33  C   UNL     1       6.531  34.150  67.281  1.00  0.00     0.118 A 
HETATM   34  N   UNL     1       5.352  34.350  67.911  1.00  0.00    -0.270 NA
HETATM   35  C   UNL     1       4.246  34.343  67.132  1.00  0.00     0.160 A 
HETATM   36  C   UNL     1       4.280  34.142  65.764  1.00  0.00     0.160 A 
HETATM   37  F   UNL     1       3.144  34.153  65.051  1.00  0.00    -0.202 F 
ENDBRANCH  29  31
ENDBRANCH   4  27
TORSDOF 7
ENDMDL
MODEL 7
REMARK VINA RESULT:      -9.6      2.621      4.797
REMARK  7 active torsions:
REMARK  status: ('A' for Active; 'I' for Inactive)
REMARK    1  A    between atoms: N_1  and  C_2 
REMARK    2  A    between atoms: C_2  and  C_3 
REMARK    3  A    between atoms: C_6  and  C_24 
REMARK    4  A    between atoms: C_8  and  C_9 
REMARK    5  A    between atoms: C_13  and  C_15 
REMARK       I    between atoms: C_15  and  N_17 
REMARK    6  A    between atoms: N_17  and  C_18 
REMARK       I    between atoms: C_24  and  N_26 
REMARK    7  A    between atoms: N_26  and  C_27 
ROOT
HETATM    1  C   UNL     1       8.961  31.406  59.167  1.00  0.00    -0.020 A 
HETATM    2  C   UNL     1       9.960  30.672  58.502  1.00  0.00     0.011 A 
HETATM    3  C   UNL     1       9.630  29.708  57.550  1.00  0.00     0.017 A 
HETATM    4  C   UNL     1       8.292  29.463  57.229  1.00  0.00     0.033 A 
HETATM    5  C   UNL     1       7.287  30.196  57.875  1.00  0.00     0.030 A 
HETATM    6  C   UNL     1       7.600  31.182  58.835  1.00  0.00    -0.017 A 
ENDROOT
BRANCH   6   7
HETATM    7  C   UNL     1       6.502  31.937  59.467  1.00  0.00    -0.024 A 
HETATM    8  C   UNL     1       5.519  32.581  58.700  1.00  0.00     0.012 A 
HETATM    9  C   UNL     1       4.458  33.253  59.312  1.00  0.00     0.002 A 
HETATM   10  C   UNL     1       4.345  33.260  60.702  1.00  0.00     0.017 A 
HETATM   11  C   UNL     1       5.306  32.612  61.484  1.00  0.00     0.033 A 
HETATM   12  C   UNL     1       6.405  32.006  60.865  1.00  0.00     0.029 A 
BRANCH  11  13
HETATM   13  C   UNL     1       5.106  32.545  62.962  1.00  0.00     0.256 C 
HETATM   14  O   UNL     1       4.760  31.476  63.450  1.00  0.00    -0.267 OA
HETATM   15  N   UNL     1       5.392  33.719  63.639  1.00  0.00    -0.323 N 
HETATM   16  H   UNL     1       5.717  34.507  63.089  1.00  0.00     0.169 HD
BRANCH  15  17
HETATM   17  C   UNL     1       5.362  33.936  65.033  1.00  0.00     0.035 A 
HETATM   18  C   UNL     1       4.195  34.155  65.767  1.00  0.00     0.029 A 
HETATM   19  C   UNL     1       4.253  34.342  67.153  1.00  0.00     0.002 A 
HETATM   20  C   UNL     1       5.478  34.316  67.814  1.00  0.00     0.000 A 
HETATM   21  C   UNL     1       6.648  34.105  67.091  1.00  0.00     0.002 A 
HETATM   22  C   UNL     1       6.590  33.915  65.708  1.00  0.00     0.029 A 
ENDBRANCH  15  17
ENDBRANCH  11  13
ENDBRANCH   6   7
BRANCH   1  23
HETATM   23  C   UNL     1       9.401  32.386  60.237  1.00  0.00     0.306 C 
BRANCH  23  24
HETATM   24  N   UNL     1       9.872  31.711  61.448  1.00  0.00     0.082 N 
HETATM   25  H   UNL     1      10.537  30.989  61.165  1.00  0.00     0.313 HD
HETATM   26  H   UNL     1      10.415  32.380  61.995  1.00  0.00     0.313 HD
ENDBRANCH  23  24
ENDBRANCH   1  23
BRANCH   4  27
HETATM   27  C   UNL     1       7.996  28.381  56.242  1.00  0.00     0.256 C 
HETATM   28  O   UNL     1       8.057  28.655  55.048  1.00  0.00    -0.267 OA
HETATM   29  N   UNL     1       7.654  27.152  56.772  1.00  0.00    -0.320 N 
HETATM   30  H   UNL     1       7.526  27.077  57.775  1.00  0.00     0.169 HD
BRANCH  29  31
HETATM   31  C   UNL     1       7.389  25.959  56.057  1.00  0.00     0.076 A 
HETATM   32  C   UNL     1       6.373  25.812  55.117  1.00  0.00     0.052 A 
HETATM   33  C   UNL     1       6.228  24.584  54.482  1.00  0.00     0.118 A 
HETATM   34  N   UNL     1       7.019  23.513  54.714  1.00  0.00    -0.270 NA
HETATM   35  C   UNL     1       8.002  23.679  55.628  1.00  0.00     0.160 A 
HETATM   36  C   UNL     1       8.216  24.864  56.309  1.00  0.00     0.160 A 
HETATM   37  F   UNL     1       9.215  24.960  57.200  1.00  0.00    -0.202 F 
ENDBRANCH  29  31
ENDBRANCH   4  27
TORSDOF 7
ENDMDL
MODEL 8
REMARK VINA RESULT:      -9.6      3.792      6.481
REMARK  7 active torsions:
REMARK  status: ('A' for Active; 'I' for Inactive)
REMARK    1  A    between atoms: N_1  and  C_2 
REMARK    2  A    between atoms: C_2  and  C_3 
REMARK    3  A    between atoms: C_6  and  C_24 
REMARK    4  A    between atoms: C_8  and  C_9 
REMARK    5  A    between atoms: C_13  and  C_15 
REMARK       I    between atoms: C_15  and  N_17 
REMARK    6  A    between atoms: N_17  and  C_18 
REMARK       I    between atoms: C_24  and  N_26 
REMARK    7  A    between atoms: N_26  and  C_27 
ROOT
HETATM    1  C   UNL     1       7.391  26.863  56.289  1.00  0.00    -0.020 A 
HETATM    2  C   UNL     1       6.379  26.170  55.598  1.00  0.00     0.011 A 
HETATM    3  C   UNL     1       5.433  26.853  54.835  1.00  0.00     0.017 A 
HETATM    4  C   UNL     1       5.480  28.246  54.733  1.00  0.00     0.033 A 
HETATM    5  C   UNL     1       6.490  28.948  55.405  1.00  0.00     0.030 A 
HETATM    6  C   UNL     1       7.464  28.276  56.176  1.00  0.00    -0.017 A 
ENDROOT
BRANCH   6   7
HETATM    7  C   UNL     1       8.515  29.064  56.844  1.00  0.00    -0.024 A 
HETATM    8  C   UNL     1       9.825  29.114  56.341  1.00  0.00     0.012 A 
HETATM    9  C   UNL     1      10.799  29.903  56.957  1.00  0.00     0.002 A 
HETATM   10  C   UNL     1      10.469  30.683  58.065  1.00  0.00     0.017 A 
HETATM   11  C   UNL     1       9.166  30.660  58.572  1.00  0.00     0.033 A 
HETATM   12  C   UNL     1       8.216  29.810  57.994  1.00  0.00     0.029 A 
BRANCH  11  13
HETATM   13  C   UNL     1       8.812  31.582  59.691  1.00  0.00     0.256 C 
HETATM   14  O   UNL     1       9.257  32.723  59.662  1.00  0.00    -0.267 OA
HETATM   15  N   UNL     1       7.955  31.044  60.636  1.00  0.00    -0.323 N 
HETATM   16  H   UNL     1       7.636  30.092  60.489  1.00  0.00     0.169 HD
BRANCH  15  17
HETATM   17  C   UNL     1       7.397  31.693  61.759  1.00  0.00     0.035 A 
HETATM   18  C   UNL     1       6.029  31.898  61.946  1.00  0.00     0.029 A 
HETATM   19  C   UNL     1       5.559  32.533  63.101  1.00  0.00     0.002 A 
HETATM   20  C   UNL     1       6.453  32.973  64.075  1.00  0.00     0.000 A 
HETATM   21  C   UNL     1       7.819  32.779  63.894  1.00  0.00     0.002 A 
HETATM   22  C   UNL     1       8.288  32.142  62.742  1.00  0.00     0.029 A 
ENDBRANCH  15  17
ENDBRANCH  11  13
ENDBRANCH   6   7
BRANCH   1  23
HETATM   23  C   UNL     1       8.339  26.052  57.150  1.00  0.00     0.306 C 
BRANCH  23  24
HETATM   24  N   UNL     1       7.670  25.471  58.315  1.00  0.00     0.082 N 
HETATM   25  H   UNL     1       6.670  25.428  58.113  1.00  0.00     0.313 HD
HETATM   26  H   UNL     1       7.970  24.499  58.404  1.00  0.00     0.313 HD
ENDBRANCH  23  24
ENDBRANCH   1  23
BRANCH   4  27
HETATM   27  C   UNL     1       4.408  28.927  53.947  1.00  0.00     0.256 C 
HETATM   28  O   UNL     1       3.478  28.246  53.527  1.00  0.00    -0.267 OA
HETATM   29  N   UNL     1       4.573  30.283  53.743  1.00  0.00    -0.320 N 
HETATM   30  H   UNL     1       5.441  30.714  54.042  1.00  0.00     0.169 HD
BRANCH  29  31
HETATM   31  C   UNL     1       3.676  31.162  53.089  1.00  0.00     0.076 A 
HETATM   32  C   UNL     1       3.568  31.293  51.707  1.00  0.00     0.052 A 
HETATM   33  C   UNL     1       2.638  32.191  51.196  1.00  0.00     0.118 A 
HETATM   34  N   UNL     1       1.820  32.951  51.958  1.00  0.00    -0.270 NA
HETATM   35  C   UNL     1       1.939  32.804  53.297  1.00  0.00     0.160 A 
HETATM   36  C   UNL     1       2.839  31.937  53.891  1.00  0.00     0.160 A 
HETATM   37  F   UNL     1       2.900  31.839  55.228  1.00  0.00    -0.202 F 
ENDBRANCH  29  31
ENDBRANCH   4  27
TORSDOF 7
ENDMDL
MODEL 9
REMARK VINA RESULT:      -9.6      2.306      3.279
REMARK  7 active torsions:
REMARK  status: ('A' for Active; 'I' for Inactive)
REMARK    1  A    between atoms: N_1  and  C_2 
REMARK    2  A    between atoms: C_2  and  C_3 
REMARK    3  A    between atoms: C_6  and  C_24 
REMARK    4  A    between atoms: C_8  and  C_9 
REMARK    5  A    between atoms: C_13  and  C_15 
REMARK       I    between atoms: C_15  and  N_17 
REMARK    6  A    between atoms: N_17  and  C_18 
REMARK       I    between atoms: C_24  and  N_26 
REMARK    7  A    between atoms: N_26  and  C_27 
ROOT
HETATM    1  C   UNL     1       4.364  28.156  53.737  1.00  0.00    -0.020 A 
HETATM    2  C   UNL     1       4.579  26.977  53.000  1.00  0.00     0.011 A 
HETATM    3  C   UNL     1       5.423  25.975  53.478  1.00  0.00     0.017 A 
HETATM    4  C   UNL     1       6.065  26.121  54.710  1.00  0.00     0.033 A 
HETATM    5  C   UNL     1       5.850  27.285  55.461  1.00  0.00     0.030 A 
HETATM    6  C   UNL     1       4.993  28.308  55.000  1.00  0.00    -0.017 A 
ENDROOT
BRANCH   6   7
HETATM    7  C   UNL     1       4.789  29.502  55.841  1.00  0.00    -0.024 A 
HETATM    8  C   UNL     1       3.584  30.221  55.812  1.00  0.00     0.012 A 
HETATM    9  C   UNL     1       3.387  31.322  56.649  1.00  0.00     0.002 A 
HETATM   10  C   UNL     1       4.379  31.698  57.554  1.00  0.00     0.017 A 
HETATM   11  C   UNL     1       5.580  30.985  57.610  1.00  0.00     0.033 A 
HETATM   12  C   UNL     1       5.798  29.931  56.716  1.00  0.00     0.029 A 
BRANCH  11  13
HETATM   13  C   UNL     1       6.581  31.342  58.657  1.00  0.00     0.256 C 
HETATM   14  O   UNL     1       7.745  31.505  58.313  1.00  0.00    -0.267 OA
HETATM   15  N   UNL     1       6.057  31.505  59.929  1.00  0.00    -0.323 N 
HETATM   16  H   UNL     1       5.056  31.381  60.039  1.00  0.00     0.169 HD
BRANCH  15  17
HETATM   17  C   UNL     1       6.741  31.905  61.096  1.00  0.00     0.035 A 
HETATM   18  C   UNL     1       7.857  31.247  61.615  1.00  0.00     0.029 A 
HETATM   19  C   UNL     1       8.489  31.724  62.769  1.00  0.00     0.002 A 
HETATM   20  C   UNL     1       8.007  32.860  63.415  1.00  0.00     0.000 A 
HETATM   21  C   UNL     1       6.891  33.519  62.910  1.00  0.00     0.002 A 
HETATM   22  C   UNL     1       6.262  33.045  61.756  1.00  0.00     0.029 A 
ENDBRANCH  15  17
ENDBRANCH  11  13
ENDBRANCH   6   7
BRANCH   1  23
HETATM   23  C   UNL     1       3.486  29.225  53.116  1.00  0.00     0.306 C 
BRANCH  23  24
HETATM   24  N   UNL     1       2.489  28.663  52.204  1.00  0.00     0.082 N 
HETATM   25  H   UNL     1       2.027  27.889  52.683  1.00  0.00     0.313 HD
HETATM   26  H   UNL     1       1.762  29.363  52.056  1.00  0.00     0.313 HD
ENDBRANCH  23  24
ENDBRANCH   1  23
BRANCH   4  27
HETATM   27  C   UNL     1       7.000  25.040  55.145  1.00  0.00     0.256 C 
HETATM   28  O   UNL     1       7.824  25.303  56.015  1.00  0.00    -0.267 OA
HETATM   29  N   UNL     1       6.863  23.824  54.503  1.00  0.00    -0.320 N 
HETATM   30  H   UNL     1       6.222  23.761  53.720  1.00  0.00     0.169 HD
BRANCH  29  31
HETATM   31  C   UNL     1       7.580  22.633  54.771  1.00  0.00     0.076 A 
HETATM   32  C   UNL     1       7.792  22.110  56.043  1.00  0.00     0.052 A 
HETATM   33  C   UNL     1       8.509  20.925  56.163  1.00  0.00     0.118 A 
HETATM   34  N   UNL     1       9.017  20.237  55.116  1.00  0.00    -0.270 NA
HETATM   35  C   UNL     1       8.796  20.761  53.889  1.00  0.00     0.160 A 
HETATM   36  C   UNL     1       8.096  21.935  53.678  1.00  0.00     0.160 A 
HETATM   37  F   UNL     1       7.909  22.396  52.432  1.00  0.00    -0.202 F 
ENDBRANCH  29  31
ENDBRANCH   4  27
TORSDOF 7
ENDMDL
MODEL 10
REMARK VINA RESULT:      -9.3      4.715      8.479
REMARK  7 active torsions:
REMARK  status: ('A' for Active; 'I' for Inactive)
REMARK    1  A    between atoms: N_1  and  C_2 
REMARK    2  A    between atoms: C_2  and  C_3 
REMARK    3  A    between atoms: C_6  and  C_24 
REMARK    4  A    between atoms: C_8  and  C_9 
REMARK    5  A    between atoms: C_13  and  C_15 
REMARK       I    between atoms: C_15  and  N_17 
REMARK    6  A    between atoms: N_17  and  C_18 
REMARK       I    between atoms: C_24  and  N_26 
REMARK    7  A    between atoms: N_26  and  C_27 
ROOT
HETATM    1  C   UNL     1       7.295  28.576  56.695  1.00  0.00    -0.020 A 
HETATM    2  C   UNL     1       8.266  27.855  57.415  1.00  0.00     0.011 A 
HETATM    3  C   UNL     1       8.428  26.482  57.228  1.00  0.00     0.017 A 
HETATM    4  C   UNL     1       7.631  25.797  56.307  1.00  0.00     0.033 A 
HETATM    5  C   UNL     1       6.668  26.505  55.574  1.00  0.00     0.030 A 
HETATM    6  C   UNL     1       6.494  27.896  55.741  1.00  0.00    -0.017 A 
ENDROOT
BRANCH   6   7
HETATM    7  C   UNL     1       5.480  28.591  54.928  1.00  0.00    -0.024 A 
HETATM    8  C   UNL     1       4.659  29.588  55.477  1.00  0.00     0.012 A 
HETATM    9  C   UNL     1       3.735  30.273  54.683  1.00  0.00     0.002 A 
HETATM   10  C   UNL     1       3.644  29.995  53.320  1.00  0.00     0.017 A 
HETATM   11  C   UNL     1       4.464  29.016  52.750  1.00  0.00     0.033 A 
HETATM   12  C   UNL     1       5.333  28.284  53.567  1.00  0.00     0.029 A 
BRANCH  11  13
HETATM   13  C   UNL     1       4.421  28.811  51.273  1.00  0.00     0.256 C 
HETATM   14  O   UNL     1       5.255  29.388  50.585  1.00  0.00    -0.267 OA
HETATM   15  N   UNL     1       3.449  27.926  50.837  1.00  0.00    -0.323 N 
HETATM   16  H   UNL     1       2.865  27.491  51.544  1.00  0.00     0.169 HD
BRANCH  15  17
HETATM   17  C   UNL     1       3.215  27.487  49.517  1.00  0.00     0.035 A 
HETATM   18  C   UNL     1       2.247  28.030  48.670  1.00  0.00     0.029 A 
HETATM   19  C   UNL     1       2.096  27.547  47.366  1.00  0.00     0.002 A 
HETATM   20  C   UNL     1       2.906  26.515  46.899  1.00  0.00     0.000 A 
HETATM   21  C   UNL     1       3.869  25.963  47.738  1.00  0.00     0.002 A 
HETATM   22  C   UNL     1       4.023  26.447  49.040  1.00  0.00     0.029 A 
ENDBRANCH  15  17
ENDBRANCH  11  13
ENDBRANCH   6   7
BRANCH   1  23
HETATM   23  C   UNL     1       7.138  30.051  57.006  1.00  0.00     0.306 C 
BRANCH  23  24
HETATM   24  N   UNL     1       6.706  30.283  58.386  1.00  0.00     0.082 N 
HETATM   25  H   UNL     1       6.080  31.090  58.386  1.00  0.00     0.313 HD
HETATM   26  H   UNL     1       6.128  29.493  58.676  1.00  0.00     0.313 HD
ENDBRANCH  23  24
ENDBRANCH   1  23
BRANCH   4  27
HETATM   27  C   UNL     1       7.811  24.319  56.189  1.00  0.00     0.256 C 
HETATM   28  O   UNL     1       7.614  23.631  57.185  1.00  0.00    -0.267 OA
HETATM   29  N   UNL     1       8.209  23.853  54.951  1.00  0.00    -0.320 N 
HETATM   30  H   UNL     1       8.450  24.529  54.235  1.00  0.00     0.169 HD
BRANCH  29  31
HETATM   31  C   UNL     1       8.389  22.502  54.566  1.00  0.00     0.076 A 
HETATM   32  C   UNL     1       8.912  21.510  55.392  1.00  0.00     0.052 A 
HETATM   33  C   UNL     1       9.028  20.220  54.888  1.00  0.00     0.118 A 
HETATM   34  N   UNL     1       8.659  19.858  53.638  1.00  0.00    -0.270 NA
HETATM   35  C   UNL     1       8.150  20.836  52.856  1.00  0.00     0.160 A 
HETATM   36  C   UNL     1       8.002  22.146  53.274  1.00  0.00     0.160 A 
HETATM   37  F   UNL     1       7.484  23.066  52.445  1.00  0.00    -0.202 F 
ENDBRANCH  29  31
ENDBRANCH   4  27
TORSDOF 7
ENDMDL
