MODEL 1
REMARK VINA RESULT:     -10.2      0.000      0.000
REMARK  7 active torsions:
REMARK  status: ('A' for Active; 'I' for Inactive)
REMARK    1  A    between atoms: O_2  and  C_3 
REMARK    2  A    between atoms: C_6  and  C_7 
REMARK    3  A    between atoms: C_7  and  N_8 
REMARK    4  A    between atoms: C_7  and  C_25 
REMARK    5  A    between atoms: N_8  and  C_11 
REMARK    6  A    between atoms: C_11  and  C_12 
REMARK       I    between atoms: C_12  and  N_13 
REMARK    7  A    between atoms: N_13  and  C_14 
ROOT
HETATM    1  N   UNL     1       7.982  24.937  55.830  1.00  0.00    -0.055 N 
HETATM    2  H   UNL     1       7.216  24.496  56.366  1.00  0.00     0.278 HD
HETATM    3  H   UNL     1       8.794  24.842  56.448  1.00  0.00     0.278 HD
ENDROOT
BRANCH   1   4
HETATM    4  C   UNL     1       8.193  24.182  54.558  1.00  0.00     0.252 C 
BRANCH   4   5
HETATM    5  C   UNL     1       7.225  24.608  53.466  1.00  0.00    -0.023 A 
HETATM    6  C   UNL     1       5.842  24.451  53.671  1.00  0.00     0.012 A 
HETATM    7  C   UNL     1       4.914  24.857  52.703  1.00  0.00     0.037 A 
HETATM    8  C   UNL     1       5.351  25.437  51.516  1.00  0.00     0.068 A 
HETATM    9  C   UNL     1       6.720  25.594  51.301  1.00  0.00     0.037 A 
HETATM   10  C   UNL     1       7.651  25.191  52.263  1.00  0.00     0.012 A 
BRANCH   8  11
HETATM   11  O   UNL     1       4.558  25.884  50.498  1.00  0.00    -0.356 OA
HETATM   12  C   UNL     1       4.892  27.142  49.920  1.00  0.00     0.210 C 
ENDBRANCH   8  11
ENDBRANCH   4   5
BRANCH   4  13
HETATM   13  C   UNL     1       8.229  22.680  54.778  1.00  0.00    -0.023 A 
HETATM   14  C   UNL     1       8.373  21.820  53.673  1.00  0.00     0.009 A 
HETATM   15  C   UNL     1       8.432  20.437  53.849  1.00  0.00     0.001 A 
HETATM   16  C   UNL     1       8.345  19.892  55.126  1.00  0.00     0.000 A 
HETATM   17  C   UNL     1       8.192  20.726  56.230  1.00  0.00     0.001 A 
HETATM   18  C   UNL     1       8.130  22.111  56.060  1.00  0.00     0.009 A 
ENDBRANCH   4  13
ENDBRANCH   1   4
BRANCH   1  19
HETATM   19  C   UNL     1       7.644  26.399  55.688  1.00  0.00     0.336 C 
BRANCH  19  20
HETATM   20  C   UNL     1       8.027  27.142  56.969  1.00  0.00     0.248 C 
HETATM   21  N   UNL     1       8.277  28.487  56.794  1.00  0.00    -0.326 N 
HETATM   22  H   UNL     1       8.225  28.874  55.857  1.00  0.00     0.169 HD
HETATM   23  O   UNL     1       8.082  26.493  58.013  1.00  0.00    -0.271 OA
BRANCH  21  24
HETATM   24  C   UNL     1       8.623  29.424  57.796  1.00  0.00     0.037 A 
HETATM   25  C   UNL     1       7.910  29.583  58.991  1.00  0.00     0.061 A 
HETATM   26  C   UNL     1       8.363  30.542  59.870  1.00  0.00     0.065 A 
HETATM   27  C   UNL     1       9.479  31.331  59.609  1.00  0.00     0.063 A 
HETATM   28  N   UNL     1       7.858  30.917  61.111  1.00  0.00    -0.306 N 
HETATM   29  N   UNL     1       9.663  32.189  60.685  1.00  0.00    -0.307 N 
HETATM   30  C   UNL     1      10.204  31.204  58.451  1.00  0.00     0.034 A 
HETATM   31  C   UNL     1       8.658  31.945  61.632  1.00  0.00     0.325 A 
HETATM   32  H   UNL     1      10.381  32.886  60.805  1.00  0.00     0.170 HD
HETATM   33  O   UNL     1       8.508  32.512  62.699  1.00  0.00    -0.247 OA
HETATM   34  C   UNL     1       9.761  30.237  57.538  1.00  0.00     0.032 A 
HETATM   35  H   UNL     1       7.055  30.544  61.591  1.00  0.00     0.170 HD
ENDBRANCH  21  24
ENDBRANCH  19  20
ENDBRANCH   1  19
TORSDOF 7
ENDMDL
MODEL 2
REMARK VINA RESULT:     -10.1      3.397      4.369
REMARK  7 active torsions:
REMARK  status: ('A' for Active; 'I' for Inactive)
REMARK    1  A    between atoms: O_2  and  C_3 
REMARK    2  A    between atoms: C_6  and  C_7 
REMARK    3  A    between atoms: C_7  and  N_8 
REMARK    4  A    between atoms: C_7  and  C_25 
REMARK    5  A    between atoms: N_8  and  C_11 
REMARK    6  A    between atoms: C_11  and  C_12 
REMARK       I    between atoms: C_12  and  N_13 
REMARK    7  A    between atoms: N_13  and  C_14 
ROOT
HETATM    1  N   UNL     1       7.422  24.678  56.354  1.00  0.00    -0.055 N 
HETATM    2  H   UNL     1       6.429  24.938  56.234  1.00  0.00     0.278 HD
HETATM    3  H   UNL     1       7.390  23.908  57.029  1.00  0.00     0.278 HD
ENDROOT
BRANCH   1   4
HETATM    4  C   UNL     1       7.973  24.213  55.046  1.00  0.00     0.252 C 
BRANCH   4   5
HETATM    5  C   UNL     1       7.133  24.677  53.867  1.00  0.00    -0.023 A 
HETATM    6  C   UNL     1       5.744  24.449  53.878  1.00  0.00     0.012 A 
HETATM    7  C   UNL     1       4.929  24.886  52.826  1.00  0.00     0.037 A 
HETATM    8  C   UNL     1       5.485  25.568  51.747  1.00  0.00     0.068 A 
HETATM    9  C   UNL     1       6.861  25.795  51.725  1.00  0.00     0.037 A 
HETATM   10  C   UNL     1       7.680  25.362  52.771  1.00  0.00     0.012 A 
BRANCH   8  11
HETATM   11  O   UNL     1       4.807  26.056  50.667  1.00  0.00    -0.356 OA
HETATM   12  C   UNL     1       5.028  27.420  50.324  1.00  0.00     0.210 C 
ENDBRANCH   8  11
ENDBRANCH   4   5
BRANCH   4  13
HETATM   13  C   UNL     1       8.252  22.719  55.035  1.00  0.00    -0.023 A 
HETATM   14  C   UNL     1       8.259  22.005  56.247  1.00  0.00     0.009 A 
HETATM   15  C   UNL     1       8.491  20.629  56.262  1.00  0.00     0.001 A 
HETATM   16  C   UNL     1       8.722  19.947  55.071  1.00  0.00     0.000 A 
HETATM   17  C   UNL     1       8.730  20.639  53.863  1.00  0.00     0.001 A 
HETATM   18  C   UNL     1       8.500  22.017  53.842  1.00  0.00     0.009 A 
ENDBRANCH   4  13
ENDBRANCH   1   4
BRANCH   1  19
HETATM   19  C   UNL     1       8.119  25.854  56.989  1.00  0.00     0.336 C 
BRANCH  19  20
HETATM   20  C   UNL     1       7.491  27.155  56.489  1.00  0.00     0.248 C 
HETATM   21  N   UNL     1       6.155  27.054  56.163  1.00  0.00    -0.326 N 
HETATM   22  H   UNL     1       5.702  26.149  56.241  1.00  0.00     0.169 HD
HETATM   23  O   UNL     1       8.212  28.150  56.420  1.00  0.00    -0.271 OA
BRANCH  21  24
HETATM   24  C   UNL     1       5.311  28.093  55.702  1.00  0.00     0.037 A 
HETATM   25  C   UNL     1       4.638  28.981  56.550  1.00  0.00     0.061 A 
HETATM   26  C   UNL     1       3.845  29.938  55.956  1.00  0.00     0.065 A 
HETATM   27  C   UNL     1       3.703  30.041  54.575  1.00  0.00     0.063 A 
HETATM   28  N   UNL     1       3.068  30.933  56.539  1.00  0.00    -0.306 N 
HETATM   29  N   UNL     1       2.842  31.098  54.308  1.00  0.00    -0.307 N 
HETATM   30  C   UNL     1       4.346  29.192  53.712  1.00  0.00     0.034 A 
HETATM   31  C   UNL     1       2.435  31.665  55.524  1.00  0.00     0.325 A 
HETATM   32  H   UNL     1       2.533  31.432  53.409  1.00  0.00     0.170 HD
HETATM   33  O   UNL     1       1.680  32.609  55.672  1.00  0.00    -0.247 OA
HETATM   34  C   UNL     1       5.158  28.206  54.293  1.00  0.00     0.032 A 
HETATM   35  H   UNL     1       2.947  31.129  57.520  1.00  0.00     0.170 HD
ENDBRANCH  21  24
ENDBRANCH  19  20
ENDBRANCH   1  19
TORSDOF 7
ENDMDL
MODEL 3
REMARK VINA RESULT:      -9.6      3.311      5.303
REMARK  7 active torsions:
REMARK  status: ('A' for Active; 'I' for Inactive)
REMARK    1  A    between atoms: O_2  and  C_3 
REMARK    2  A    between atoms: C_6  and  C_7 
REMARK    3  A    between atoms: C_7  and  N_8 
REMARK    4  A    between atoms: C_7  and  C_25 
REMARK    5  A    between atoms: N_8  and  C_11 
REMARK    6  A    between atoms: C_11  and  C_12 
REMARK       I    between atoms: C_12  and  N_13 
REMARK    7  A    between atoms: N_13  and  C_14 
ROOT
HETATM    1  N   UNL     1       6.611  24.650  52.645  1.00  0.00    -0.055 N 
HETATM    2  H   UNL     1       7.330  25.392  52.669  1.00  0.00     0.278 HD
HETATM    3  H   UNL     1       6.977  23.981  51.960  1.00  0.00     0.278 HD
ENDROOT
BRANCH   1   4
HETATM    4  C   UNL     1       6.503  24.021  53.995  1.00  0.00     0.252 C 
BRANCH   4   5
HETATM    5  C   UNL     1       6.799  25.004  55.116  1.00  0.00    -0.023 A 
HETATM    6  C   UNL     1       6.155  24.847  56.358  1.00  0.00     0.012 A 
HETATM    7  C   UNL     1       6.421  25.712  57.427  1.00  0.00     0.037 A 
HETATM    8  C   UNL     1       7.341  26.745  57.279  1.00  0.00     0.068 A 
HETATM    9  C   UNL     1       7.982  26.912  56.051  1.00  0.00     0.037 A 
HETATM   10  C   UNL     1       7.722  26.052  54.980  1.00  0.00     0.012 A 
BRANCH   8  11
HETATM   11  O   UNL     1       7.700  27.649  58.238  1.00  0.00    -0.356 OA
HETATM   12  C   UNL     1       7.488  29.026  57.944  1.00  0.00     0.210 C 
ENDBRANCH   8  11
ENDBRANCH   4   5
BRANCH   4  13
HETATM   13  C   UNL     1       7.302  22.733  54.098  1.00  0.00    -0.023 A 
HETATM   14  C   UNL     1       7.719  22.079  52.924  1.00  0.00     0.009 A 
HETATM   15  C   UNL     1       8.473  20.906  52.990  1.00  0.00     0.001 A 
HETATM   16  C   UNL     1       8.818  20.368  54.226  1.00  0.00     0.000 A 
HETATM   17  C   UNL     1       8.406  20.996  55.398  1.00  0.00     0.001 A 
HETATM   18  C   UNL     1       7.649  22.168  55.338  1.00  0.00     0.009 A 
ENDBRANCH   4  13
ENDBRANCH   1   4
BRANCH   1  19
HETATM   19  C   UNL     1       5.350  25.269  52.096  1.00  0.00     0.336 C 
BRANCH  19  20
HETATM   20  C   UNL     1       5.246  26.721  52.562  1.00  0.00     0.248 C 
HETATM   21  N   UNL     1       4.392  26.919  53.627  1.00  0.00    -0.326 N 
HETATM   22  H   UNL     1       3.883  26.122  53.996  1.00  0.00     0.169 HD
HETATM   23  O   UNL     1       5.910  27.564  51.960  1.00  0.00    -0.271 OA
BRANCH  21  24
HETATM   24  C   UNL     1       4.119  28.143  54.282  1.00  0.00     0.037 A 
HETATM   25  C   UNL     1       4.196  28.315  55.670  1.00  0.00     0.061 A 
HETATM   26  C   UNL     1       3.894  29.566  56.165  1.00  0.00     0.065 A 
HETATM   27  C   UNL     1       3.529  30.629  55.344  1.00  0.00     0.063 A 
HETATM   28  N   UNL     1       3.881  30.019  57.479  1.00  0.00    -0.306 N 
HETATM   29  N   UNL     1       3.293  31.734  56.150  1.00  0.00    -0.307 N 
HETATM   30  C   UNL     1       3.444  30.499  53.981  1.00  0.00     0.034 A 
HETATM   31  C   UNL     1       3.507  31.371  57.487  1.00  0.00     0.325 A 
HETATM   32  H   UNL     1       3.010  32.659  55.864  1.00  0.00     0.170 HD
HETATM   33  O   UNL     1       3.391  32.087  58.465  1.00  0.00    -0.247 OA
HETATM   34  C   UNL     1       3.744  29.235  53.452  1.00  0.00     0.032 A 
HETATM   35  H   UNL     1       4.094  29.499  58.316  1.00  0.00     0.170 HD
ENDBRANCH  21  24
ENDBRANCH  19  20
ENDBRANCH   1  19
TORSDOF 7
ENDMDL
MODEL 4
REMARK VINA RESULT:      -9.4      3.012      3.927
REMARK  7 active torsions:
REMARK  status: ('A' for Active; 'I' for Inactive)
REMARK    1  A    between atoms: O_2  and  C_3 
REMARK    2  A    between atoms: C_6  and  C_7 
REMARK    3  A    between atoms: C_7  and  N_8 
REMARK    4  A    between atoms: C_7  and  C_25 
REMARK    5  A    between atoms: N_8  and  C_11 
REMARK    6  A    between atoms: C_11  and  C_12 
REMARK       I    between atoms: C_12  and  N_13 
REMARK    7  A    between atoms: N_13  and  C_14 
ROOT
HETATM    1  N   UNL     1       7.068  24.447  56.521  1.00  0.00    -0.055 N 
HETATM    2  H   UNL     1       6.142  24.902  56.448  1.00  0.00     0.278 HD
HETATM    3  H   UNL     1       6.855  23.532  56.929  1.00  0.00     0.278 HD
ENDROOT
BRANCH   1   4
HETATM    4  C   UNL     1       7.652  24.295  55.155  1.00  0.00     0.252 C 
BRANCH   4   5
HETATM    5  C   UNL     1       6.869  25.061  54.101  1.00  0.00    -0.023 A 
HETATM    6  C   UNL     1       7.495  26.111  53.405  1.00  0.00     0.012 A 
HETATM    7  C   UNL     1       6.820  26.823  52.406  1.00  0.00     0.037 A 
HETATM    8  C   UNL     1       5.508  26.493  52.077  1.00  0.00     0.068 A 
HETATM    9  C   UNL     1       4.877  25.457  52.764  1.00  0.00     0.037 A 
HETATM   10  C   UNL     1       5.546  24.742  53.761  1.00  0.00     0.012 A 
BRANCH   8  11
HETATM   11  O   UNL     1       4.741  27.096  51.121  1.00  0.00    -0.356 OA
HETATM   12  C   UNL     1       4.693  26.475  49.841  1.00  0.00     0.210 C 
ENDBRANCH   8  11
ENDBRANCH   4   5
BRANCH   4  13
HETATM   13  C   UNL     1       7.892  22.840  54.788  1.00  0.00    -0.023 A 
HETATM   14  C   UNL     1       8.197  22.501  53.457  1.00  0.00     0.009 A 
HETATM   15  C   UNL     1       8.443  21.175  53.098  1.00  0.00     0.001 A 
HETATM   16  C   UNL     1       8.384  20.170  54.058  1.00  0.00     0.000 A 
HETATM   17  C   UNL     1       8.074  20.485  55.378  1.00  0.00     0.001 A 
HETATM   18  C   UNL     1       7.824  21.810  55.743  1.00  0.00     0.009 A 
ENDBRANCH   4  13
ENDBRANCH   1   4
BRANCH   1  19
HETATM   19  C   UNL     1       7.881  25.246  57.508  1.00  0.00     0.336 C 
BRANCH  19  20
HETATM   20  C   UNL     1       7.706  26.739  57.230  1.00  0.00     0.248 C 
HETATM   21  N   UNL     1       6.428  27.104  56.863  1.00  0.00    -0.326 N 
HETATM   22  H   UNL     1       5.722  26.380  56.771  1.00  0.00     0.169 HD
HETATM   23  O   UNL     1       8.693  27.464  57.351  1.00  0.00    -0.271 OA
BRANCH  21  24
HETATM   24  C   UNL     1       5.968  28.410  56.573  1.00  0.00     0.037 A 
HETATM   25  C   UNL     1       5.506  28.809  55.311  1.00  0.00     0.061 A 
HETATM   26  C   UNL     1       5.096  30.118  55.178  1.00  0.00     0.065 A 
HETATM   27  C   UNL     1       5.126  31.024  56.234  1.00  0.00     0.063 A 
HETATM   28  N   UNL     1       4.603  30.783  54.060  1.00  0.00    -0.306 N 
HETATM   29  N   UNL     1       4.652  32.244  55.769  1.00  0.00    -0.307 N 
HETATM   30  C   UNL     1       5.570  30.671  57.482  1.00  0.00     0.034 A 
HETATM   31  C   UNL     1       4.322  32.111  54.413  1.00  0.00     0.325 A 
HETATM   32  H   UNL     1       4.550  33.104  56.283  1.00  0.00     0.170 HD
HETATM   33  O   UNL     1       3.878  32.978  53.682  1.00  0.00    -0.247 OA
HETATM   34  C   UNL     1       5.996  29.345  57.644  1.00  0.00     0.032 A 
HETATM   35  H   UNL     1       4.458  30.414  53.134  1.00  0.00     0.170 HD
ENDBRANCH  21  24
ENDBRANCH  19  20
ENDBRANCH   1  19
TORSDOF 7
ENDMDL
MODEL 5
REMARK VINA RESULT:      -9.4      2.171      3.412
REMARK  7 active torsions:
REMARK  status: ('A' for Active; 'I' for Inactive)
REMARK    1  A    between atoms: O_2  and  C_3 
REMARK    2  A    between atoms: C_6  and  C_7 
REMARK    3  A    between atoms: C_7  and  N_8 
REMARK    4  A    between atoms: C_7  and  C_25 
REMARK    5  A    between atoms: N_8  and  C_11 
REMARK    6  A    between atoms: C_11  and  C_12 
REMARK       I    between atoms: C_12  and  N_13 
REMARK    7  A    between atoms: N_13  and  C_14 
ROOT
HETATM    1  N   UNL     1       4.507  27.092  53.534  1.00  0.00    -0.055 N 
HETATM    2  H   UNL     1       3.602  26.933  53.061  1.00  0.00     0.278 HD
HETATM    3  H   UNL     1       4.504  26.408  54.298  1.00  0.00     0.278 HD
ENDROOT
BRANCH   1   4
HETATM    4  C   UNL     1       5.621  26.814  52.579  1.00  0.00     0.252 C 
BRANCH   4   5
HETATM    5  C   UNL     1       5.155  26.814  51.132  1.00  0.00    -0.023 A 
HETATM    6  C   UNL     1       5.400  27.943  50.329  1.00  0.00     0.012 A 
HETATM    7  C   UNL     1       5.014  27.974  48.983  1.00  0.00     0.037 A 
HETATM    8  C   UNL     1       4.383  26.873  48.411  1.00  0.00     0.068 A 
HETATM    9  C   UNL     1       4.132  25.750  49.199  1.00  0.00     0.037 A 
HETATM   10  C   UNL     1       4.515  25.713  50.543  1.00  0.00     0.012 A 
BRANCH   8  11
HETATM   11  O   UNL     1       3.966  26.766  47.114  1.00  0.00    -0.356 OA
HETATM   12  C   UNL     1       2.654  26.260  46.894  1.00  0.00     0.210 C 
ENDBRANCH   8  11
ENDBRANCH   4   5
BRANCH   4  13
HETATM   13  C   UNL     1       6.410  25.572  52.956  1.00  0.00    -0.023 A 
HETATM   14  C   UNL     1       6.098  24.886  54.144  1.00  0.00     0.009 A 
HETATM   15  C   UNL     1       6.793  23.730  54.503  1.00  0.00     0.001 A 
HETATM   16  C   UNL     1       7.810  23.246  53.686  1.00  0.00     0.000 A 
HETATM   17  C   UNL     1       8.140  23.917  52.513  1.00  0.00     0.001 A 
HETATM   18  C   UNL     1       7.449  25.076  52.149  1.00  0.00     0.009 A 
ENDBRANCH   4  13
ENDBRANCH   1   4
BRANCH   1  19
HETATM   19  C   UNL     1       4.466  28.480  54.122  1.00  0.00     0.336 C 
BRANCH  19  20
HETATM   20  C   UNL     1       5.216  28.497  55.454  1.00  0.00     0.248 C 
HETATM   21  N   UNL     1       6.116  29.534  55.588  1.00  0.00    -0.326 N 
HETATM   22  H   UNL     1       6.240  30.173  54.810  1.00  0.00     0.169 HD
HETATM   23  O   UNL     1       4.963  27.607  56.266  1.00  0.00    -0.271 OA
BRANCH  21  24
HETATM   24  C   UNL     1       6.926  29.816  56.713  1.00  0.00     0.037 A 
HETATM   25  C   UNL     1       6.461  30.471  57.861  1.00  0.00     0.061 A 
HETATM   26  C   UNL     1       7.370  30.683  58.875  1.00  0.00     0.065 A 
HETATM   27  C   UNL     1       8.697  30.271  58.790  1.00  0.00     0.063 A 
HETATM   28  N   UNL     1       7.195  31.302  60.107  1.00  0.00    -0.306 N 
HETATM   29  N   UNL     1       9.337  30.634  59.967  1.00  0.00    -0.307 N 
HETATM   30  C   UNL     1       9.188  29.626  57.684  1.00  0.00     0.034 A 
HETATM   31  C   UNL     1       8.414  31.281  60.801  1.00  0.00     0.325 A 
HETATM   32  H   UNL     1      10.301  30.482  60.219  1.00  0.00     0.170 HD
HETATM   33  O   UNL     1       8.626  31.735  61.910  1.00  0.00    -0.247 OA
HETATM   34  C   UNL     1       8.284  29.401  56.636  1.00  0.00     0.032 A 
HETATM   35  H   UNL     1       6.354  31.714  60.480  1.00  0.00     0.170 HD
ENDBRANCH  21  24
ENDBRANCH  19  20
ENDBRANCH   1  19
TORSDOF 7
ENDMDL
MODEL 6
REMARK VINA RESULT:      -9.4      3.778      8.906
REMARK  7 active torsions:
REMARK  status: ('A' for Active; 'I' for Inactive)
REMARK    1  A    between atoms: O_2  and  C_3 
REMARK    2  A    between atoms: C_6  and  C_7 
REMARK    3  A    between atoms: C_7  and  N_8 
REMARK    4  A    between atoms: C_7  and  C_25 
REMARK    5  A    between atoms: N_8  and  C_11 
REMARK    6  A    between atoms: C_11  and  C_12 
REMARK       I    between atoms: C_12  and  N_13 
REMARK    7  A    between atoms: N_13  and  C_14 
ROOT
HETATM    1  N   UNL     1       7.184  24.376  52.701  1.00  0.00    -0.055 N 
HETATM    2  H   UNL     1       8.186  24.220  52.497  1.00  0.00     0.278 HD
HETATM    3  H   UNL     1       6.704  23.891  51.937  1.00  0.00     0.278 HD
ENDROOT
BRANCH   1   4
HETATM    4  C   UNL     1       6.846  23.756  54.017  1.00  0.00     0.252 C 
BRANCH   4   5
HETATM    5  C   UNL     1       7.092  24.701  55.182  1.00  0.00    -0.023 A 
HETATM    6  C   UNL     1       8.365  24.739  55.782  1.00  0.00     0.012 A 
HETATM    7  C   UNL     1       8.643  25.616  56.838  1.00  0.00     0.037 A 
HETATM    8  C   UNL     1       7.658  26.479  57.309  1.00  0.00     0.068 A 
HETATM    9  C   UNL     1       6.392  26.447  56.724  1.00  0.00     0.037 A 
HETATM   10  C   UNL     1       6.108  25.575  55.669  1.00  0.00     0.012 A 
BRANCH   8  11
HETATM   11  O   UNL     1       7.797  27.387  58.319  1.00  0.00    -0.356 OA
HETATM   12  C   UNL     1       7.596  28.758  57.992  1.00  0.00     0.210 C 
ENDBRANCH   8  11
ENDBRANCH   4   5
BRANCH   4  13
HETATM   13  C   UNL     1       7.497  22.395  54.199  1.00  0.00    -0.023 A 
HETATM   14  C   UNL     1       8.121  21.771  53.103  1.00  0.00     0.009 A 
HETATM   15  C   UNL     1       8.745  20.532  53.248  1.00  0.00     0.001 A 
HETATM   16  C   UNL     1       8.753  19.896  54.486  1.00  0.00     0.000 A 
HETATM   17  C   UNL     1       8.132  20.493  55.579  1.00  0.00     0.001 A 
HETATM   18  C   UNL     1       7.504  21.732  55.439  1.00  0.00     0.009 A 
ENDBRANCH   4  13
ENDBRANCH   1   4
BRANCH   1  19
HETATM   19  C   UNL     1       6.927  25.856  52.577  1.00  0.00     0.336 C 
BRANCH  19  20
HETATM   20  C   UNL     1       5.565  26.089  51.923  1.00  0.00     0.248 C 
HETATM   21  N   UNL     1       5.624  26.420  50.586  1.00  0.00    -0.326 N 
HETATM   22  H   UNL     1       6.534  26.517  50.148  1.00  0.00     0.169 HD
HETATM   23  O   UNL     1       4.563  25.967  52.628  1.00  0.00    -0.271 OA
BRANCH  21  24
HETATM   24  C   UNL     1       4.530  26.664  49.722  1.00  0.00     0.037 A 
HETATM   25  C   UNL     1       3.881  27.902  49.620  1.00  0.00     0.061 A 
HETATM   26  C   UNL     1       2.825  27.986  48.740  1.00  0.00     0.065 A 
HETATM   27  C   UNL     1       2.401  26.906  47.971  1.00  0.00     0.063 A 
HETATM   28  N   UNL     1       2.005  29.070  48.440  1.00  0.00    -0.306 N 
HETATM   29  N   UNL     1       1.325  27.323  47.199  1.00  0.00    -0.307 N 
HETATM   30  C   UNL     1       3.011  25.680  48.042  1.00  0.00     0.034 A 
HETATM   31  C   UNL     1       1.063  28.671  47.480  1.00  0.00     0.325 A 
HETATM   32  H   UNL     1       0.791  26.780  46.539  1.00  0.00     0.170 HD
HETATM   33  O   UNL     1       0.190  29.363  46.989  1.00  0.00    -0.247 OA
HETATM   34  C   UNL     1       4.087  25.566  48.933  1.00  0.00     0.032 A 
HETATM   35  H   UNL     1       2.044  30.000  48.825  1.00  0.00     0.170 HD
ENDBRANCH  21  24
ENDBRANCH  19  20
ENDBRANCH   1  19
TORSDOF 7
ENDMDL
MODEL 7
REMARK VINA RESULT:      -9.3      4.093      9.777
REMARK  7 active torsions:
REMARK  status: ('A' for Active; 'I' for Inactive)
REMARK    1  A    between atoms: O_2  and  C_3 
REMARK    2  A    between atoms: C_6  and  C_7 
REMARK    3  A    between atoms: C_7  and  N_8 
REMARK    4  A    between atoms: C_7  and  C_25 
REMARK    5  A    between atoms: N_8  and  C_11 
REMARK    6  A    between atoms: C_11  and  C_12 
REMARK       I    between atoms: C_12  and  N_13 
REMARK    7  A    between atoms: N_13  and  C_14 
ROOT
HETATM    1  N   UNL     1       6.408  28.284  53.192  1.00  0.00    -0.055 N 
HETATM    2  H   UNL     1       7.212  28.927  53.096  1.00  0.00     0.278 HD
HETATM    3  H   UNL     1       6.428  27.741  52.324  1.00  0.00     0.278 HD
ENDROOT
BRANCH   1   4
HETATM    4  C   UNL     1       6.622  27.400  54.376  1.00  0.00     0.252 C 
BRANCH   4   5
HETATM    5  C   UNL     1       7.496  28.052  55.435  1.00  0.00    -0.023 A 
HETATM    6  C   UNL     1       8.640  28.769  55.039  1.00  0.00     0.012 A 
HETATM    7  C   UNL     1       9.456  29.410  55.979  1.00  0.00     0.037 A 
HETATM    8  C   UNL     1       9.140  29.354  57.334  1.00  0.00     0.068 A 
HETATM    9  C   UNL     1       8.011  28.642  57.738  1.00  0.00     0.037 A 
HETATM   10  C   UNL     1       7.192  28.001  56.804  1.00  0.00     0.012 A 
BRANCH   8  11
HETATM   11  O   UNL     1       9.840  29.940  58.350  1.00  0.00    -0.356 OA
HETATM   12  C   UNL     1       9.977  31.356  58.311  1.00  0.00     0.210 C 
ENDBRANCH   8  11
ENDBRANCH   4   5
BRANCH   4  13
HETATM   13  C   UNL     1       7.091  26.010  53.982  1.00  0.00    -0.023 A 
HETATM   14  C   UNL     1       7.374  25.729  52.633  1.00  0.00     0.009 A 
HETATM   15  C   UNL     1       7.827  24.467  52.247  1.00  0.00     0.001 A 
HETATM   16  C   UNL     1       8.001  23.467  53.199  1.00  0.00     0.000 A 
HETATM   17  C   UNL     1       7.716  23.723  54.537  1.00  0.00     0.001 A 
HETATM   18  C   UNL     1       7.260  24.984  54.929  1.00  0.00     0.009 A 
ENDBRANCH   4  13
ENDBRANCH   1   4
BRANCH   1  19
HETATM   19  C   UNL     1       5.160  29.130  53.210  1.00  0.00     0.336 C 
BRANCH  19  20
HETATM   20  C   UNL     1       4.139  28.560  52.224  1.00  0.00     0.248 C 
HETATM   21  N   UNL     1       4.615  28.399  50.940  1.00  0.00    -0.326 N 
HETATM   22  H   UNL     1       5.566  28.690  50.733  1.00  0.00     0.169 HD
HETATM   23  O   UNL     1       3.013  28.306  52.649  1.00  0.00    -0.271 OA
BRANCH  21  24
HETATM   24  C   UNL     1       3.910  27.873  49.832  1.00  0.00     0.037 A 
HETATM   25  C   UNL     1       2.713  28.414  49.344  1.00  0.00     0.061 A 
HETATM   26  C   UNL     1       2.137  27.788  48.261  1.00  0.00     0.065 A 
HETATM   27  C   UNL     1       2.699  26.667  47.656  1.00  0.00     0.063 A 
HETATM   28  N   UNL     1       0.965  28.096  47.579  1.00  0.00    -0.306 N 
HETATM   29  N   UNL     1       1.876  26.287  46.604  1.00  0.00    -0.307 N 
HETATM   30  C   UNL     1       3.869  26.109  48.104  1.00  0.00     0.034 A 
HETATM   31  C   UNL     1       0.788  27.168  46.542  1.00  0.00     0.325 A 
HETATM   32  H   UNL     1       2.001  25.513  45.970  1.00  0.00     0.170 HD
HETATM   33  O   UNL     1      -0.132  27.136  45.746  1.00  0.00    -0.247 OA
HETATM   34  C   UNL     1       4.475  26.726  49.208  1.00  0.00     0.032 A 
HETATM   35  H   UNL     1       0.320  28.848  47.765  1.00  0.00     0.170 HD
ENDBRANCH  21  24
ENDBRANCH  19  20
ENDBRANCH   1  19
TORSDOF 7
ENDMDL
MODEL 8
REMARK VINA RESULT:      -9.3      3.710      6.239
REMARK  7 active torsions:
REMARK  status: ('A' for Active; 'I' for Inactive)
REMARK    1  A    between atoms: O_2  and  C_3 
REMARK    2  A    between atoms: C_6  and  C_7 
REMARK    3  A    between atoms: C_7  and  N_8 
REMARK    4  A    between atoms: C_7  and  C_25 
REMARK    5  A    between atoms: N_8  and  C_11 
REMARK    6  A    between atoms: C_11  and  C_12 
REMARK       I    between atoms: C_12  and  N_13 
REMARK    7  A    between atoms: N_13  and  C_14 
ROOT
HETATM    1  N   UNL     1       6.514  24.449  52.757  1.00  0.00    -0.055 N 
HETATM    2  H   UNL     1       7.120  25.285  52.708  1.00  0.00     0.278 HD
HETATM    3  H   UNL     1       6.963  23.787  52.118  1.00  0.00     0.278 HD
ENDROOT
BRANCH   1   4
HETATM    4  C   UNL     1       6.514  23.920  54.154  1.00  0.00     0.252 C 
BRANCH   4   5
HETATM    5  C   UNL     1       6.879  24.985  55.176  1.00  0.00    -0.023 A 
HETATM    6  C   UNL     1       6.663  24.730  56.543  1.00  0.00     0.012 A 
HETATM    7  C   UNL     1       7.012  25.671  57.520  1.00  0.00     0.037 A 
HETATM    8  C   UNL     1       7.591  26.881  57.150  1.00  0.00     0.068 A 
HETATM    9  C   UNL     1       7.806  27.146  55.797  1.00  0.00     0.037 A 
HETATM   10  C   UNL     1       7.461  26.210  54.817  1.00  0.00     0.012 A 
BRANCH   8  11
HETATM   11  O   UNL     1       7.987  27.878  57.996  1.00  0.00    -0.356 OA
HETATM   12  C   UNL     1       8.863  28.868  57.469  1.00  0.00     0.210 C 
ENDBRANCH   8  11
ENDBRANCH   4   5
BRANCH   4  13
HETATM   13  C   UNL     1       7.335  22.649  54.290  1.00  0.00    -0.023 A 
HETATM   14  C   UNL     1       7.864  22.037  53.139  1.00  0.00     0.009 A 
HETATM   15  C   UNL     1       8.640  20.881  53.238  1.00  0.00     0.001 A 
HETATM   16  C   UNL     1       8.895  20.318  54.485  1.00  0.00     0.000 A 
HETATM   17  C   UNL     1       8.372  20.904  55.634  1.00  0.00     0.001 A 
HETATM   18  C   UNL     1       7.593  22.059  55.540  1.00  0.00     0.009 A 
ENDBRANCH   4  13
ENDBRANCH   1   4
BRANCH   1  19
HETATM   19  C   UNL     1       5.171  24.838  52.193  1.00  0.00     0.336 C 
BRANCH  19  20
HETATM   20  C   UNL     1       5.012  26.358  52.244  1.00  0.00     0.248 C 
HETATM   21  N   UNL     1       4.223  26.814  53.279  1.00  0.00    -0.326 N 
HETATM   22  H   UNL     1       3.788  26.134  53.895  1.00  0.00     0.169 HD
HETATM   23  O   UNL     1       5.583  27.023  51.380  1.00  0.00    -0.271 OA
BRANCH  21  24
HETATM   24  C   UNL     1       3.923  28.162  53.589  1.00  0.00     0.037 A 
HETATM   25  C   UNL     1       3.338  29.055  52.682  1.00  0.00     0.061 A 
HETATM   26  C   UNL     1       3.111  30.340  53.124  1.00  0.00     0.065 A 
HETATM   27  C   UNL     1       3.437  30.758  54.412  1.00  0.00     0.063 A 
HETATM   28  N   UNL     1       2.557  31.424  52.452  1.00  0.00    -0.306 N 
HETATM   29  N   UNL     1       3.083  32.095  54.533  1.00  0.00    -0.307 N 
HETATM   30  C   UNL     1       4.010  29.913  55.327  1.00  0.00     0.034 A 
HETATM   31  C   UNL     1       2.533  32.528  53.318  1.00  0.00     0.325 A 
HETATM   32  H   UNL     1       3.190  32.693  55.338  1.00  0.00     0.170 HD
HETATM   33  O   UNL     1       2.116  33.642  53.062  1.00  0.00    -0.247 OA
HETATM   34  C   UNL     1       4.254  28.599  54.900  1.00  0.00     0.032 A 
HETATM   35  H   UNL     1       2.219  31.458  51.504  1.00  0.00     0.170 HD
ENDBRANCH  21  24
ENDBRANCH  19  20
ENDBRANCH   1  19
TORSDOF 7
ENDMDL
MODEL 9
REMARK VINA RESULT:      -9.3      3.168      8.625
REMARK  7 active torsions:
REMARK  status: ('A' for Active; 'I' for Inactive)
REMARK    1  A    between atoms: O_2  and  C_3 
REMARK    2  A    between atoms: C_6  and  C_7 
REMARK    3  A    between atoms: C_7  and  N_8 
REMARK    4  A    between atoms: C_7  and  C_25 
REMARK    5  A    between atoms: N_8  and  C_11 
REMARK    6  A    between atoms: C_11  and  C_12 
REMARK       I    between atoms: C_12  and  N_13 
REMARK    7  A    between atoms: N_13  and  C_14 
ROOT
HETATM    1  N   UNL     1       6.020  28.030  57.283  1.00  0.00    -0.055 N 
HETATM    2  H   UNL     1       6.110  27.411  58.105  1.00  0.00     0.278 HD
HETATM    3  H   UNL     1       5.956  28.967  57.692  1.00  0.00     0.278 HD
ENDROOT
BRANCH   1   4
HETATM    4  C   UNL     1       7.243  27.905  56.435  1.00  0.00     0.252 C 
BRANCH   4   5
HETATM    5  C   UNL     1       7.691  26.462  56.274  1.00  0.00    -0.023 A 
HETATM    6  C   UNL     1       8.289  25.800  57.362  1.00  0.00     0.012 A 
HETATM    7  C   UNL     1       8.690  24.462  57.267  1.00  0.00     0.037 A 
HETATM    8  C   UNL     1       8.492  23.755  56.084  1.00  0.00     0.068 A 
HETATM    9  C   UNL     1       7.903  24.402  54.997  1.00  0.00     0.037 A 
HETATM   10  C   UNL     1       7.501  25.738  55.087  1.00  0.00     0.012 A 
BRANCH   8  11
HETATM   11  O   UNL     1       8.823  22.449  55.860  1.00  0.00    -0.356 OA
HETATM   12  C   UNL     1       7.757  21.508  55.812  1.00  0.00     0.210 C 
ENDBRANCH   8  11
ENDBRANCH   4   5
BRANCH   4  13
HETATM   13  C   UNL     1       8.357  28.834  56.887  1.00  0.00    -0.023 A 
HETATM   14  C   UNL     1       9.424  29.116  56.014  1.00  0.00     0.009 A 
HETATM   15  C   UNL     1      10.448  29.983  56.396  1.00  0.00     0.001 A 
HETATM   16  C   UNL     1      10.425  30.578  57.655  1.00  0.00     0.000 A 
HETATM   17  C   UNL     1       9.383  30.303  58.535  1.00  0.00     0.001 A 
HETATM   18  C   UNL     1       8.357  29.434  58.159  1.00  0.00     0.009 A 
ENDBRANCH   4  13
ENDBRANCH   1   4
BRANCH   1  19
HETATM   19  C   UNL     1       4.710  27.698  56.614  1.00  0.00     0.336 C 
BRANCH  19  20
HETATM   20  C   UNL     1       4.695  28.273  55.198  1.00  0.00     0.248 C 
HETATM   21  N   UNL     1       4.393  27.356  54.213  1.00  0.00    -0.326 N 
HETATM   22  H   UNL     1       4.240  26.389  54.480  1.00  0.00     0.169 HD
HETATM   23  O   UNL     1       4.951  29.469  55.063  1.00  0.00    -0.271 OA
BRANCH  21  24
HETATM   24  C   UNL     1       4.282  27.605  52.825  1.00  0.00     0.037 A 
HETATM   25  C   UNL     1       5.032  26.932  51.852  1.00  0.00     0.061 A 
HETATM   26  C   UNL     1       4.820  27.288  50.538  1.00  0.00     0.065 A 
HETATM   27  C   UNL     1       3.905  28.268  50.165  1.00  0.00     0.063 A 
HETATM   28  N   UNL     1       5.417  26.799  49.380  1.00  0.00    -0.306 N 
HETATM   29  N   UNL     1       3.936  28.382  48.782  1.00  0.00    -0.307 N 
HETATM   30  C   UNL     1       3.152  28.947  51.088  1.00  0.00     0.034 A 
HETATM   31  C   UNL     1       4.876  27.474  48.275  1.00  0.00     0.325 A 
HETATM   32  H   UNL     1       3.395  29.003  48.200  1.00  0.00     0.170 HD
HETATM   33  O   UNL     1       5.167  27.301  47.106  1.00  0.00    -0.247 OA
HETATM   34  C   UNL     1       3.351  28.606  52.433  1.00  0.00     0.032 A 
HETATM   35  H   UNL     1       6.123  26.086  49.301  1.00  0.00     0.170 HD
ENDBRANCH  21  24
ENDBRANCH  19  20
ENDBRANCH   1  19
TORSDOF 7
ENDMDL
MODEL 10
REMARK VINA RESULT:      -9.2      2.364      5.163
REMARK  7 active torsions:
REMARK  status: ('A' for Active; 'I' for Inactive)
REMARK    1  A    between atoms: O_2  and  C_3 
REMARK    2  A    between atoms: C_6  and  C_7 
REMARK    3  A    between atoms: C_7  and  N_8 
REMARK    4  A    between atoms: C_7  and  C_25 
REMARK    5  A    between atoms: N_8  and  C_11 
REMARK    6  A    between atoms: C_11  and  C_12 
REMARK       I    between atoms: C_12  and  N_13 
REMARK    7  A    between atoms: N_13  and  C_14 
ROOT
HETATM    1  N   UNL     1       5.538  28.499  52.579  1.00  0.00    -0.055 N 
HETATM    2  H   UNL     1       6.426  28.371  53.094  1.00  0.00     0.278 HD
HETATM    3  H   UNL     1       5.774  29.188  51.859  1.00  0.00     0.278 HD
ENDROOT
BRANCH   1   4
HETATM    4  C   UNL     1       5.136  27.201  51.958  1.00  0.00     0.252 C 
BRANCH   4   5
HETATM    5  C   UNL     1       5.975  26.036  52.456  1.00  0.00    -0.023 A 
HETATM    6  C   UNL     1       5.509  25.263  53.536  1.00  0.00     0.012 A 
HETATM    7  C   UNL     1       6.236  24.163  54.008  1.00  0.00     0.037 A 
HETATM    8  C   UNL     1       7.439  23.809  53.404  1.00  0.00     0.068 A 
HETATM    9  C   UNL     1       7.912  24.571  52.336  1.00  0.00     0.037 A 
HETATM   10  C   UNL     1       7.191  25.669  51.860  1.00  0.00     0.012 A 
BRANCH   8  11
HETATM   11  O   UNL     1       8.239  22.759  53.755  1.00  0.00    -0.356 OA
HETATM   12  C   UNL     1       7.906  21.482  53.220  1.00  0.00     0.210 C 
ENDBRANCH   8  11
ENDBRANCH   4   5
BRANCH   4  13
HETATM   13  C   UNL     1       5.061  27.285  50.443  1.00  0.00    -0.023 A 
HETATM   14  C   UNL     1       5.532  28.437  49.787  1.00  0.00     0.009 A 
HETATM   15  C   UNL     1       5.496  28.530  48.395  1.00  0.00     0.001 A 
HETATM   16  C   UNL     1       4.987  27.478  47.639  1.00  0.00     0.000 A 
HETATM   17  C   UNL     1       4.507  26.334  48.271  1.00  0.00     0.001 A 
HETATM   18  C   UNL     1       4.539  26.237  49.664  1.00  0.00     0.009 A 
ENDBRANCH   4  13
ENDBRANCH   1   4
BRANCH   1  19
HETATM   19  C   UNL     1       4.550  29.112  53.538  1.00  0.00     0.336 C 
BRANCH  19  20
HETATM   20  C   UNL     1       5.062  28.961  54.971  1.00  0.00     0.248 C 
HETATM   21  N   UNL     1       6.029  29.876  55.330  1.00  0.00    -0.326 N 
HETATM   22  H   UNL     1       6.350  30.543  54.635  1.00  0.00     0.169 HD
HETATM   23  O   UNL     1       4.583  28.059  55.658  1.00  0.00    -0.271 OA
BRANCH  21  24
HETATM   24  C   UNL     1       6.662  29.993  56.590  1.00  0.00     0.037 A 
HETATM   25  C   UNL     1       6.225  30.857  57.602  1.00  0.00     0.061 A 
HETATM   26  C   UNL     1       6.948  30.867  58.775  1.00  0.00     0.065 A 
HETATM   27  C   UNL     1       8.066  30.062  58.973  1.00  0.00     0.063 A 
HETATM   28  N   UNL     1       6.752  31.616  59.931  1.00  0.00    -0.306 N 
HETATM   29  N   UNL     1       8.557  30.313  60.247  1.00  0.00    -0.307 N 
HETATM   30  C   UNL     1       8.524  29.203  58.007  1.00  0.00     0.034 A 
HETATM   31  C   UNL     1       7.750  31.282  60.859  1.00  0.00     0.325 A 
HETATM   32  H   UNL     1       9.358  29.895  60.695  1.00  0.00     0.170 HD
HETATM   33  O   UNL     1       7.885  31.744  61.977  1.00  0.00    -0.247 OA
HETATM   34  C   UNL     1       7.807  29.176  56.802  1.00  0.00     0.032 A 
HETATM   35  H   UNL     1       6.032  32.296  60.113  1.00  0.00     0.170 HD
ENDBRANCH  21  24
ENDBRANCH  19  20
ENDBRANCH   1  19
TORSDOF 7
ENDMDL
