MODEL 1
REMARK VINA RESULT:      -9.2      0.000      0.000
REMARK  5 active torsions:
REMARK  status: ('A' for Active; 'I' for Inactive)
REMARK    1  A    between atoms: C_8  and  C_9 
REMARK    2  A    between atoms: N_10  and  N_11 
REMARK       I    between atoms: N_11  and  C_12 
REMARK    3  A    between atoms: C_12  and  C_13 
REMARK    4  A    between atoms: C_13  and  O_14 
REMARK    5  A    between atoms: O_14  and  C_15 
ROOT
HETATM    1  N   UNL     1       6.413  27.535  56.175  1.00  0.00    -0.246 N 
HETATM    2  C   UNL     1       7.034  28.761  56.379  1.00  0.00     0.261 C 
HETATM    3  O   UNL     1       7.972  29.220  55.729  1.00  0.00    -0.269 OA
HETATM    4  H   UNL     1       5.506  27.401  56.622  1.00  0.00     0.192 HD
ENDROOT
BRANCH   1   5
HETATM    5  N   UNL     1       6.679  26.640  55.168  1.00  0.00    -0.184 NA
HETATM    6  C   UNL     1       7.238  25.510  55.464  1.00  0.00     0.152 C 
BRANCH   6   7
HETATM    7  C   UNL     1       7.549  24.563  54.410  1.00  0.00     0.011 A 
HETATM    8  C   UNL     1       7.695  23.144  54.547  1.00  0.00     0.004 A 
HETATM    9  C   UNL     1       7.614  22.248  55.635  1.00  0.00     0.014 A 
HETATM   10  C   UNL     1       7.981  22.629  53.282  1.00  0.00     0.043 A 
HETATM   11  C   UNL     1       7.818  20.880  55.419  1.00  0.00     0.001 A 
HETATM   12  C   UNL     1       8.097  20.397  54.144  1.00  0.00     0.002 A 
HETATM   13  C   UNL     1       8.184  21.263  53.049  1.00  0.00     0.030 A 
HETATM   14  N   UNL     1       8.013  23.691  52.409  1.00  0.00    -0.364 N 
HETATM   15  H   UNL     1       8.200  23.614  51.420  1.00  0.00     0.165 HD
HETATM   16  C   UNL     1       7.760  24.860  53.076  1.00  0.00     0.102 A 
ENDBRANCH   6   7
ENDBRANCH   1   5
BRANCH   2  17
HETATM   17  C   UNL     1       6.491  29.512  57.594  1.00  0.00     0.280 C 
BRANCH  17  18
HETATM   18  O   UNL     1       7.146  30.761  57.787  1.00  0.00    -0.340 OA
BRANCH  18  19
HETATM   19  C   UNL     1       7.419  31.126  59.081  1.00  0.00     0.092 A 
HETATM   20  C   UNL     1       6.658  32.176  59.622  1.00  0.00     0.069 A 
HETATM   21 CL   UNL     1       5.450  32.980  58.683  1.00  0.00    -0.081 Cl
HETATM   22  C   UNL     1       6.864  32.607  60.935  1.00  0.00     0.052 A 
HETATM   23  C   UNL     1       7.828  31.985  61.729  1.00  0.00     0.057 A 
HETATM   24 CL   UNL     1       8.037  32.562  63.343  1.00  0.00    -0.082 Cl
HETATM   25  C   UNL     1       8.583  30.930  61.207  1.00  0.00     0.058 A 
HETATM   26 CL   UNL     1       9.784  30.104  62.136  1.00  0.00    -0.082 Cl
HETATM   27  C   UNL     1       8.377  30.502  59.888  1.00  0.00     0.064 A 
ENDBRANCH  18  19
ENDBRANCH  17  18
ENDBRANCH   2  17
TORSDOF 5
ENDMDL
MODEL 2
REMARK VINA RESULT:      -9.2      4.517     10.106
REMARK  5 active torsions:
REMARK  status: ('A' for Active; 'I' for Inactive)
REMARK    1  A    between atoms: C_8  and  C_9 
REMARK    2  A    between atoms: N_10  and  N_11 
REMARK       I    between atoms: N_11  and  C_12 
REMARK    3  A    between atoms: C_12  and  C_13 
REMARK    4  A    between atoms: C_13  and  O_14 
REMARK    5  A    between atoms: O_14  and  C_15 
ROOT
HETATM    1  N   UNL     1       7.021  28.380  56.751  1.00  0.00    -0.246 N 
HETATM    2  C   UNL     1       7.542  27.117  57.004  1.00  0.00     0.261 C 
HETATM    3  O   UNL     1       7.776  26.635  58.111  1.00  0.00    -0.269 OA
HETATM    4  H   UNL     1       6.653  28.544  55.814  1.00  0.00     0.192 HD
ENDROOT
BRANCH   1   5
HETATM    5  N   UNL     1       6.602  29.296  57.684  1.00  0.00    -0.184 NA
HETATM    6  C   UNL     1       7.360  30.312  57.949  1.00  0.00     0.152 C 
BRANCH   6   7
HETATM    7  C   UNL     1       6.946  31.276  58.951  1.00  0.00     0.011 A 
HETATM    8  C   UNL     1       7.540  31.485  60.238  1.00  0.00     0.004 A 
HETATM    9  C   UNL     1       8.613  30.887  60.935  1.00  0.00     0.014 A 
HETATM   10  C   UNL     1       6.835  32.514  60.863  1.00  0.00     0.043 A 
HETATM   11  C   UNL     1       8.941  31.339  62.218  1.00  0.00     0.001 A 
HETATM   12  C   UNL     1       8.220  32.371  62.812  1.00  0.00     0.002 A 
HETATM   13  C   UNL     1       7.152  32.980  62.146  1.00  0.00     0.030 A 
HETATM   14  N   UNL     1       5.847  32.914  59.994  1.00  0.00    -0.364 N 
HETATM   15  H   UNL     1       5.179  33.648  60.184  1.00  0.00     0.165 HD
HETATM   16  C   UNL     1       5.901  32.175  58.843  1.00  0.00     0.102 A 
ENDBRANCH   6   7
ENDBRANCH   1   5
BRANCH   2  17
HETATM   17  C   UNL     1       7.902  26.351  55.731  1.00  0.00     0.280 C 
BRANCH  17  18
HETATM   18  O   UNL     1       6.836  25.516  55.291  1.00  0.00    -0.340 OA
BRANCH  18  19
HETATM   19  C   UNL     1       7.179  24.287  54.786  1.00  0.00     0.092 A 
HETATM   20  C   UNL     1       7.484  24.224  53.416  1.00  0.00     0.069 A 
HETATM   21 CL   UNL     1       7.407  25.632  52.417  1.00  0.00    -0.081 Cl
HETATM   22  C   UNL     1       7.851  23.014  52.820  1.00  0.00     0.052 A 
HETATM   23  C   UNL     1       7.927  21.853  53.590  1.00  0.00     0.057 A 
HETATM   24 CL   UNL     1       8.384  20.389  52.797  1.00  0.00    -0.082 Cl
HETATM   25  C   UNL     1       7.639  21.906  54.957  1.00  0.00     0.058 A 
HETATM   26 CL   UNL     1       7.726  20.512  55.976  1.00  0.00    -0.082 Cl
HETATM   27  C   UNL     1       7.268  23.120  55.552  1.00  0.00     0.064 A 
ENDBRANCH  18  19
ENDBRANCH  17  18
ENDBRANCH   2  17
TORSDOF 5
ENDMDL
MODEL 3
REMARK VINA RESULT:      -9.2      2.143      3.352
REMARK  5 active torsions:
REMARK  status: ('A' for Active; 'I' for Inactive)
REMARK    1  A    between atoms: C_8  and  C_9 
REMARK    2  A    between atoms: N_10  and  N_11 
REMARK       I    between atoms: N_11  and  C_12 
REMARK    3  A    between atoms: C_12  and  C_13 
REMARK    4  A    between atoms: C_13  and  O_14 
REMARK    5  A    between atoms: O_14  and  C_15 
ROOT
HETATM    1  N   UNL     1       7.341  28.839  58.266  1.00  0.00    -0.246 N 
HETATM    2  C   UNL     1       8.033  30.023  58.492  1.00  0.00     0.261 C 
HETATM    3  O   UNL     1       9.252  30.173  58.453  1.00  0.00    -0.269 OA
HETATM    4  H   UNL     1       6.340  28.920  58.090  1.00  0.00     0.192 HD
ENDROOT
BRANCH   1   5
HETATM    5  N   UNL     1       7.881  27.635  57.886  1.00  0.00    -0.184 NA
HETATM    6  C   UNL     1       7.274  26.932  56.984  1.00  0.00     0.152 C 
BRANCH   6   7
HETATM    7  C   UNL     1       7.815  25.645  56.589  1.00  0.00     0.011 A 
HETATM    8  C   UNL     1       7.670  25.008  55.314  1.00  0.00     0.004 A 
HETATM    9  C   UNL     1       7.008  25.349  54.114  1.00  0.00     0.014 A 
HETATM   10  C   UNL     1       8.359  23.797  55.370  1.00  0.00     0.043 A 
HETATM   11  C   UNL     1       7.062  24.474  53.023  1.00  0.00     0.001 A 
HETATM   12  C   UNL     1       7.763  23.275  53.110  1.00  0.00     0.002 A 
HETATM   13  C   UNL     1       8.426  22.912  54.286  1.00  0.00     0.030 A 
HETATM   14  N   UNL     1       8.900  23.696  56.631  1.00  0.00    -0.364 N 
HETATM   15  H   UNL     1       9.454  22.917  56.956  1.00  0.00     0.165 HD
HETATM   16  C   UNL     1       8.577  24.800  57.374  1.00  0.00     0.102 A 
ENDBRANCH   6   7
ENDBRANCH   1   5
BRANCH   2  17
HETATM   17  C   UNL     1       7.120  31.181  58.898  1.00  0.00     0.280 C 
BRANCH  17  18
HETATM   18  O   UNL     1       7.840  32.228  59.539  1.00  0.00    -0.340 OA
BRANCH  18  19
HETATM   19  C   UNL     1       7.487  32.523  60.832  1.00  0.00     0.092 A 
HETATM   20  C   UNL     1       8.445  32.271  61.827  1.00  0.00     0.069 A 
HETATM   21 CL   UNL     1       9.988  31.598  61.434  1.00  0.00    -0.081 Cl
HETATM   22  C   UNL     1       8.172  32.549  63.170  1.00  0.00     0.052 A 
HETATM   23  C   UNL     1       6.940  33.094  63.532  1.00  0.00     0.057 A 
HETATM   24 CL   UNL     1       6.662  33.415  65.206  1.00  0.00    -0.082 Cl
HETATM   25  C   UNL     1       5.984  33.362  62.548  1.00  0.00     0.058 A 
HETATM   26 CL   UNL     1       4.442  34.049  62.920  1.00  0.00    -0.082 Cl
HETATM   27  C   UNL     1       6.258  33.079  61.203  1.00  0.00     0.064 A 
ENDBRANCH  18  19
ENDBRANCH  17  18
ENDBRANCH   2  17
TORSDOF 5
ENDMDL
MODEL 4
REMARK VINA RESULT:      -9.1      1.760      2.393
REMARK  5 active torsions:
REMARK  status: ('A' for Active; 'I' for Inactive)
REMARK    1  A    between atoms: C_8  and  C_9 
REMARK    2  A    between atoms: N_10  and  N_11 
REMARK       I    between atoms: N_11  and  C_12 
REMARK    3  A    between atoms: C_12  and  C_13 
REMARK    4  A    between atoms: C_13  and  O_14 
REMARK    5  A    between atoms: O_14  and  C_15 
ROOT
HETATM    1  N   UNL     1       5.967  26.756  55.555  1.00  0.00    -0.246 N 
HETATM    2  C   UNL     1       6.389  27.347  56.740  1.00  0.00     0.261 C 
HETATM    3  O   UNL     1       7.000  26.794  57.652  1.00  0.00    -0.269 OA
HETATM    4  H   UNL     1       5.699  27.385  54.800  1.00  0.00     0.192 HD
ENDROOT
BRANCH   1   5
HETATM    5  N   UNL     1       6.215  25.467  55.149  1.00  0.00    -0.184 NA
HETATM    6  C   UNL     1       7.344  25.197  54.575  1.00  0.00     0.152 C 
BRANCH   6   7
HETATM    7  C   UNL     1       7.613  23.847  54.116  1.00  0.00     0.011 A 
HETATM    8  C   UNL     1       7.916  22.708  54.930  1.00  0.00     0.004 A 
HETATM    9  C   UNL     1       8.064  22.505  56.320  1.00  0.00     0.014 A 
HETATM   10  C   UNL     1       8.090  21.618  54.078  1.00  0.00     0.043 A 
HETATM   11  C   UNL     1       8.375  21.227  56.801  1.00  0.00     0.001 A 
HETATM   12  C   UNL     1       8.537  20.160  55.923  1.00  0.00     0.002 A 
HETATM   13  C   UNL     1       8.398  20.334  54.543  1.00  0.00     0.030 A 
HETATM   14  N   UNL     1       7.905  22.075  52.793  1.00  0.00    -0.364 N 
HETATM   15  H   UNL     1       7.971  21.499  51.966  1.00  0.00     0.165 HD
HETATM   16  C   UNL     1       7.621  23.414  52.803  1.00  0.00     0.102 A 
ENDBRANCH   6   7
ENDBRANCH   1   5
BRANCH   2  17
HETATM   17  C   UNL     1       5.943  28.803  56.874  1.00  0.00     0.280 C 
BRANCH  17  18
HETATM   18  O   UNL     1       7.019  29.712  56.670  1.00  0.00    -0.340 OA
BRANCH  18  19
HETATM   19  C   UNL     1       7.571  30.281  57.790  1.00  0.00     0.092 A 
HETATM   20  C   UNL     1       8.924  30.002  58.046  1.00  0.00     0.069 A 
HETATM   21 CL   UNL     1       9.837  28.969  57.003  1.00  0.00    -0.081 Cl
HETATM   22  C   UNL     1       9.568  30.546  59.161  1.00  0.00     0.052 A 
HETATM   23  C   UNL     1       8.869  31.386  60.028  1.00  0.00     0.057 A 
HETATM   24 CL   UNL     1       9.719  32.027  61.388  1.00  0.00    -0.082 Cl
HETATM   25  C   UNL     1       7.527  31.682  59.777  1.00  0.00     0.058 A 
HETATM   26 CL   UNL     1       6.602  32.725  60.799  1.00  0.00    -0.082 Cl
HETATM   27  C   UNL     1       6.881  31.133  58.661  1.00  0.00     0.064 A 
ENDBRANCH  18  19
ENDBRANCH  17  18
ENDBRANCH   2  17
TORSDOF 5
ENDMDL
MODEL 5
REMARK VINA RESULT:      -9.0      7.358     10.010
REMARK  5 active torsions:
REMARK  status: ('A' for Active; 'I' for Inactive)
REMARK    1  A    between atoms: C_8  and  C_9 
REMARK    2  A    between atoms: N_10  and  N_11 
REMARK       I    between atoms: N_11  and  C_12 
REMARK    3  A    between atoms: C_12  and  C_13 
REMARK    4  A    between atoms: C_13  and  O_14 
REMARK    5  A    between atoms: O_14  and  C_15 
ROOT
HETATM    1  N   UNL     1       5.831  25.930  51.028  1.00  0.00    -0.246 N 
HETATM    2  C   UNL     1       5.364  27.238  51.025  1.00  0.00     0.261 C 
HETATM    3  O   UNL     1       4.942  27.863  51.996  1.00  0.00    -0.269 OA
HETATM    4  H   UNL     1       6.371  25.634  50.214  1.00  0.00     0.192 HD
ENDROOT
BRANCH   1   5
HETATM    5  N   UNL     1       5.980  25.115  52.124  1.00  0.00    -0.184 NA
HETATM    6  C   UNL     1       7.064  25.201  52.827  1.00  0.00     0.152 C 
BRANCH   6   7
HETATM    7  C   UNL     1       7.249  24.331  53.973  1.00  0.00     0.011 A 
HETATM    8  C   UNL     1       7.641  22.953  53.948  1.00  0.00     0.004 A 
HETATM    9  C   UNL     1       7.941  22.033  52.919  1.00  0.00     0.014 A 
HETATM   10  C   UNL     1       7.708  22.513  55.271  1.00  0.00     0.043 A 
HETATM   11  C   UNL     1       8.296  20.720  53.248  1.00  0.00     0.001 A 
HETATM   12  C   UNL     1       8.359  20.315  54.578  1.00  0.00     0.002 A 
HETATM   13  C   UNL     1       8.065  21.204  55.616  1.00  0.00     0.030 A 
HETATM   14  N   UNL     1       7.367  23.579  56.070  1.00  0.00    -0.364 N 
HETATM   15  H   UNL     1       7.329  23.550  57.079  1.00  0.00     0.165 HD
HETATM   16  C   UNL     1       7.085  24.676  55.301  1.00  0.00     0.102 A 
ENDBRANCH   6   7
ENDBRANCH   1   5
BRANCH   2  17
HETATM   17  C   UNL     1       5.331  27.859  49.629  1.00  0.00     0.280 C 
BRANCH  17  18
HETATM   18  O   UNL     1       4.843  26.947  48.651  1.00  0.00    -0.340 OA
BRANCH  18  19
HETATM   19  C   UNL     1       3.648  27.259  48.052  1.00  0.00     0.092 A 
HETATM   20  C   UNL     1       2.732  26.210  47.872  1.00  0.00     0.069 A 
HETATM   21 CL   UNL     1       3.110  24.598  48.366  1.00  0.00    -0.081 Cl
HETATM   22  C   UNL     1       1.488  26.441  47.277  1.00  0.00     0.052 A 
HETATM   23  C   UNL     1       1.141  27.727  46.864  1.00  0.00     0.057 A 
HETATM   24 CL   UNL     1      -0.409  27.950  46.135  1.00  0.00    -0.082 Cl
HETATM   25  C   UNL     1       2.040  28.782  47.050  1.00  0.00     0.058 A 
HETATM   26 CL   UNL     1       1.673  30.404  46.577  1.00  0.00    -0.082 Cl
HETATM   27  C   UNL     1       3.288  28.548  47.643  1.00  0.00     0.064 A 
ENDBRANCH  18  19
ENDBRANCH  17  18
ENDBRANCH   2  17
TORSDOF 5
ENDMDL
MODEL 6
REMARK VINA RESULT:      -9.0      2.040      2.951
REMARK  5 active torsions:
REMARK  status: ('A' for Active; 'I' for Inactive)
REMARK    1  A    between atoms: C_8  and  C_9 
REMARK    2  A    between atoms: N_10  and  N_11 
REMARK       I    between atoms: N_11  and  C_12 
REMARK    3  A    between atoms: C_12  and  C_13 
REMARK    4  A    between atoms: C_13  and  O_14 
REMARK    5  A    between atoms: O_14  and  C_15 
ROOT
HETATM    1  N   UNL     1       6.305  26.308  57.000  1.00  0.00    -0.246 N 
HETATM    2  C   UNL     1       6.247  27.307  56.037  1.00  0.00     0.261 C 
HETATM    3  O   UNL     1       6.459  27.171  54.833  1.00  0.00    -0.269 OA
HETATM    4  H   UNL     1       5.870  26.513  57.899  1.00  0.00     0.192 HD
ENDROOT
BRANCH   1   5
HETATM    5  N   UNL     1       6.537  24.972  56.782  1.00  0.00    -0.184 NA
HETATM    6  C   UNL     1       7.759  24.547  56.728  1.00  0.00     0.152 C 
BRANCH   6   7
HETATM    7  C   UNL     1       8.023  23.144  56.473  1.00  0.00     0.011 A 
HETATM    8  C   UNL     1       8.024  22.489  55.199  1.00  0.00     0.004 A 
HETATM    9  C   UNL     1       7.781  22.914  53.874  1.00  0.00     0.014 A 
HETATM   10  C   UNL     1       8.338  21.147  55.417  1.00  0.00     0.043 A 
HETATM   11  C   UNL     1       7.864  21.990  52.826  1.00  0.00     0.001 A 
HETATM   12  C   UNL     1       8.184  20.660  53.078  1.00  0.00     0.002 A 
HETATM   13  C   UNL     1       8.427  20.211  54.379  1.00  0.00     0.030 A 
HETATM   14  N   UNL     1       8.516  20.988  56.772  1.00  0.00    -0.364 N 
HETATM   15  H   UNL     1       8.752  20.114  57.220  1.00  0.00     0.165 HD
HETATM   16  C   UNL     1       8.326  22.181  57.417  1.00  0.00     0.102 A 
ENDBRANCH   6   7
ENDBRANCH   1   5
BRANCH   2  17
HETATM   17  C   UNL     1       5.964  28.689  56.624  1.00  0.00     0.280 C 
BRANCH  17  18
HETATM   18  O   UNL     1       7.080  29.563  56.495  1.00  0.00    -0.340 OA
BRANCH  18  19
HETATM   19  C   UNL     1       7.545  30.150  57.645  1.00  0.00     0.092 A 
HETATM   20  C   UNL     1       8.895  29.936  57.970  1.00  0.00     0.069 A 
HETATM   21 CL   UNL     1       9.910  28.956  56.972  1.00  0.00    -0.081 Cl
HETATM   22  C   UNL     1       9.453  30.503  59.119  1.00  0.00     0.052 A 
HETATM   23  C   UNL     1       8.670  31.302  59.952  1.00  0.00     0.057 A 
HETATM   24 CL   UNL     1       9.416  31.974  61.357  1.00  0.00    -0.082 Cl
HETATM   25  C   UNL     1       7.329  31.534  59.632  1.00  0.00     0.058 A 
HETATM   26 CL   UNL     1       6.303  32.524  60.609  1.00  0.00    -0.082 Cl
HETATM   27  C   UNL     1       6.770  30.962  58.482  1.00  0.00     0.064 A 
ENDBRANCH  18  19
ENDBRANCH  17  18
ENDBRANCH   2  17
TORSDOF 5
ENDMDL
MODEL 7
REMARK VINA RESULT:      -8.7      1.555      2.708
REMARK  5 active torsions:
REMARK  status: ('A' for Active; 'I' for Inactive)
REMARK    1  A    between atoms: C_8  and  C_9 
REMARK    2  A    between atoms: N_10  and  N_11 
REMARK       I    between atoms: N_11  and  C_12 
REMARK    3  A    between atoms: C_12  and  C_13 
REMARK    4  A    between atoms: C_13  and  O_14 
REMARK    5  A    between atoms: O_14  and  C_15 
ROOT
HETATM    1  N   UNL     1       7.780  29.201  56.157  1.00  0.00    -0.246 N 
HETATM    2  C   UNL     1       7.884  29.032  57.532  1.00  0.00     0.261 C 
HETATM    3  O   UNL     1       8.049  27.968  58.125  1.00  0.00    -0.269 OA
HETATM    4  H   UNL     1       7.894  30.150  55.802  1.00  0.00     0.192 HD
ENDROOT
BRANCH   1   5
HETATM    5  N   UNL     1       7.914  28.225  55.199  1.00  0.00    -0.184 NA
HETATM    6  C   UNL     1       6.891  27.486  54.909  1.00  0.00     0.152 C 
BRANCH   6   7
HETATM    7  C   UNL     1       7.021  26.433  53.919  1.00  0.00     0.011 A 
HETATM    8  C   UNL     1       7.490  25.098  54.143  1.00  0.00     0.004 A 
HETATM    9  C   UNL     1       7.959  24.397  55.275  1.00  0.00     0.014 A 
HETATM   10  C   UNL     1       7.439  24.426  52.921  1.00  0.00     0.043 A 
HETATM   11  C   UNL     1       8.354  23.061  55.146  1.00  0.00     0.001 A 
HETATM   12  C   UNL     1       8.286  22.418  53.913  1.00  0.00     0.002 A 
HETATM   13  C   UNL     1       7.827  23.089  52.775  1.00  0.00     0.030 A 
HETATM   14  N   UNL     1       6.963  25.318  51.988  1.00  0.00    -0.364 N 
HETATM   15  H   UNL     1       6.822  25.104  51.011  1.00  0.00     0.165 HD
HETATM   16  C   UNL     1       6.712  26.529  52.575  1.00  0.00     0.102 A 
ENDBRANCH   6   7
ENDBRANCH   1   5
BRANCH   2  17
HETATM   17  C   UNL     1       7.686  30.332  58.311  1.00  0.00     0.280 C 
BRANCH  17  18
HETATM   18  O   UNL     1       8.204  30.246  59.634  1.00  0.00    -0.340 OA
BRANCH  18  19
HETATM   19  C   UNL     1       7.758  31.179  60.537  1.00  0.00     0.092 A 
HETATM   20  C   UNL     1       8.430  31.245  61.768  1.00  0.00     0.069 A 
HETATM   21 CL   UNL     1       9.743  30.181  62.130  1.00  0.00    -0.081 Cl
HETATM   22  C   UNL     1       8.047  32.171  62.743  1.00  0.00     0.052 A 
HETATM   23  C   UNL     1       6.994  33.051  62.493  1.00  0.00     0.057 A 
HETATM   24 CL   UNL     1       6.567  34.171  63.736  1.00  0.00    -0.082 Cl
HETATM   25  C   UNL     1       6.326  33.003  61.265  1.00  0.00     0.058 A 
HETATM   26 CL   UNL     1       5.022  34.070  60.880  1.00  0.00    -0.082 Cl
HETATM   27  C   UNL     1       6.709  32.072  60.291  1.00  0.00     0.064 A 
ENDBRANCH  18  19
ENDBRANCH  17  18
ENDBRANCH   2  17
TORSDOF 5
ENDMDL
MODEL 8
REMARK VINA RESULT:      -8.5      6.497      9.367
REMARK  5 active torsions:
REMARK  status: ('A' for Active; 'I' for Inactive)
REMARK    1  A    between atoms: C_8  and  C_9 
REMARK    2  A    between atoms: N_10  and  N_11 
REMARK       I    between atoms: N_11  and  C_12 
REMARK    3  A    between atoms: C_12  and  C_13 
REMARK    4  A    between atoms: C_13  and  O_14 
REMARK    5  A    between atoms: O_14  and  C_15 
ROOT
HETATM    1  N   UNL     1       5.947  25.577  51.994  1.00  0.00    -0.246 N 
HETATM    2  C   UNL     1       5.577  26.916  51.959  1.00  0.00     0.261 C 
HETATM    3  O   UNL     1       5.374  27.641  52.931  1.00  0.00    -0.269 OA
HETATM    4  H   UNL     1       6.316  25.181  51.130  1.00  0.00     0.192 HD
ENDROOT
BRANCH   1   5
HETATM    5  N   UNL     1       6.227  24.833  53.114  1.00  0.00    -0.184 NA
HETATM    6  C   UNL     1       7.393  24.946  53.667  1.00  0.00     0.152 C 
BRANCH   6   7
HETATM    7  C   UNL     1       7.715  24.148  54.835  1.00  0.00     0.011 A 
HETATM    8  C   UNL     1       7.940  22.734  54.873  1.00  0.00     0.004 A 
HETATM    9  C   UNL     1       7.918  21.708  53.903  1.00  0.00     0.014 A 
HETATM   10  C   UNL     1       8.231  22.392  56.194  1.00  0.00     0.043 A 
HETATM   11  C   UNL     1       8.188  20.390  54.286  1.00  0.00     0.001 A 
HETATM   12  C   UNL     1       8.480  20.082  55.611  1.00  0.00     0.002 A 
HETATM   13  C   UNL     1       8.507  21.078  56.593  1.00  0.00     0.030 A 
HETATM   14  N   UNL     1       8.181  23.550  56.933  1.00  0.00    -0.364 N 
HETATM   15  H   UNL     1       8.350  23.603  57.928  1.00  0.00     0.165 HD
HETATM   16  C   UNL     1       7.868  24.612  56.128  1.00  0.00     0.102 A 
ENDBRANCH   6   7
ENDBRANCH   1   5
BRANCH   2  17
HETATM   17  C   UNL     1       5.345  27.436  50.541  1.00  0.00     0.280 C 
BRANCH  17  18
HETATM   18  O   UNL     1       4.169  28.233  50.450  1.00  0.00    -0.340 OA
BRANCH  18  19
HETATM   19  C   UNL     1       3.298  27.940  49.432  1.00  0.00     0.092 A 
HETATM   20  C   UNL     1       2.261  28.858  49.195  1.00  0.00     0.069 A 
HETATM   21 CL   UNL     1       2.087  30.279  50.164  1.00  0.00    -0.081 Cl
HETATM   22  C   UNL     1       1.333  28.642  48.173  1.00  0.00     0.052 A 
HETATM   23  C   UNL     1       1.437  27.509  47.366  1.00  0.00     0.057 A 
HETATM   24 CL   UNL     1       0.261  27.296  46.120  1.00  0.00    -0.082 Cl
HETATM   25  C   UNL     1       2.472  26.595  47.583  1.00  0.00     0.058 A 
HETATM   26 CL   UNL     1       2.672  25.177  46.614  1.00  0.00    -0.082 Cl
HETATM   27  C   UNL     1       3.400  26.811  48.611  1.00  0.00     0.064 A 
ENDBRANCH  18  19
ENDBRANCH  17  18
ENDBRANCH   2  17
TORSDOF 5
ENDMDL
MODEL 9
REMARK VINA RESULT:      -8.5      1.871      2.452
REMARK  5 active torsions:
REMARK  status: ('A' for Active; 'I' for Inactive)
REMARK    1  A    between atoms: C_8  and  C_9 
REMARK    2  A    between atoms: N_10  and  N_11 
REMARK       I    between atoms: N_11  and  C_12 
REMARK    3  A    between atoms: C_12  and  C_13 
REMARK    4  A    between atoms: C_13  and  O_14 
REMARK    5  A    between atoms: O_14  and  C_15 
ROOT
HETATM    1  N   UNL     1       7.518  27.269  56.189  1.00  0.00    -0.246 N 
HETATM    2  C   UNL     1       7.994  28.386  56.866  1.00  0.00     0.261 C 
HETATM    3  O   UNL     1       8.778  28.383  57.813  1.00  0.00    -0.269 OA
HETATM    4  H   UNL     1       7.078  27.435  55.284  1.00  0.00     0.192 HD
ENDROOT
BRANCH   1   5
HETATM    5  N   UNL     1       7.888  25.963  56.400  1.00  0.00    -0.184 NA
HETATM    6  C   UNL     1       7.523  25.062  55.545  1.00  0.00     0.152 C 
BRANCH   6   7
HETATM    7  C   UNL     1       7.883  23.674  55.765  1.00  0.00     0.011 A 
HETATM    8  C   UNL     1       7.979  22.645  54.772  1.00  0.00     0.004 A 
HETATM    9  C   UNL     1       7.766  22.602  53.377  1.00  0.00     0.014 A 
HETATM   10  C   UNL     1       8.364  21.472  55.421  1.00  0.00     0.043 A 
HETATM   11  C   UNL     1       7.950  21.397  52.688  1.00  0.00     0.001 A 
HETATM   12  C   UNL     1       8.340  20.246  53.364  1.00  0.00     0.002 A 
HETATM   13  C   UNL     1       8.555  20.260  54.746  1.00  0.00     0.030 A 
HETATM   14  N   UNL     1       8.495  21.772  56.757  1.00  0.00    -0.364 N 
HETATM   15  H   UNL     1       8.764  21.109  57.470  1.00  0.00     0.165 HD
HETATM   16  C   UNL     1       8.204  23.092  56.976  1.00  0.00     0.102 A 
ENDBRANCH   6   7
ENDBRANCH   1   5
BRANCH   2  17
HETATM   17  C   UNL     1       7.373  29.693  56.375  1.00  0.00     0.280 C 
BRANCH  17  18
HETATM   18  O   UNL     1       6.101  29.935  56.967  1.00  0.00    -0.340 OA
BRANCH  18  19
HETATM   19  C   UNL     1       6.058  30.842  57.996  1.00  0.00     0.092 A 
HETATM   20  C   UNL     1       4.796  31.346  58.349  1.00  0.00     0.069 A 
HETATM   21 CL   UNL     1       3.370  30.858  57.504  1.00  0.00    -0.081 Cl
HETATM   22  C   UNL     1       4.660  32.269  59.390  1.00  0.00     0.052 A 
HETATM   23  C   UNL     1       5.784  32.690  60.100  1.00  0.00     0.057 A 
HETATM   24 CL   UNL     1       5.553  33.831  61.375  1.00  0.00    -0.082 Cl
HETATM   25  C   UNL     1       7.045  32.184  59.767  1.00  0.00     0.058 A 
HETATM   26 CL   UNL     1       8.480  32.649  60.610  1.00  0.00    -0.082 Cl
HETATM   27  C   UNL     1       7.180  31.262  58.720  1.00  0.00     0.064 A 
ENDBRANCH  18  19
ENDBRANCH  17  18
ENDBRANCH   2  17
TORSDOF 5
ENDMDL
MODEL 10
REMARK VINA RESULT:      -8.4      6.627      9.379
REMARK  5 active torsions:
REMARK  status: ('A' for Active; 'I' for Inactive)
REMARK    1  A    between atoms: C_8  and  C_9 
REMARK    2  A    between atoms: N_10  and  N_11 
REMARK       I    between atoms: N_11  and  C_12 
REMARK    3  A    between atoms: C_12  and  C_13 
REMARK    4  A    between atoms: C_13  and  O_14 
REMARK    5  A    between atoms: O_14  and  C_15 
ROOT
HETATM    1  N   UNL     1       6.028  26.759  51.190  1.00  0.00    -0.246 N 
HETATM    2  C   UNL     1       5.735  26.264  52.455  1.00  0.00     0.261 C 
HETATM    3  O   UNL     1       4.614  26.046  52.909  1.00  0.00    -0.269 OA
HETATM    4  H   UNL     1       6.991  26.655  50.870  1.00  0.00     0.192 HD
ENDROOT
BRANCH   1   5
HETATM    5  N   UNL     1       5.130  27.027  50.187  1.00  0.00    -0.184 NA
HETATM    6  C   UNL     1       4.492  26.044  49.637  1.00  0.00     0.152 C 
BRANCH   6   7
HETATM    7  C   UNL     1       3.558  26.306  48.557  1.00  0.00     0.011 A 
HETATM    8  C   UNL     1       2.683  27.433  48.435  1.00  0.00     0.004 A 
HETATM    9  C   UNL     1       2.422  28.567  49.235  1.00  0.00     0.014 A 
HETATM   10  C   UNL     1       1.975  27.286  47.242  1.00  0.00     0.043 A 
HETATM   11  C   UNL     1       1.473  29.506  48.814  1.00  0.00     0.001 A 
HETATM   12  C   UNL     1       0.787  29.331  47.615  1.00  0.00     0.002 A 
HETATM   13  C   UNL     1       1.024  28.217  46.805  1.00  0.00     0.030 A 
HETATM   14  N   UNL     1       2.398  26.113  46.662  1.00  0.00    -0.364 N 
HETATM   15  H   UNL     1       2.053  25.750  45.784  1.00  0.00     0.165 HD
HETATM   16  C   UNL     1       3.347  25.513  47.445  1.00  0.00     0.102 A 
ENDBRANCH   6   7
ENDBRANCH   1   5
BRANCH   2  17
HETATM   17  C   UNL     1       6.976  26.075  53.326  1.00  0.00     0.280 C 
BRANCH  17  18
HETATM   18  O   UNL     1       6.658  25.508  54.593  1.00  0.00    -0.340 OA
BRANCH  18  19
HETATM   19  C   UNL     1       7.209  24.285  54.881  1.00  0.00     0.092 A 
HETATM   20  C   UNL     1       7.714  24.103  56.179  1.00  0.00     0.069 A 
HETATM   21 CL   UNL     1       7.660  25.377  57.347  1.00  0.00    -0.081 Cl
HETATM   22  C   UNL     1       8.286  22.886  56.561  1.00  0.00     0.052 A 
HETATM   23  C   UNL     1       8.349  21.831  55.651  1.00  0.00     0.057 A 
HETATM   24 CL   UNL     1       9.067  20.352  56.180  1.00  0.00    -0.082 Cl
HETATM   25  C   UNL     1       7.837  21.995  54.360  1.00  0.00     0.058 A 
HETATM   26 CL   UNL     1       7.868  20.728  53.185  1.00  0.00    -0.082 Cl
HETATM   27  C   UNL     1       7.268  23.217  53.978  1.00  0.00     0.064 A 
ENDBRANCH  18  19
ENDBRANCH  17  18
ENDBRANCH   2  17
TORSDOF 5
ENDMDL
