MODEL 1
REMARK VINA RESULT:     -10.4      0.000      0.000
REMARK  8 active torsions:
REMARK  status: ('A' for Active; 'I' for Inactive)
REMARK    1  A    between atoms: N_4  and  C_5 
REMARK    2  A    between atoms: C_5  and  C_6 
REMARK    3  A    between atoms: C_8  and  C_9 
REMARK       I    between atoms: C_9  and  N_17 
REMARK    4  A    between atoms: N_17  and  CA_18 
REMARK    5  A    between atoms: CA_18  and  C_19 
REMARK    6  A    between atoms: CA_18  and  CB_21 
REMARK    7  A    between atoms: C_19  and  O_20 
REMARK    8  A    between atoms: CB_21  and  CG_22 
ROOT
HETATM    1  C   UNK A   0       8.030  27.677  57.384  1.00  0.00     0.252 C 
HETATM    2  O   UNK A   0       7.780  26.965  58.352  1.00  0.00    -0.268 OA
ATOM      3  N   TRP A   1       7.504  27.440  56.132  1.00  0.00    -0.350 N 
ATOM      4  H   TRP A   1       7.643  28.102  55.384  1.00  0.00     0.163 HD
ENDROOT
BRANCH   3   5
ATOM      5  CA  TRP A   1       6.600  26.312  55.872  1.00  0.00     0.112 C 
BRANCH   5   6
ATOM      6  C   TRP A   1       5.220  26.828  55.423  1.00  0.00     0.189 C 
BRANCH   6   7
ATOM      7  O   TRP A   1       4.370  27.045  56.551  1.00  0.00    -0.399 OA
ATOM      8  H   TRP A   1       4.969  27.144  57.313  1.00  0.00     0.209 HD
ENDBRANCH   6   7
ENDBRANCH   5   6
BRANCH   5   9
ATOM      9  CB  TRP A   1       7.188  25.360  54.809  1.00  0.00     0.068 C 
BRANCH   9  10
ATOM     10  CG  TRP A   1       7.655  24.057  55.387  1.00  0.00    -0.028 A 
ATOM     11  CD2 TRP A   1       7.887  22.827  54.688  1.00  0.00    -0.002 A 
ATOM     12  CE2 TRP A   1       8.322  21.890  55.626  1.00  0.00     0.042 A 
ATOM     13  CE3 TRP A   1       7.769  22.420  53.343  1.00  0.00     0.014 A 
ATOM     14  CZ2 TRP A   1       8.649  20.571  55.287  1.00  0.00     0.030 A 
ATOM     15  NE1 TRP A   1       8.347  22.520  56.848  1.00  0.00    -0.365 N 
ATOM     16  CH2 TRP A   1       8.531  20.198  53.945  1.00  0.00     0.002 A 
ATOM     17  CZ3 TRP A   1       8.098  21.108  52.985  1.00  0.00     0.001 A 
ATOM     18  HE1 TRP A   1       8.624  22.079  57.713  1.00  0.00     0.165 HD
ATOM     19  CD1 TRP A   1       7.945  23.820  56.718  1.00  0.00     0.096 A 
ENDBRANCH   9  10
ENDBRANCH   5   9
ENDBRANCH   3   5
BRANCH   1  20
HETATM   20  C   UNK A   0       8.882  28.893  57.544  1.00  0.00     0.032 A 
HETATM   21  C   UNK A   0       8.678  29.832  58.563  1.00  0.00     0.026 A 
HETATM   22  C   UNK A   0       9.547  30.928  58.720  1.00  0.00    -0.037 A 
HETATM   23  C   UNK A   0      10.600  31.095  57.810  1.00  0.00     0.009 A 
HETATM   24  C   UNK A   0      10.787  30.183  56.771  1.00  0.00     0.002 A 
HETATM   25  C   UNK A   0       9.934  29.086  56.640  1.00  0.00     0.017 A 
BRANCH  22  26
HETATM   26  C   UNK A   0       9.338  31.902  59.855  1.00  0.00     0.189 C 
BRANCH  26  27
HETATM   27  N   UNK A   0       7.918  32.114  60.130  1.00  0.00    -0.270 N 
HETATM   28  N   UNK A   0       7.097  32.460  59.111  1.00  0.00    -0.177 NA
HETATM   29  C   UNK A   0       5.894  32.580  59.682  1.00  0.00     0.053 A 
HETATM   30  C   UNK A   0       4.706  32.947  58.878  1.00  0.00     0.072 C 
HETATM   31  C   UNK A   0       5.950  32.327  61.069  1.00  0.00     0.055 A 
HETATM   32  C   UNK A   0       7.270  32.032  61.338  1.00  0.00     0.029 A 
HETATM   33  C   UNK A   0       7.931  31.680  62.618  1.00  0.00     0.070 C 
ENDBRANCH  26  27
ENDBRANCH  22  26
ENDBRANCH   1  20
TORSDOF 8
ENDMDL
MODEL 2
REMARK VINA RESULT:      -9.5      1.725      2.593
REMARK  8 active torsions:
REMARK  status: ('A' for Active; 'I' for Inactive)
REMARK    1  A    between atoms: N_4  and  C_5 
REMARK    2  A    between atoms: C_5  and  C_6 
REMARK    3  A    between atoms: C_8  and  C_9 
REMARK       I    between atoms: C_9  and  N_17 
REMARK    4  A    between atoms: N_17  and  CA_18 
REMARK    5  A    between atoms: CA_18  and  C_19 
REMARK    6  A    between atoms: CA_18  and  CB_21 
REMARK    7  A    between atoms: C_19  and  O_20 
REMARK    8  A    between atoms: CB_21  and  CG_22 
ROOT
HETATM    1  C   UNK A   0       7.193  27.521  57.381  1.00  0.00     0.252 C 
HETATM    2  O   UNK A   0       7.922  26.814  58.071  1.00  0.00    -0.268 OA
ATOM      3  N   TRP A   1       6.521  27.040  56.278  1.00  0.00    -0.350 N 
ATOM      4  H   TRP A   1       5.848  27.617  55.796  1.00  0.00     0.163 HD
ENDROOT
BRANCH   3   5
ATOM      5  CA  TRP A   1       6.631  25.639  55.852  1.00  0.00     0.112 C 
BRANCH   5   6
ATOM      6  C   TRP A   1       5.324  25.183  55.178  1.00  0.00     0.189 C 
BRANCH   6   7
ATOM      7  O   TRP A   1       4.774  26.232  54.379  1.00  0.00    -0.399 OA
ATOM      8  H   TRP A   1       3.932  26.470  54.807  1.00  0.00     0.209 HD
ENDBRANCH   6   7
ENDBRANCH   5   6
BRANCH   5   9
ATOM      9  CB  TRP A   1       7.826  25.439  54.897  1.00  0.00     0.068 C 
BRANCH   9  10
ATOM     10  CG  TRP A   1       7.886  24.056  54.318  1.00  0.00    -0.028 A 
ATOM     11  CD2 TRP A   1       8.087  22.825  55.023  1.00  0.00    -0.002 A 
ATOM     12  CE2 TRP A   1       8.059  21.796  54.081  1.00  0.00     0.042 A 
ATOM     13  CE3 TRP A   1       8.290  22.485  56.376  1.00  0.00     0.014 A 
ATOM     14  CZ2 TRP A   1       8.217  20.447  54.423  1.00  0.00     0.030 A 
ATOM     15  NE1 TRP A   1       7.857  22.377  52.851  1.00  0.00    -0.365 N 
ATOM     16  CH2 TRP A   1       8.408  20.139  55.772  1.00  0.00     0.002 A 
ATOM     17  CZ3 TRP A   1       8.444  21.141  56.738  1.00  0.00     0.001 A 
ATOM     18  HE1 TRP A   1       7.793  21.868  51.981  1.00  0.00     0.165 HD
ATOM     19  CD1 TRP A   1       7.756  23.735  52.980  1.00  0.00     0.096 A 
ENDBRANCH   9  10
ENDBRANCH   5   9
ENDBRANCH   3   5
BRANCH   1  20
HETATM   20  C   UNK A   0       6.950  28.945  57.758  1.00  0.00     0.032 A 
HETATM   21  C   UNK A   0       7.866  29.698  58.503  1.00  0.00     0.026 A 
HETATM   22  C   UNK A   0       7.629  31.058  58.778  1.00  0.00    -0.037 A 
HETATM   23  C   UNK A   0       6.436  31.643  58.332  1.00  0.00     0.009 A 
HETATM   24  C   UNK A   0       5.503  30.889  57.621  1.00  0.00     0.002 A 
HETATM   25  C   UNK A   0       5.760  29.548  57.333  1.00  0.00     0.017 A 
BRANCH  22  26
HETATM   26  C   UNK A   0       8.653  31.864  59.542  1.00  0.00     0.189 C 
BRANCH  26  27
HETATM   27  N   UNK A   0       8.241  32.089  60.926  1.00  0.00    -0.270 N 
HETATM   28  N   UNK A   0       7.409  33.120  61.204  1.00  0.00    -0.177 NA
HETATM   29  C   UNK A   0       7.233  33.055  62.527  1.00  0.00     0.053 A 
HETATM   30  C   UNK A   0       6.363  34.030  63.225  1.00  0.00     0.072 C 
HETATM   31  C   UNK A   0       7.964  31.991  63.097  1.00  0.00     0.055 A 
HETATM   32  C   UNK A   0       8.613  31.382  62.044  1.00  0.00     0.029 A 
HETATM   33  C   UNK A   0       9.521  30.211  62.027  1.00  0.00     0.070 C 
ENDBRANCH  26  27
ENDBRANCH  22  26
ENDBRANCH   1  20
TORSDOF 8
ENDMDL
MODEL 3
REMARK VINA RESULT:      -9.5      1.990      9.865
REMARK  8 active torsions:
REMARK  status: ('A' for Active; 'I' for Inactive)
REMARK    1  A    between atoms: N_4  and  C_5 
REMARK    2  A    between atoms: C_5  and  C_6 
REMARK    3  A    between atoms: C_8  and  C_9 
REMARK       I    between atoms: C_9  and  N_17 
REMARK    4  A    between atoms: N_17  and  CA_18 
REMARK    5  A    between atoms: CA_18  and  C_19 
REMARK    6  A    between atoms: CA_18  and  CB_21 
REMARK    7  A    between atoms: C_19  and  O_20 
REMARK    8  A    between atoms: CB_21  and  CG_22 
ROOT
HETATM    1  C   UNK A   0       7.985  28.277  57.259  1.00  0.00     0.252 C 
HETATM    2  O   UNK A   0       8.028  27.582  58.269  1.00  0.00    -0.268 OA
ATOM      3  N   TRP A   1       8.453  29.573  57.228  1.00  0.00    -0.350 N 
ATOM      4  H   TRP A   1       8.501  30.081  56.358  1.00  0.00     0.163 HD
ENDROOT
BRANCH   3   5
ATOM      5  CA  TRP A   1       9.042  30.213  58.412  1.00  0.00     0.112 C 
BRANCH   5   6
ATOM      6  C   TRP A   1      10.318  30.980  58.023  1.00  0.00     0.189 C 
BRANCH   6   7
ATOM      7  O   TRP A   1      10.228  32.349  58.422  1.00  0.00    -0.399 OA
ATOM      8  H   TRP A   1       9.461  32.709  57.940  1.00  0.00     0.209 HD
ENDBRANCH   6   7
ENDBRANCH   5   6
BRANCH   5   9
ATOM      9  CB  TRP A   1       8.032  31.160  59.094  1.00  0.00     0.068 C 
BRANCH   9  10
ATOM     10  CG  TRP A   1       8.217  31.238  60.581  1.00  0.00    -0.028 A 
ATOM     11  CD2 TRP A   1       7.639  32.192  61.481  1.00  0.00    -0.002 A 
ATOM     12  CE2 TRP A   1       8.078  31.872  62.767  1.00  0.00     0.042 A 
ATOM     13  CE3 TRP A   1       6.782  33.301  61.326  1.00  0.00     0.014 A 
ATOM     14  CZ2 TRP A   1       7.700  32.598  63.903  1.00  0.00     0.030 A 
ATOM     15  NE1 TRP A   1       8.897  30.772  62.653  1.00  0.00    -0.365 N 
ATOM     16  CH2 TRP A   1       6.843  33.687  63.721  1.00  0.00     0.002 A 
ATOM     17  CZ3 TRP A   1       6.388  34.035  62.452  1.00  0.00     0.001 A 
ATOM     18  HE1 TRP A   1       9.358  30.320  63.430  1.00  0.00     0.165 HD
ATOM     19  CD1 TRP A   1       8.990  30.384  61.345  1.00  0.00     0.096 A 
ENDBRANCH   9  10
ENDBRANCH   5   9
ENDBRANCH   3   5
BRANCH   1  20
HETATM   20  C   UNK A   0       7.470  27.710  55.977  1.00  0.00     0.032 A 
HETATM   21  C   UNK A   0       7.018  26.390  55.860  1.00  0.00     0.026 A 
HETATM   22  C   UNK A   0       6.476  25.917  54.650  1.00  0.00    -0.037 A 
HETATM   23  C   UNK A   0       6.435  26.774  53.543  1.00  0.00     0.009 A 
HETATM   24  C   UNK A   0       6.917  28.079  53.642  1.00  0.00     0.002 A 
HETATM   25  C   UNK A   0       7.430  28.546  54.854  1.00  0.00     0.017 A 
BRANCH  22  26
HETATM   26  C   UNK A   0       5.950  24.503  54.560  1.00  0.00     0.189 C 
BRANCH  26  27
HETATM   27  N   UNK A   0       7.032  23.522  54.576  1.00  0.00    -0.270 N 
HETATM   28  N   UNK A   0       7.220  22.770  55.687  1.00  0.00    -0.177 NA
HETATM   29  C   UNK A   0       8.265  21.993  55.388  1.00  0.00     0.053 A 
HETATM   30  C   UNK A   0       8.781  21.007  56.365  1.00  0.00     0.072 C 
HETATM   31  C   UNK A   0       8.755  22.259  54.092  1.00  0.00     0.055 A 
HETATM   32  C   UNK A   0       7.946  23.254  53.586  1.00  0.00     0.029 A 
HETATM   33  C   UNK A   0       7.975  23.936  52.270  1.00  0.00     0.070 C 
ENDBRANCH  26  27
ENDBRANCH  22  26
ENDBRANCH   1  20
TORSDOF 8
ENDMDL
MODEL 4
REMARK VINA RESULT:      -9.3      1.370      2.269
REMARK  8 active torsions:
REMARK  status: ('A' for Active; 'I' for Inactive)
REMARK    1  A    between atoms: N_4  and  C_5 
REMARK    2  A    between atoms: C_5  and  C_6 
REMARK    3  A    between atoms: C_8  and  C_9 
REMARK       I    between atoms: C_9  and  N_17 
REMARK    4  A    between atoms: N_17  and  CA_18 
REMARK    5  A    between atoms: CA_18  and  C_19 
REMARK    6  A    between atoms: CA_18  and  CB_21 
REMARK    7  A    between atoms: C_19  and  O_20 
REMARK    8  A    between atoms: CB_21  and  CG_22 
ROOT
HETATM    1  C   UNK A   0       6.367  28.313  57.012  1.00  0.00     0.252 C 
HETATM    2  O   UNK A   0       5.238  27.968  57.349  1.00  0.00    -0.268 OA
ATOM      3  N   TRP A   1       7.031  27.743  55.948  1.00  0.00    -0.350 N 
ATOM      4  H   TRP A   1       7.912  28.120  55.631  1.00  0.00     0.163 HD
ENDROOT
BRANCH   3   5
ATOM      5  CA  TRP A   1       6.427  26.677  55.137  1.00  0.00     0.112 C 
BRANCH   5   6
ATOM      6  C   TRP A   1       5.560  27.285  54.020  1.00  0.00     0.189 C 
BRANCH   6   7
ATOM      7  O   TRP A   1       4.203  27.418  54.447  1.00  0.00    -0.399 OA
ATOM      8  H   TRP A   1       3.993  26.585  54.907  1.00  0.00     0.209 HD
ENDBRANCH   6   7
ENDBRANCH   5   6
BRANCH   5   9
ATOM      9  CB  TRP A   1       7.507  25.753  54.536  1.00  0.00     0.068 C 
BRANCH   9  10
ATOM     10  CG  TRP A   1       7.713  24.499  55.334  1.00  0.00    -0.028 A 
ATOM     11  CD2 TRP A   1       7.827  23.160  54.836  1.00  0.00    -0.002 A 
ATOM     12  CE2 TRP A   1       8.021  22.322  55.936  1.00  0.00     0.042 A 
ATOM     13  CE3 TRP A   1       7.786  22.577  53.553  1.00  0.00     0.014 A 
ATOM     14  CZ2 TRP A   1       8.179  20.936  55.817  1.00  0.00     0.030 A 
ATOM     15  NE1 TRP A   1       8.016  23.117  57.058  1.00  0.00    -0.365 N 
ATOM     16  CH2 TRP A   1       8.142  20.387  54.532  1.00  0.00     0.002 A 
ATOM     17  CZ3 TRP A   1       7.948  21.194  53.415  1.00  0.00     0.001 A 
ATOM     18  HE1 TRP A   1       8.136  22.776  58.001  1.00  0.00     0.165 HD
ATOM     19  CD1 TRP A   1       7.829  24.426  56.710  1.00  0.00     0.096 A 
ENDBRANCH   9  10
ENDBRANCH   5   9
ENDBRANCH   3   5
BRANCH   1  20
HETATM   20  C   UNK A   0       7.053  29.434  57.720  1.00  0.00     0.032 A 
HETATM   21  C   UNK A   0       6.369  30.557  58.203  1.00  0.00     0.026 A 
HETATM   22  C   UNK A   0       7.044  31.559  58.924  1.00  0.00    -0.037 A 
HETATM   23  C   UNK A   0       8.427  31.442  59.117  1.00  0.00     0.009 A 
HETATM   24  C   UNK A   0       9.121  30.344  58.607  1.00  0.00     0.002 A 
HETATM   25  C   UNK A   0       8.437  29.344  57.914  1.00  0.00     0.017 A 
BRANCH  22  26
HETATM   26  C   UNK A   0       6.278  32.737  59.478  1.00  0.00     0.189 C 
BRANCH  26  27
HETATM   27  N   UNK A   0       6.159  32.669  60.933  1.00  0.00    -0.270 N 
HETATM   28  N   UNK A   0       7.251  32.917  61.694  1.00  0.00    -0.177 NA
HETATM   29  C   UNK A   0       6.818  32.773  62.950  1.00  0.00     0.053 A 
HETATM   30  C   UNK A   0       7.735  32.974  64.096  1.00  0.00     0.072 C 
HETATM   31  C   UNK A   0       5.453  32.417  62.992  1.00  0.00     0.055 A 
HETATM   32  C   UNK A   0       5.048  32.351  61.675  1.00  0.00     0.029 A 
HETATM   33  C   UNK A   0       3.721  32.027  61.097  1.00  0.00     0.070 C 
ENDBRANCH  26  27
ENDBRANCH  22  26
ENDBRANCH   1  20
TORSDOF 8
ENDMDL
MODEL 5
REMARK VINA RESULT:      -9.3      2.178      9.234
REMARK  8 active torsions:
REMARK  status: ('A' for Active; 'I' for Inactive)
REMARK    1  A    between atoms: N_4  and  C_5 
REMARK    2  A    between atoms: C_5  and  C_6 
REMARK    3  A    between atoms: C_8  and  C_9 
REMARK       I    between atoms: C_9  and  N_17 
REMARK    4  A    between atoms: N_17  and  CA_18 
REMARK    5  A    between atoms: CA_18  and  C_19 
REMARK    6  A    between atoms: CA_18  and  CB_21 
REMARK    7  A    between atoms: C_19  and  O_20 
REMARK    8  A    between atoms: CB_21  and  CG_22 
ROOT
HETATM    1  C   UNK A   0       5.339  30.387  57.456  1.00  0.00     0.252 C 
HETATM    2  O   UNK A   0       5.085  31.039  56.448  1.00  0.00    -0.268 OA
ATOM      3  N   TRP A   1       4.900  30.756  58.709  1.00  0.00    -0.350 N 
ATOM      4  H   TRP A   1       5.035  30.145  59.501  1.00  0.00     0.163 HD
ENDROOT
BRANCH   3   5
ATOM      5  CA  TRP A   1       4.089  31.962  58.923  1.00  0.00     0.112 C 
BRANCH   5   6
ATOM      6  C   TRP A   1       3.041  31.711  60.022  1.00  0.00     0.189 C 
BRANCH   6   7
ATOM      7  O   TRP A   1       2.765  30.315  60.148  1.00  0.00    -0.399 OA
ATOM      8  H   TRP A   1       3.311  30.009  60.895  1.00  0.00     0.209 HD
ENDBRANCH   6   7
ENDBRANCH   5   6
BRANCH   5   9
ATOM      9  CB  TRP A   1       4.975  33.171  59.292  1.00  0.00     0.068 C 
BRANCH   9  10
ATOM     10  CG  TRP A   1       5.770  32.951  60.546  1.00  0.00    -0.028 A 
ATOM     11  CD2 TRP A   1       7.128  32.503  60.649  1.00  0.00    -0.002 A 
ATOM     12  CE2 TRP A   1       7.449  32.457  62.006  1.00  0.00     0.042 A 
ATOM     13  CE3 TRP A   1       8.117  32.133  59.716  1.00  0.00     0.014 A 
ATOM     14  CZ2 TRP A   1       8.708  32.065  62.477  1.00  0.00     0.030 A 
ATOM     15  NE1 TRP A   1       6.330  32.852  62.702  1.00  0.00    -0.365 N 
ATOM     16  CH2 TRP A   1       9.673  31.711  61.529  1.00  0.00     0.002 A 
ATOM     17  CZ3 TRP A   1       9.384  31.744  60.167  1.00  0.00     0.001 A 
ATOM     18  HE1 TRP A   1       6.275  32.914  63.709  1.00  0.00     0.165 HD
ATOM     19  CD1 TRP A   1       5.314  33.148  61.836  1.00  0.00     0.096 A 
ENDBRANCH   9  10
ENDBRANCH   5   9
ENDBRANCH   3   5
BRANCH   1  20
HETATM   20  C   UNK A   0       6.098  29.106  57.352  1.00  0.00     0.032 A 
HETATM   21  C   UNK A   0       5.480  27.880  57.073  1.00  0.00     0.026 A 
HETATM   22  C   UNK A   0       6.242  26.707  56.915  1.00  0.00    -0.037 A 
HETATM   23  C   UNK A   0       7.631  26.771  57.086  1.00  0.00     0.009 A 
HETATM   24  C   UNK A   0       8.249  27.982  57.399  1.00  0.00     0.002 A 
HETATM   25  C   UNK A   0       7.487  29.143  57.529  1.00  0.00     0.017 A 
BRANCH  22  26
HETATM   26  C   UNK A   0       5.560  25.404  56.568  1.00  0.00     0.189 C 
BRANCH  26  27
HETATM   27  N   UNK A   0       6.129  24.800  55.366  1.00  0.00    -0.270 N 
HETATM   28  N   UNK A   0       6.977  23.752  55.496  1.00  0.00    -0.177 NA
HETATM   29  C   UNK A   0       7.315  23.442  54.241  1.00  0.00     0.053 A 
HETATM   30  C   UNK A   0       8.241  22.320  53.960  1.00  0.00     0.072 C 
HETATM   31  C   UNK A   0       6.696  24.302  53.309  1.00  0.00     0.055 A 
HETATM   32  C   UNK A   0       5.937  25.176  54.058  1.00  0.00     0.029 A 
HETATM   33  C   UNK A   0       5.066  26.296  53.631  1.00  0.00     0.070 C 
ENDBRANCH  26  27
ENDBRANCH  22  26
ENDBRANCH   1  20
TORSDOF 8
ENDMDL
MODEL 6
REMARK VINA RESULT:      -9.3      1.794      3.171
REMARK  8 active torsions:
REMARK  status: ('A' for Active; 'I' for Inactive)
REMARK    1  A    between atoms: N_4  and  C_5 
REMARK    2  A    between atoms: C_5  and  C_6 
REMARK    3  A    between atoms: C_8  and  C_9 
REMARK       I    between atoms: C_9  and  N_17 
REMARK    4  A    between atoms: N_17  and  CA_18 
REMARK    5  A    between atoms: CA_18  and  C_19 
REMARK    6  A    between atoms: CA_18  and  CB_21 
REMARK    7  A    between atoms: C_19  and  O_20 
REMARK    8  A    between atoms: CB_21  and  CG_22 
ROOT
HETATM    1  C   UNK A   0       5.369  27.442  56.011  1.00  0.00     0.252 C 
HETATM    2  O   UNK A   0       4.974  26.641  56.854  1.00  0.00    -0.268 OA
ATOM      3  N   TRP A   1       5.874  27.047  54.791  1.00  0.00    -0.350 N 
ATOM      4  H   TRP A   1       6.091  27.730  54.081  1.00  0.00     0.163 HD
ENDROOT
BRANCH   3   5
ATOM      5  CA  TRP A   1       5.973  25.631  54.414  1.00  0.00     0.112 C 
BRANCH   5   6
ATOM      6  C   TRP A   1       5.274  25.390  53.063  1.00  0.00     0.189 C 
BRANCH   6   7
ATOM      7  O   TRP A   1       3.858  25.524  53.195  1.00  0.00    -0.399 OA
ATOM      8  H   TRP A   1       3.512  24.614  53.212  1.00  0.00     0.209 HD
ENDBRANCH   6   7
ENDBRANCH   5   6
BRANCH   5   9
ATOM      9  CB  TRP A   1       7.445  25.174  54.346  1.00  0.00     0.068 C 
BRANCH   9  10
ATOM     10  CG  TRP A   1       7.793  24.168  55.404  1.00  0.00    -0.028 A 
ATOM     11  CD2 TRP A   1       7.960  22.754  55.240  1.00  0.00    -0.002 A 
ATOM     12  CE2 TRP A   1       8.291  22.226  56.488  1.00  0.00     0.042 A 
ATOM     13  CE3 TRP A   1       7.862  21.870  54.146  1.00  0.00     0.014 A 
ATOM     14  CZ2 TRP A   1       8.533  20.862  56.697  1.00  0.00     0.030 A 
ATOM     15  NE1 TRP A   1       8.317  23.274  57.379  1.00  0.00    -0.365 N 
ATOM     16  CH2 TRP A   1       8.437  20.010  55.594  1.00  0.00     0.002 A 
ATOM     17  CZ3 TRP A   1       8.107  20.504  54.335  1.00  0.00     0.001 A 
ATOM     18  HE1 TRP A   1       8.529  23.184  58.362  1.00  0.00     0.165 HD
ATOM     19  CD1 TRP A   1       8.016  24.445  56.740  1.00  0.00     0.096 A 
ENDBRANCH   9  10
ENDBRANCH   5   9
ENDBRANCH   3   5
BRANCH   1  20
HETATM   20  C   UNK A   0       5.253  28.910  56.257  1.00  0.00     0.032 A 
HETATM   21  C   UNK A   0       5.642  29.510  57.461  1.00  0.00     0.026 A 
HETATM   22  C   UNK A   0       5.581  30.906  57.626  1.00  0.00    -0.037 A 
HETATM   23  C   UNK A   0       5.081  31.692  56.579  1.00  0.00     0.009 A 
HETATM   24  C   UNK A   0       4.658  31.098  55.390  1.00  0.00     0.002 A 
HETATM   25  C   UNK A   0       4.746  29.714  55.229  1.00  0.00     0.017 A 
BRANCH  22  26
HETATM   26  C   UNK A   0       6.050  31.536  58.916  1.00  0.00     0.189 C 
BRANCH  26  27
HETATM   27  N   UNK A   0       7.507  31.529  59.023  1.00  0.00    -0.270 N 
HETATM   28  N   UNK A   0       8.234  30.948  58.039  1.00  0.00    -0.177 NA
HETATM   29  C   UNK A   0       9.503  31.103  58.431  1.00  0.00     0.053 A 
HETATM   30  C   UNK A   0      10.620  30.596  57.600  1.00  0.00     0.072 C 
HETATM   31  C   UNK A   0       9.586  31.769  59.672  1.00  0.00     0.055 A 
HETATM   32  C   UNK A   0       8.283  32.031  60.039  1.00  0.00     0.029 A 
HETATM   33  C   UNK A   0       7.745  32.711  61.242  1.00  0.00     0.070 C 
ENDBRANCH  26  27
ENDBRANCH  22  26
ENDBRANCH   1  20
TORSDOF 8
ENDMDL
MODEL 7
REMARK VINA RESULT:      -9.3      5.896      8.978
REMARK  8 active torsions:
REMARK  status: ('A' for Active; 'I' for Inactive)
REMARK    1  A    between atoms: N_4  and  C_5 
REMARK    2  A    between atoms: C_5  and  C_6 
REMARK    3  A    between atoms: C_8  and  C_9 
REMARK       I    between atoms: C_9  and  N_17 
REMARK    4  A    between atoms: N_17  and  CA_18 
REMARK    5  A    between atoms: CA_18  and  C_19 
REMARK    6  A    between atoms: CA_18  and  CB_21 
REMARK    7  A    between atoms: C_19  and  O_20 
REMARK    8  A    between atoms: CB_21  and  CG_22 
ROOT
HETATM    1  C   UNK A   0       5.580  27.960  52.171  1.00  0.00     0.252 C 
HETATM    2  O   UNK A   0       5.210  28.360  53.271  1.00  0.00    -0.268 OA
ATOM      3  N   TRP A   1       6.145  26.717  51.985  1.00  0.00    -0.350 N 
ATOM      4  H   TRP A   1       6.341  26.376  51.056  1.00  0.00     0.163 HD
ENDROOT
BRANCH   3   5
ATOM      5  CA  TRP A   1       6.343  25.780  53.099  1.00  0.00     0.112 C 
BRANCH   5   6
ATOM      6  C   TRP A   1       5.168  24.787  53.173  1.00  0.00     0.189 C 
BRANCH   6   7
ATOM      7  O   TRP A   1       3.924  25.481  53.281  1.00  0.00    -0.399 OA
ATOM      8  H   TRP A   1       3.387  24.955  53.900  1.00  0.00     0.209 HD
ENDBRANCH   6   7
ENDBRANCH   5   6
BRANCH   5   9
ATOM      9  CB  TRP A   1       7.679  25.021  52.959  1.00  0.00     0.068 C 
BRANCH   9  10
ATOM     10  CG  TRP A   1       7.958  24.110  54.118  1.00  0.00    -0.028 A 
ATOM     11  CD2 TRP A   1       8.139  22.688  54.084  1.00  0.00    -0.002 A 
ATOM     12  CE2 TRP A   1       8.386  22.268  55.392  1.00  0.00     0.042 A 
ATOM     13  CE3 TRP A   1       8.117  21.716  53.064  1.00  0.00     0.014 A 
ATOM     14  CZ2 TRP A   1       8.617  20.929  55.730  1.00  0.00     0.030 A 
ATOM     15  NE1 TRP A   1       8.349  23.387  56.191  1.00  0.00    -0.365 N 
ATOM     16  CH2 TRP A   1       8.598  19.988  54.697  1.00  0.00     0.002 A 
ATOM     17  CZ3 TRP A   1       8.352  20.373  53.382  1.00  0.00     0.001 A 
ATOM     18  HE1 TRP A   1       8.495  23.381  57.191  1.00  0.00     0.165 HD
ATOM     19  CD1 TRP A   1       8.089  24.499  55.438  1.00  0.00     0.096 A 
ENDBRANCH   9  10
ENDBRANCH   5   9
ENDBRANCH   3   5
BRANCH   1  20
HETATM   20  C   UNK A   0       5.367  28.799  50.955  1.00  0.00     0.032 A 
HETATM   21  C   UNK A   0       5.136  28.250  49.687  1.00  0.00     0.026 A 
HETATM   22  C   UNK A   0       4.872  29.077  48.579  1.00  0.00    -0.037 A 
HETATM   23  C   UNK A   0       4.887  30.468  48.751  1.00  0.00     0.009 A 
HETATM   24  C   UNK A   0       5.151  31.022  50.004  1.00  0.00     0.002 A 
HETATM   25  C   UNK A   0       5.388  30.191  51.101  1.00  0.00     0.017 A 
BRANCH  22  26
HETATM   26  C   UNK A   0       4.579  28.463  47.230  1.00  0.00     0.189 C 
BRANCH  26  27
HETATM   27  N   UNK A   0       3.173  28.089  47.101  1.00  0.00    -0.270 N 
HETATM   28  N   UNK A   0       2.264  29.046  46.797  1.00  0.00    -0.177 NA
HETATM   29  C   UNK A   0       1.098  28.394  46.757  1.00  0.00     0.053 A 
HETATM   30  C   UNK A   0      -0.161  29.108  46.441  1.00  0.00     0.072 C 
HETATM   31  C   UNK A   0       1.259  27.023  47.052  1.00  0.00     0.055 A 
HETATM   32  C   UNK A   0       2.609  26.849  47.276  1.00  0.00     0.029 A 
HETATM   33  C   UNK A   0       3.372  25.626  47.622  1.00  0.00     0.070 C 
ENDBRANCH  26  27
ENDBRANCH  22  26
ENDBRANCH   1  20
TORSDOF 8
ENDMDL
MODEL 8
REMARK VINA RESULT:      -9.2      1.709      2.554
REMARK  8 active torsions:
REMARK  status: ('A' for Active; 'I' for Inactive)
REMARK    1  A    between atoms: N_4  and  C_5 
REMARK    2  A    between atoms: C_5  and  C_6 
REMARK    3  A    between atoms: C_8  and  C_9 
REMARK       I    between atoms: C_9  and  N_17 
REMARK    4  A    between atoms: N_17  and  CA_18 
REMARK    5  A    between atoms: CA_18  and  C_19 
REMARK    6  A    between atoms: CA_18  and  CB_21 
REMARK    7  A    between atoms: C_19  and  O_20 
REMARK    8  A    between atoms: CB_21  and  CG_22 
ROOT
HETATM    1  C   UNK A   0       5.510  27.567  56.362  1.00  0.00     0.252 C 
HETATM    2  O   UNK A   0       4.972  26.698  57.041  1.00  0.00    -0.268 OA
ATOM      3  N   TRP A   1       5.980  27.331  55.089  1.00  0.00    -0.350 N 
ATOM      4  H   TRP A   1       6.321  28.090  54.518  1.00  0.00     0.163 HD
ENDROOT
BRANCH   3   5
ATOM      5  CA  TRP A   1       5.864  26.012  54.452  1.00  0.00     0.112 C 
BRANCH   5   6
ATOM      6  C   TRP A   1       4.997  26.108  53.184  1.00  0.00     0.189 C 
BRANCH   6   7
ATOM      7  O   TRP A   1       4.066  25.025  53.124  1.00  0.00    -0.399 OA
ATOM      8  H   TRP A   1       4.190  24.531  53.955  1.00  0.00     0.209 HD
ENDBRANCH   6   7
ENDBRANCH   5   6
BRANCH   5   9
ATOM      9  CB  TRP A   1       7.254  25.434  54.110  1.00  0.00     0.068 C 
BRANCH   9  10
ATOM     10  CG  TRP A   1       7.599  24.222  54.924  1.00  0.00    -0.028 A 
ATOM     11  CD2 TRP A   1       7.843  22.893  54.445  1.00  0.00    -0.002 A 
ATOM     12  CE2 TRP A   1       8.137  22.098  55.554  1.00  0.00     0.042 A 
ATOM     13  CE3 TRP A   1       7.844  22.288  53.172  1.00  0.00     0.014 A 
ATOM     14  CZ2 TRP A   1       8.436  20.734  55.454  1.00  0.00     0.030 A 
ATOM     15  NE1 TRP A   1       8.066  22.908  56.664  1.00  0.00    -0.365 N 
ATOM     16  CH2 TRP A   1       8.438  20.162  54.179  1.00  0.00     0.002 A 
ATOM     17  CZ3 TRP A   1       8.147  20.926  53.052  1.00  0.00     0.001 A 
ATOM     18  HE1 TRP A   1       8.233  22.597  57.610  1.00  0.00     0.165 HD
ATOM     19  CD1 TRP A   1       7.740  24.184  56.299  1.00  0.00     0.096 A 
ENDBRANCH   9  10
ENDBRANCH   5   9
ENDBRANCH   3   5
BRANCH   1  20
HETATM   20  C   UNK A   0       5.622  28.964  56.879  1.00  0.00     0.032 A 
HETATM   21  C   UNK A   0       6.664  29.381  57.716  1.00  0.00     0.026 A 
HETATM   22  C   UNK A   0       6.769  30.724  58.125  1.00  0.00    -0.037 A 
HETATM   23  C   UNK A   0       5.786  31.636  57.718  1.00  0.00     0.009 A 
HETATM   24  C   UNK A   0       4.725  31.219  56.915  1.00  0.00     0.002 A 
HETATM   25  C   UNK A   0       4.645  29.891  56.495  1.00  0.00     0.017 A 
BRANCH  22  26
HETATM   26  C   UNK A   0       7.929  31.163  58.988  1.00  0.00     0.189 C 
BRANCH  26  27
HETATM   27  N   UNK A   0       7.500  31.481  60.348  1.00  0.00    -0.270 N 
HETATM   28  N   UNK A   0       6.346  32.166  60.529  1.00  0.00    -0.177 NA
HETATM   29  C   UNK A   0       6.243  32.297  61.855  1.00  0.00     0.053 A 
HETATM   30  C   UNK A   0       5.086  32.996  62.461  1.00  0.00     0.072 C 
HETATM   31  C   UNK A   0       7.339  31.709  62.521  1.00  0.00     0.055 A 
HETATM   32  C   UNK A   0       8.142  31.191  61.527  1.00  0.00     0.029 A 
HETATM   33  C   UNK A   0       9.427  30.458  61.619  1.00  0.00     0.070 C 
ENDBRANCH  26  27
ENDBRANCH  22  26
ENDBRANCH   1  20
TORSDOF 8
ENDMDL
MODEL 9
REMARK VINA RESULT:      -9.0      6.675      8.954
REMARK  8 active torsions:
REMARK  status: ('A' for Active; 'I' for Inactive)
REMARK    1  A    between atoms: N_4  and  C_5 
REMARK    2  A    between atoms: C_5  and  C_6 
REMARK    3  A    between atoms: C_8  and  C_9 
REMARK       I    between atoms: C_9  and  N_17 
REMARK    4  A    between atoms: N_17  and  CA_18 
REMARK    5  A    between atoms: CA_18  and  C_19 
REMARK    6  A    between atoms: CA_18  and  CB_21 
REMARK    7  A    between atoms: C_19  and  O_20 
REMARK    8  A    between atoms: CB_21  and  CG_22 
ROOT
HETATM    1  C   UNK A   0       5.207  27.563  50.990  1.00  0.00     0.252 C 
HETATM    2  O   UNK A   0       4.708  28.058  51.996  1.00  0.00    -0.268 OA
ATOM      3  N   TRP A   1       5.933  26.392  51.019  1.00  0.00    -0.350 N 
ATOM      4  H   TRP A   1       6.239  25.956  50.162  1.00  0.00     0.163 HD
ENDROOT
BRANCH   3   5
ATOM      5  CA  TRP A   1       6.158  25.651  52.267  1.00  0.00     0.112 C 
BRANCH   5   6
ATOM      6  C   TRP A   1       4.992  24.680  52.527  1.00  0.00     0.189 C 
BRANCH   6   7
ATOM      7  O   TRP A   1       3.949  25.326  53.261  1.00  0.00    -0.399 OA
ATOM      8  H   TRP A   1       4.402  25.866  53.934  1.00  0.00     0.209 HD
ENDBRANCH   6   7
ENDBRANCH   5   6
BRANCH   5   9
ATOM      9  CB  TRP A   1       7.496  24.884  52.226  1.00  0.00     0.068 C 
BRANCH   9  10
ATOM     10  CG  TRP A   1       7.796  24.163  53.508  1.00  0.00    -0.028 A 
ATOM     11  CD2 TRP A   1       7.999  22.756  53.688  1.00  0.00    -0.002 A 
ATOM     12  CE2 TRP A   1       8.261  22.543  55.042  1.00  0.00     0.042 A 
ATOM     13  CE3 TRP A   1       7.987  21.639  52.827  1.00  0.00     0.014 A 
ATOM     14  CZ2 TRP A   1       8.515  21.274  55.577  1.00  0.00     0.030 A 
ATOM     15  NE1 TRP A   1       8.210  23.769  55.663  1.00  0.00    -0.365 N 
ATOM     16  CH2 TRP A   1       8.505  20.186  54.700  1.00  0.00     0.002 A 
ATOM     17  CZ3 TRP A   1       8.245  20.364  53.343  1.00  0.00     0.001 A 
ATOM     18  HE1 TRP A   1       8.362  23.917  56.651  1.00  0.00     0.165 HD
ATOM     19  CD1 TRP A   1       7.929  24.749  54.752  1.00  0.00     0.096 A 
ENDBRANCH   9  10
ENDBRANCH   5   9
ENDBRANCH   3   5
BRANCH   1  20
HETATM   20  C   UNK A   0       4.986  28.193  49.654  1.00  0.00     0.032 A 
HETATM   21  C   UNK A   0       4.553  29.516  49.501  1.00  0.00     0.026 A 
HETATM   22  C   UNK A   0       4.424  30.091  48.224  1.00  0.00    -0.037 A 
HETATM   23  C   UNK A   0       4.693  29.305  47.095  1.00  0.00     0.009 A 
HETATM   24  C   UNK A   0       5.090  27.976  47.238  1.00  0.00     0.002 A 
HETATM   25  C   UNK A   0       5.238  27.423  48.511  1.00  0.00     0.017 A 
BRANCH  22  26
HETATM   26  C   UNK A   0       4.001  31.534  48.084  1.00  0.00     0.189 C 
BRANCH  26  27
HETATM   27  N   UNK A   0       5.046  32.346  47.463  1.00  0.00    -0.270 N 
HETATM   28  N   UNK A   0       6.004  32.893  48.248  1.00  0.00    -0.177 NA
HETATM   29  C   UNK A   0       6.787  33.562  47.395  1.00  0.00     0.053 A 
HETATM   30  C   UNK A   0       7.974  34.304  47.878  1.00  0.00     0.072 C 
HETATM   31  C   UNK A   0       6.319  33.456  46.068  1.00  0.00     0.055 A 
HETATM   32  C   UNK A   0       5.189  32.668  46.136  1.00  0.00     0.029 A 
HETATM   33  C   UNK A   0       4.276  32.210  45.062  1.00  0.00     0.070 C 
ENDBRANCH  26  27
ENDBRANCH  22  26
ENDBRANCH   1  20
TORSDOF 8
ENDMDL
MODEL 10
REMARK VINA RESULT:      -9.0      2.258      9.644
REMARK  8 active torsions:
REMARK  status: ('A' for Active; 'I' for Inactive)
REMARK    1  A    between atoms: N_4  and  C_5 
REMARK    2  A    between atoms: C_5  and  C_6 
REMARK    3  A    between atoms: C_8  and  C_9 
REMARK       I    between atoms: C_9  and  N_17 
REMARK    4  A    between atoms: N_17  and  CA_18 
REMARK    5  A    between atoms: CA_18  and  C_19 
REMARK    6  A    between atoms: CA_18  and  CB_21 
REMARK    7  A    between atoms: C_19  and  O_20 
REMARK    8  A    between atoms: CB_21  and  CG_22 
ROOT
HETATM    1  C   UNK A   0       5.415  29.820  56.974  1.00  0.00     0.252 C 
HETATM    2  O   UNK A   0       5.183  30.472  55.961  1.00  0.00    -0.268 OA
ATOM      3  N   TRP A   1       5.114  30.279  58.238  1.00  0.00    -0.350 N 
ATOM      4  H   TRP A   1       5.219  29.677  59.042  1.00  0.00     0.163 HD
ENDROOT
BRANCH   3   5
ATOM      5  CA  TRP A   1       4.487  31.589  58.459  1.00  0.00     0.112 C 
BRANCH   5   6
ATOM      6  C   TRP A   1       3.508  31.518  59.644  1.00  0.00     0.189 C 
BRANCH   6   7
ATOM      7  O   TRP A   1       2.953  30.207  59.765  1.00  0.00    -0.399 OA
ATOM      8  H   TRP A   1       3.563  29.622  59.280  1.00  0.00     0.209 HD
ENDBRANCH   6   7
ENDBRANCH   5   6
BRANCH   5   9
ATOM      9  CB  TRP A   1       5.550  32.680  58.705  1.00  0.00     0.068 C 
BRANCH   9  10
ATOM     10  CG  TRP A   1       6.609  32.255  59.680  1.00  0.00    -0.028 A 
ATOM     11  CD2 TRP A   1       6.746  32.661  61.048  1.00  0.00    -0.002 A 
ATOM     12  CE2 TRP A   1       7.865  32.007  61.566  1.00  0.00     0.042 A 
ATOM     13  CE3 TRP A   1       6.025  33.523  61.898  1.00  0.00     0.014 A 
ATOM     14  CZ2 TRP A   1       8.294  32.166  62.889  1.00  0.00     0.030 A 
ATOM     15  NE1 TRP A   1       8.392  31.240  60.553  1.00  0.00    -0.365 N 
ATOM     16  CH2 TRP A   1       7.555  33.021  63.712  1.00  0.00     0.002 A 
ATOM     17  CZ3 TRP A   1       6.436  33.690  63.226  1.00  0.00     0.001 A 
ATOM     18  HE1 TRP A   1       9.211  30.656  60.644  1.00  0.00     0.165 HD
ATOM     19  CD1 TRP A   1       7.649  31.384  59.414  1.00  0.00     0.096 A 
ENDBRANCH   9  10
ENDBRANCH   5   9
ENDBRANCH   3   5
BRANCH   1  20
HETATM   20  C   UNK A   0       5.987  28.445  56.869  1.00  0.00     0.032 A 
HETATM   21  C   UNK A   0       5.420  27.447  56.066  1.00  0.00     0.026 A 
HETATM   22  C   UNK A   0       6.031  26.186  55.942  1.00  0.00    -0.037 A 
HETATM   23  C   UNK A   0       7.197  25.921  56.672  1.00  0.00     0.009 A 
HETATM   24  C   UNK A   0       7.747  26.898  57.503  1.00  0.00     0.002 A 
HETATM   25  C   UNK A   0       7.147  28.154  57.599  1.00  0.00     0.017 A 
BRANCH  22  26
HETATM   26  C   UNK A   0       5.429  25.140  55.032  1.00  0.00     0.189 C 
BRANCH  26  27
HETATM   27  N   UNK A   0       6.432  24.549  54.150  1.00  0.00    -0.270 N 
HETATM   28  N   UNK A   0       6.991  23.364  54.494  1.00  0.00    -0.177 NA
HETATM   29  C   UNK A   0       7.851  23.105  53.504  1.00  0.00     0.053 A 
HETATM   30  C   UNK A   0       8.667  21.869  53.513  1.00  0.00     0.072 C 
HETATM   31  C   UNK A   0       7.853  24.132  52.536  1.00  0.00     0.055 A 
HETATM   32  C   UNK A   0       6.931  25.058  52.976  1.00  0.00     0.029 A 
HETATM   33  C   UNK A   0       6.501  26.342  52.373  1.00  0.00     0.070 C 
ENDBRANCH  26  27
ENDBRANCH  22  26
ENDBRANCH   1  20
TORSDOF 8
ENDMDL
