MODEL 1
REMARK VINA RESULT:     -11.1      0.000      0.000
REMARK  7 active torsions:
REMARK  status: ('A' for Active; 'I' for Inactive)
REMARK    1  A    between atoms: C_2  and  C_3 
REMARK    2  A    between atoms: C_6  and  C_7 
REMARK    3  A    between atoms: C_10  and  C_11 
REMARK       I    between atoms: C_11  and  N_12 
REMARK    4  A    between atoms: N_12  and  C_13 
REMARK    5  A    between atoms: C_25  and  C_26 
REMARK       I    between atoms: C_26  and  N_27 
REMARK    6  A    between atoms: N_27  and  C_28 
REMARK    7  A    between atoms: C_31  and  O_32 
ROOT
HETATM    1  C   UNL     1       7.486  28.475  55.540  1.00  0.00     0.185 C 
HETATM    2  N   UNL     1       8.195  29.222  56.593  1.00  0.00    -0.239 N 
HETATM    3  C   UNL     1       7.598  30.146  57.419  1.00  0.00     0.142 C 
HETATM    4  C   UNL     1       8.595  30.619  58.248  1.00  0.00     0.097 C 
HETATM    5  C   UNL     1       9.774  30.022  57.731  1.00  0.00     0.160 C 
HETATM    6  N   UNL     1       9.542  29.199  56.703  1.00  0.00    -0.181 NA
HETATM    7  N   UNL     1       6.280  30.427  57.253  1.00  0.00    -0.343 N 
HETATM    8  C   UNL     1       5.527  29.903  56.199  1.00  0.00     0.021 C 
HETATM    9  C   UNL     1       4.123  30.445  56.061  1.00  0.00     0.069 C 
HETATM   10  C   UNL     1       6.068  28.987  55.358  1.00  0.00     0.061 C 
HETATM   11  H   UNL     1       5.861  31.240  57.706  1.00  0.00     0.167 HD
ENDROOT
BRANCH  10  12
HETATM   12  C   UNL     1       5.258  28.382  54.265  1.00  0.00     0.256 C 
HETATM   13  N   UNL     1       5.761  28.646  53.008  1.00  0.00    -0.323 N 
HETATM   14  H   UNL     1       6.581  29.231  52.940  1.00  0.00     0.169 HD
HETATM   15  O   UNL     1       4.250  27.744  54.544  1.00  0.00    -0.267 OA
BRANCH  13  16
HETATM   16  C   UNL     1       5.230  28.224  51.770  1.00  0.00     0.035 A 
HETATM   17  C   UNL     1       4.494  29.041  50.913  1.00  0.00     0.032 A 
HETATM   18  C   UNL     1       4.032  28.545  49.687  1.00  0.00     0.039 A 
HETATM   19  C   UNL     1       4.299  27.232  49.300  1.00  0.00     0.068 A 
HETATM   20  C   UNL     1       5.008  26.402  50.164  1.00  0.00     0.039 A 
HETATM   21  C   UNL     1       5.473  26.899  51.389  1.00  0.00     0.032 A 
BRANCH  19  22
HETATM   22  O   UNL     1       3.810  26.880  48.073  1.00  0.00    -0.356 OA
HETATM   23  C   UNL     1       3.175  25.610  47.983  1.00  0.00     0.210 C 
ENDBRANCH  19  22
ENDBRANCH  13  16
ENDBRANCH  10  12
BRANCH   1  24
HETATM   24  C   UNL     1       7.588  26.976  55.803  1.00  0.00    -0.029 A 
HETATM   25  C   UNL     1       7.719  26.449  57.097  1.00  0.00     0.010 A 
HETATM   26  C   UNL     1       7.806  25.069  57.300  1.00  0.00     0.007 A 
HETATM   27  C   UNL     1       7.787  24.186  56.214  1.00  0.00    -0.059 A 
HETATM   28  C   UNL     1       7.672  24.706  54.921  1.00  0.00     0.007 A 
HETATM   29  C   UNL     1       7.578  26.084  54.717  1.00  0.00     0.010 A 
BRANCH  27  30
HETATM   30  C   UNL     1       7.863  22.697  56.435  1.00  0.00     0.034 C 
HETATM   31  C   UNL     1       7.860  21.932  55.121  1.00  0.00     0.010 C 
ENDBRANCH  27  30
ENDBRANCH   1  24
BRANCH   4  32
HETATM   32  C   UNL     1       8.523  31.557  59.353  1.00  0.00     0.261 C 
HETATM   33  N   UNL     1       7.716  31.124  60.390  1.00  0.00    -0.323 N 
HETATM   34  H   UNL     1       7.380  30.171  60.316  1.00  0.00     0.169 HD
HETATM   35  O   UNL     1       9.173  32.596  59.329  1.00  0.00    -0.267 OA
BRANCH  33  36
HETATM   36  C   UNL     1       7.417  31.801  61.589  1.00  0.00     0.035 A 
HETATM   37  C   UNL     1       8.337  32.012  62.618  1.00  0.00     0.029 A 
HETATM   38  C   UNL     1       7.959  32.693  63.780  1.00  0.00     0.002 A 
HETATM   39  C   UNL     1       6.660  33.175  63.921  1.00  0.00     0.000 A 
HETATM   40  C   UNL     1       5.737  32.977  62.897  1.00  0.00     0.002 A 
HETATM   41  C   UNL     1       6.114  32.296  61.738  1.00  0.00     0.029 A 
ENDBRANCH  33  36
ENDBRANCH   4  32
TORSDOF 7
ENDMDL
MODEL 2
REMARK VINA RESULT:     -10.1      2.431      5.382
REMARK  7 active torsions:
REMARK  status: ('A' for Active; 'I' for Inactive)
REMARK    1  A    between atoms: C_2  and  C_3 
REMARK    2  A    between atoms: C_6  and  C_7 
REMARK    3  A    between atoms: C_10  and  C_11 
REMARK       I    between atoms: C_11  and  N_12 
REMARK    4  A    between atoms: N_12  and  C_13 
REMARK    5  A    between atoms: C_25  and  C_26 
REMARK       I    between atoms: C_26  and  N_27 
REMARK    6  A    between atoms: N_27  and  C_28 
REMARK    7  A    between atoms: C_31  and  O_32 
ROOT
HETATM    1  C   UNL     1       5.057  28.877  55.870  1.00  0.00     0.185 C 
HETATM    2  N   UNL     1       4.759  29.863  56.923  1.00  0.00    -0.239 N 
HETATM    3  C   UNL     1       5.718  30.554  57.626  1.00  0.00     0.142 C 
HETATM    4  C   UNL     1       5.034  31.361  58.514  1.00  0.00     0.097 C 
HETATM    5  C   UNL     1       3.681  30.961  58.358  1.00  0.00     0.160 C 
HETATM    6  N   UNL     1       3.512  30.026  57.417  1.00  0.00    -0.181 NA
HETATM    7  N   UNL     1       7.029  30.306  57.375  1.00  0.00    -0.343 N 
HETATM    8  C   UNL     1       7.450  29.293  56.511  1.00  0.00     0.021 C 
HETATM    9  C   UNL     1       8.939  29.040  56.471  1.00  0.00     0.069 C 
HETATM   10  C   UNL     1       6.545  28.584  55.792  1.00  0.00     0.061 C 
HETATM   11  H   UNL     1       7.753  30.647  58.009  1.00  0.00     0.167 HD
ENDROOT
BRANCH  10  12
HETATM   12  C   UNL     1       6.986  27.538  54.828  1.00  0.00     0.256 C 
HETATM   13  N   UNL     1       6.828  26.255  55.311  1.00  0.00    -0.323 N 
HETATM   14  H   UNL     1       6.473  26.143  56.250  1.00  0.00     0.169 HD
HETATM   15  O   UNL     1       7.449  27.873  53.745  1.00  0.00    -0.267 OA
BRANCH  13  16
HETATM   16  C   UNL     1       7.150  25.049  54.652  1.00  0.00     0.035 A 
HETATM   17  C   UNL     1       6.721  24.718  53.367  1.00  0.00     0.032 A 
HETATM   18  C   UNL     1       7.118  23.510  52.779  1.00  0.00     0.039 A 
HETATM   19  C   UNL     1       7.947  22.620  53.462  1.00  0.00     0.068 A 
HETATM   20  C   UNL     1       8.354  22.931  54.756  1.00  0.00     0.039 A 
HETATM   21  C   UNL     1       7.961  24.140  55.344  1.00  0.00     0.032 A 
BRANCH  19  22
HETATM   22  O   UNL     1       8.275  21.488  52.769  1.00  0.00    -0.356 OA
HETATM   23  C   UNL     1       8.667  20.361  53.543  1.00  0.00     0.210 C 
ENDBRANCH  19  22
ENDBRANCH  13  16
ENDBRANCH  10  12
BRANCH   1  24
HETATM   24  C   UNL     1       4.429  29.314  54.549  1.00  0.00    -0.029 A 
HETATM   25  C   UNL     1       4.400  30.657  54.142  1.00  0.00     0.010 A 
HETATM   26  C   UNL     1       3.819  31.020  52.924  1.00  0.00     0.007 A 
HETATM   27  C   UNL     1       3.235  30.055  52.096  1.00  0.00    -0.059 A 
HETATM   28  C   UNL     1       3.247  28.717  52.504  1.00  0.00     0.007 A 
HETATM   29  C   UNL     1       3.834  28.352  53.718  1.00  0.00     0.010 A 
BRANCH  27  30
HETATM   30  C   UNL     1       2.625  30.445  50.775  1.00  0.00     0.034 C 
HETATM   31  C   UNL     1       1.588  29.433  50.312  1.00  0.00     0.010 C 
ENDBRANCH  27  30
ENDBRANCH   1  24
BRANCH   4  32
HETATM   32  C   UNL     1       5.535  32.347  59.454  1.00  0.00     0.261 C 
HETATM   33  N   UNL     1       5.785  31.830  60.712  1.00  0.00    -0.323 N 
HETATM   34  H   UNL     1       5.714  30.823  60.795  1.00  0.00     0.169 HD
HETATM   35  O   UNL     1       5.737  33.500  59.094  1.00  0.00    -0.267 OA
BRANCH  33  36
HETATM   36  C   UNL     1       6.251  32.520  61.849  1.00  0.00     0.035 A 
HETATM   37  C   UNL     1       5.632  33.650  62.386  1.00  0.00     0.029 A 
HETATM   38  C   UNL     1       6.160  34.279  63.518  1.00  0.00     0.002 A 
HETATM   39  C   UNL     1       7.309  33.780  64.127  1.00  0.00     0.000 A 
HETATM   40  C   UNL     1       7.930  32.649  63.605  1.00  0.00     0.002 A 
HETATM   41  C   UNL     1       7.403  32.021  62.473  1.00  0.00     0.029 A 
ENDBRANCH  33  36
ENDBRANCH   4  32
TORSDOF 7
ENDMDL
MODEL 3
REMARK VINA RESULT:     -10.1      1.541      2.117
REMARK  7 active torsions:
REMARK  status: ('A' for Active; 'I' for Inactive)
REMARK    1  A    between atoms: C_2  and  C_3 
REMARK    2  A    between atoms: C_6  and  C_7 
REMARK    3  A    between atoms: C_10  and  C_11 
REMARK       I    between atoms: C_11  and  N_12 
REMARK    4  A    between atoms: N_12  and  C_13 
REMARK    5  A    between atoms: C_25  and  C_26 
REMARK       I    between atoms: C_26  and  N_27 
REMARK    6  A    between atoms: N_27  and  C_28 
REMARK    7  A    between atoms: C_31  and  O_32 
ROOT
HETATM    1  C   UNL     1       6.927  28.243  54.367  1.00  0.00     0.185 C 
HETATM    2  N   UNL     1       7.702  28.790  55.494  1.00  0.00    -0.239 N 
HETATM    3  C   UNL     1       7.140  29.312  56.635  1.00  0.00     0.142 C 
HETATM    4  C   UNL     1       8.194  29.720  57.429  1.00  0.00     0.097 C 
HETATM    5  C   UNL     1       9.331  29.533  56.600  1.00  0.00     0.160 C 
HETATM    6  N   UNL     1       9.034  29.000  55.410  1.00  0.00    -0.181 NA
HETATM    7  N   UNL     1       5.788  29.366  56.742  1.00  0.00    -0.343 N 
HETATM    8  C   UNL     1       4.937  29.019  55.689  1.00  0.00     0.021 C 
HETATM    9  C   UNL     1       3.468  29.294  55.913  1.00  0.00     0.069 C 
HETATM   10  C   UNL     1       5.440  28.498  54.543  1.00  0.00     0.061 C 
HETATM   11  H   UNL     1       5.345  29.922  57.474  1.00  0.00     0.167 HD
ENDROOT
BRANCH  10  12
HETATM   12  C   UNL     1       4.539  28.075  53.436  1.00  0.00     0.256 C 
HETATM   13  N   UNL     1       4.475  28.994  52.408  1.00  0.00    -0.323 N 
HETATM   14  H   UNL     1       4.998  29.852  52.508  1.00  0.00     0.169 HD
HETATM   15  O   UNL     1       3.938  27.011  53.520  1.00  0.00    -0.267 OA
BRANCH  13  16
HETATM   16  C   UNL     1       3.715  28.897  51.223  1.00  0.00     0.035 A 
HETATM   17  C   UNL     1       4.213  28.430  50.007  1.00  0.00     0.032 A 
HETATM   18  C   UNL     1       3.375  28.339  48.888  1.00  0.00     0.039 A 
HETATM   19  C   UNL     1       2.033  28.710  48.967  1.00  0.00     0.068 A 
HETATM   20  C   UNL     1       1.536  29.205  50.170  1.00  0.00     0.039 A 
HETATM   21  C   UNL     1       2.373  29.294  51.291  1.00  0.00     0.032 A 
BRANCH  19  22
HETATM   22  O   UNL     1       1.321  28.554  47.811  1.00  0.00    -0.356 OA
HETATM   23  C   UNL     1       0.966  27.223  47.458  1.00  0.00     0.210 C 
ENDBRANCH  19  22
ENDBRANCH  13  16
ENDBRANCH  10  12
BRANCH   1  24
HETATM   24  C   UNL     1       7.294  26.779  54.140  1.00  0.00    -0.029 A 
HETATM   25  C   UNL     1       7.681  26.289  52.883  1.00  0.00     0.010 A 
HETATM   26  C   UNL     1       8.013  24.943  52.715  1.00  0.00     0.007 A 
HETATM   27  C   UNL     1       7.945  24.050  53.790  1.00  0.00    -0.059 A 
HETATM   28  C   UNL     1       7.545  24.529  55.042  1.00  0.00     0.007 A 
HETATM   29  C   UNL     1       7.219  25.877  55.214  1.00  0.00     0.010 A 
BRANCH  27  30
HETATM   30  C   UNL     1       8.320  22.602  53.612  1.00  0.00     0.034 C 
HETATM   31  C   UNL     1       8.050  21.790  54.869  1.00  0.00     0.010 C 
ENDBRANCH  27  30
ENDBRANCH   1  24
BRANCH   4  32
HETATM   32  C   UNL     1       8.191  30.280  58.768  1.00  0.00     0.261 C 
HETATM   33  N   UNL     1       7.241  31.270  58.948  1.00  0.00    -0.323 N 
HETATM   34  H   UNL     1       6.589  31.397  58.183  1.00  0.00     0.169 HD
HETATM   35  O   UNL     1       8.951  29.844  59.624  1.00  0.00    -0.267 OA
BRANCH  33  36
HETATM   36  C   UNL     1       6.995  32.025  60.112  1.00  0.00     0.035 A 
HETATM   37  C   UNL     1       7.891  32.133  61.177  1.00  0.00     0.029 A 
HETATM   38  C   UNL     1       7.569  32.902  62.301  1.00  0.00     0.002 A 
HETATM   39  C   UNL     1       6.351  33.574  62.366  1.00  0.00     0.000 A 
HETATM   40  C   UNL     1       5.454  33.479  61.306  1.00  0.00     0.002 A 
HETATM   41  C   UNL     1       5.774  32.710  60.185  1.00  0.00     0.029 A 
ENDBRANCH  33  36
ENDBRANCH   4  32
TORSDOF 7
ENDMDL
MODEL 4
REMARK VINA RESULT:      -9.8      2.899      5.817
REMARK  7 active torsions:
REMARK  status: ('A' for Active; 'I' for Inactive)
REMARK    1  A    between atoms: C_2  and  C_3 
REMARK    2  A    between atoms: C_6  and  C_7 
REMARK    3  A    between atoms: C_10  and  C_11 
REMARK       I    between atoms: C_11  and  N_12 
REMARK    4  A    between atoms: N_12  and  C_13 
REMARK    5  A    between atoms: C_25  and  C_26 
REMARK       I    between atoms: C_26  and  N_27 
REMARK    6  A    between atoms: N_27  and  C_28 
REMARK    7  A    between atoms: C_31  and  O_32 
ROOT
HETATM    1  C   UNL     1       4.874  29.923  57.081  1.00  0.00     0.185 C 
HETATM    2  N   UNL     1       4.500  30.839  58.174  1.00  0.00    -0.239 N 
HETATM    3  C   UNL     1       5.397  31.384  59.063  1.00  0.00     0.142 C 
HETATM    4  C   UNL     1       4.653  32.167  59.924  1.00  0.00     0.097 C 
HETATM    5  C   UNL     1       3.311  31.897  59.550  1.00  0.00     0.160 C 
HETATM    6  N   UNL     1       3.211  31.063  58.509  1.00  0.00    -0.181 NA
HETATM    7  N   UNL     1       6.709  31.050  58.968  1.00  0.00    -0.343 N 
HETATM    8  C   UNL     1       7.175  30.081  58.076  1.00  0.00     0.021 C 
HETATM    9  C   UNL     1       8.633  29.709  58.212  1.00  0.00     0.069 C 
HETATM   10  C   UNL     1       6.333  29.514  57.177  1.00  0.00     0.061 C 
HETATM   11  H   UNL     1       7.358  31.273  59.723  1.00  0.00     0.167 HD
ENDROOT
BRANCH  10  12
HETATM   12  C   UNL     1       6.831  28.521  56.185  1.00  0.00     0.256 C 
HETATM   13  N   UNL     1       6.404  27.235  56.446  1.00  0.00    -0.323 N 
HETATM   14  H   UNL     1       5.842  27.081  57.272  1.00  0.00     0.169 HD
HETATM   15  O   UNL     1       7.557  28.892  55.272  1.00  0.00    -0.267 OA
BRANCH  13  16
HETATM   16  C   UNL     1       6.700  26.070  55.706  1.00  0.00     0.035 A 
HETATM   17  C   UNL     1       7.764  25.213  55.984  1.00  0.00     0.032 A 
HETATM   18  C   UNL     1       7.963  24.061  55.213  1.00  0.00     0.039 A 
HETATM   19  C   UNL     1       7.105  23.748  54.158  1.00  0.00     0.068 A 
HETATM   20  C   UNL     1       6.059  24.615  53.857  1.00  0.00     0.039 A 
HETATM   21  C   UNL     1       5.857  25.766  54.630  1.00  0.00     0.032 A 
BRANCH  19  22
HETATM   22  O   UNL     1       7.398  22.587  53.499  1.00  0.00    -0.356 OA
HETATM   23  C   UNL     1       8.709  22.066  53.683  1.00  0.00     0.210 C 
ENDBRANCH  19  22
ENDBRANCH  13  16
ENDBRANCH  10  12
BRANCH   1  24
HETATM   24  C   UNL     1       4.473  30.522  55.736  1.00  0.00    -0.029 A 
HETATM   25  C   UNL     1       3.856  29.762  54.731  1.00  0.00     0.010 A 
HETATM   26  C   UNL     1       3.500  30.345  53.512  1.00  0.00     0.007 A 
HETATM   27  C   UNL     1       3.771  31.695  53.261  1.00  0.00    -0.059 A 
HETATM   28  C   UNL     1       4.400  32.455  54.253  1.00  0.00     0.007 A 
HETATM   29  C   UNL     1       4.750  31.874  55.475  1.00  0.00     0.010 A 
BRANCH  27  30
HETATM   30  C   UNL     1       3.371  32.328  51.954  1.00  0.00     0.034 C 
HETATM   31  C   UNL     1       2.063  33.094  52.075  1.00  0.00     0.010 C 
ENDBRANCH  27  30
ENDBRANCH   1  24
BRANCH   4  32
HETATM   32  C   UNL     1       5.084  33.024  61.013  1.00  0.00     0.261 C 
HETATM   33  N   UNL     1       5.362  32.334  62.179  1.00  0.00    -0.323 N 
HETATM   34  H   UNL     1       5.356  31.324  62.103  1.00  0.00     0.169 HD
HETATM   35  O   UNL     1       5.213  34.230  60.839  1.00  0.00    -0.267 OA
BRANCH  33  36
HETATM   36  C   UNL     1       5.777  32.866  63.416  1.00  0.00     0.035 A 
HETATM   37  C   UNL     1       4.904  33.241  64.438  1.00  0.00     0.029 A 
HETATM   38  C   UNL     1       5.396  33.765  65.638  1.00  0.00     0.002 A 
HETATM   39  C   UNL     1       6.768  33.913  65.828  1.00  0.00     0.000 A 
HETATM   40  C   UNL     1       7.649  33.535  64.818  1.00  0.00     0.002 A 
HETATM   41  C   UNL     1       7.156  33.014  63.620  1.00  0.00     0.029 A 
ENDBRANCH  33  36
ENDBRANCH   4  32
TORSDOF 7
ENDMDL
MODEL 5
REMARK VINA RESULT:      -9.8      5.813      9.227
REMARK  7 active torsions:
REMARK  status: ('A' for Active; 'I' for Inactive)
REMARK    1  A    between atoms: C_2  and  C_3 
REMARK    2  A    between atoms: C_6  and  C_7 
REMARK    3  A    between atoms: C_10  and  C_11 
REMARK       I    between atoms: C_11  and  N_12 
REMARK    4  A    between atoms: N_12  and  C_13 
REMARK    5  A    between atoms: C_25  and  C_26 
REMARK       I    between atoms: C_26  and  N_27 
REMARK    6  A    between atoms: N_27  and  C_28 
REMARK    7  A    between atoms: C_31  and  O_32 
ROOT
HETATM    1  C   UNL     1       3.865  28.632  50.766  1.00  0.00     0.185 C 
HETATM    2  N   UNL     1       4.651  27.879  51.759  1.00  0.00    -0.239 N 
HETATM    3  C   UNL     1       5.488  26.833  51.448  1.00  0.00     0.142 C 
HETATM    4  C   UNL     1       6.021  26.400  52.646  1.00  0.00     0.097 C 
HETATM    5  C   UNL     1       5.319  27.158  53.620  1.00  0.00     0.160 C 
HETATM    6  N   UNL     1       4.460  28.034  53.088  1.00  0.00    -0.181 NA
HETATM    7  N   UNL     1       5.591  26.430  50.156  1.00  0.00    -0.343 N 
HETATM    8  C   UNL     1       4.792  26.958  49.138  1.00  0.00     0.021 C 
HETATM    9  C   UNL     1       4.914  26.286  47.791  1.00  0.00     0.069 C 
HETATM   10  C   UNL     1       3.952  27.991  49.392  1.00  0.00     0.061 C 
HETATM   11  H   UNL     1       6.039  25.544  49.921  1.00  0.00     0.167 HD
ENDROOT
BRANCH  10  12
HETATM   12  C   UNL     1       3.136  28.597  48.303  1.00  0.00     0.256 C 
HETATM   13  N   UNL     1       1.858  28.081  48.233  1.00  0.00    -0.323 N 
HETATM   14  H   UNL     1       1.609  27.345  48.878  1.00  0.00     0.169 HD
HETATM   15  O   UNL     1       3.635  29.448  47.577  1.00  0.00    -0.267 OA
BRANCH  13  16
HETATM   16  C   UNL     1       0.843  28.436  47.318  1.00  0.00     0.035 A 
HETATM   17  C   UNL     1       0.250  29.696  47.254  1.00  0.00     0.032 A 
HETATM   18  C   UNL     1      -0.729  29.968  46.290  1.00  0.00     0.039 A 
HETATM   19  C   UNL     1      -1.128  28.990  45.379  1.00  0.00     0.068 A 
HETATM   20  C   UNL     1      -0.561  27.721  45.457  1.00  0.00     0.039 A 
HETATM   21  C   UNL     1       0.421  27.449  46.419  1.00  0.00     0.032 A 
BRANCH  19  22
HETATM   22  O   UNL     1      -2.076  29.390  44.479  1.00  0.00    -0.356 OA
HETATM   23  C   UNL     1      -3.062  30.296  44.957  1.00  0.00     0.210 C 
ENDBRANCH  19  22
ENDBRANCH  13  16
ENDBRANCH  10  12
BRANCH   1  24
HETATM   24  C   UNL     1       4.254  30.107  50.801  1.00  0.00    -0.029 A 
HETATM   25  C   UNL     1       3.390  31.099  51.292  1.00  0.00     0.010 A 
HETATM   26  C   UNL     1       3.781  32.440  51.311  1.00  0.00     0.007 A 
HETATM   27  C   UNL     1       5.033  32.825  50.820  1.00  0.00    -0.059 A 
HETATM   28  C   UNL     1       5.893  31.844  50.315  1.00  0.00     0.007 A 
HETATM   29  C   UNL     1       5.506  30.502  50.302  1.00  0.00     0.010 A 
BRANCH  27  30
HETATM   30  C   UNL     1       5.462  34.269  50.857  1.00  0.00     0.034 C 
HETATM   31  C   UNL     1       6.229  34.597  52.129  1.00  0.00     0.010 C 
ENDBRANCH  27  30
ENDBRANCH   1  24
BRANCH   4  32
HETATM   32  C   UNL     1       7.011  25.371  52.909  1.00  0.00     0.261 C 
HETATM   33  N   UNL     1       6.493  24.261  53.551  1.00  0.00    -0.323 N 
HETATM   34  H   UNL     1       5.484  24.240  53.647  1.00  0.00     0.169 HD
HETATM   35  O   UNL     1       8.168  25.514  52.533  1.00  0.00    -0.267 OA
BRANCH  33  36
HETATM   36  C   UNL     1       7.185  23.106  53.967  1.00  0.00     0.035 A 
HETATM   37  C   UNL     1       7.438  22.785  55.302  1.00  0.00     0.029 A 
HETATM   38  C   UNL     1       8.135  21.618  55.632  1.00  0.00     0.002 A 
HETATM   39  C   UNL     1       8.581  20.760  54.630  1.00  0.00     0.000 A 
HETATM   40  C   UNL     1       8.328  21.067  53.296  1.00  0.00     0.002 A 
HETATM   41  C   UNL     1       7.632  22.232  52.967  1.00  0.00     0.029 A 
ENDBRANCH  33  36
ENDBRANCH   4  32
TORSDOF 7
ENDMDL
MODEL 6
REMARK VINA RESULT:      -9.5      3.347      8.805
REMARK  7 active torsions:
REMARK  status: ('A' for Active; 'I' for Inactive)
REMARK    1  A    between atoms: C_2  and  C_3 
REMARK    2  A    between atoms: C_6  and  C_7 
REMARK    3  A    between atoms: C_10  and  C_11 
REMARK       I    between atoms: C_11  and  N_12 
REMARK    4  A    between atoms: N_12  and  C_13 
REMARK    5  A    between atoms: C_25  and  C_26 
REMARK       I    between atoms: C_26  and  N_27 
REMARK    6  A    between atoms: N_27  and  C_28 
REMARK    7  A    between atoms: C_31  and  O_32 
ROOT
HETATM    1  C   UNL     1       4.828  29.015  56.334  1.00  0.00     0.185 C 
HETATM    2  N   UNL     1       5.217  27.597  56.233  1.00  0.00    -0.239 N 
HETATM    3  C   UNL     1       5.464  26.948  55.045  1.00  0.00     0.142 C 
HETATM    4  C   UNL     1       5.785  25.647  55.380  1.00  0.00     0.097 C 
HETATM    5  C   UNL     1       5.553  25.593  56.779  1.00  0.00     0.160 C 
HETATM    6  N   UNL     1       5.174  26.766  57.297  1.00  0.00    -0.181 NA
HETATM    7  N   UNL     1       5.317  27.626  53.879  1.00  0.00    -0.343 N 
HETATM    8  C   UNL     1       4.811  28.927  53.824  1.00  0.00     0.021 C 
HETATM    9  C   UNL     1       4.554  29.474  52.439  1.00  0.00     0.069 C 
HETATM   10  C   UNL     1       4.553  29.612  54.965  1.00  0.00     0.061 C 
HETATM   11  H   UNL     1       5.296  27.128  52.988  1.00  0.00     0.167 HD
ENDROOT
BRANCH  10  12
HETATM   12  C   UNL     1       4.065  31.018  54.918  1.00  0.00     0.256 C 
HETATM   13  N   UNL     1       5.080  31.939  54.760  1.00  0.00    -0.323 N 
HETATM   14  H   UNL     1       6.030  31.595  54.725  1.00  0.00     0.169 HD
HETATM   15  O   UNL     1       2.867  31.244  55.037  1.00  0.00    -0.267 OA
BRANCH  13  16
HETATM   16  C   UNL     1       4.955  33.343  54.684  1.00  0.00     0.035 A 
HETATM   17  C   UNL     1       4.856  34.057  53.491  1.00  0.00     0.032 A 
HETATM   18  C   UNL     1       4.702  35.450  53.512  1.00  0.00     0.039 A 
HETATM   19  C   UNL     1       4.643  36.145  54.720  1.00  0.00     0.068 A 
HETATM   20  C   UNL     1       4.770  35.441  55.914  1.00  0.00     0.039 A 
HETATM   21  C   UNL     1       4.921  34.048  55.893  1.00  0.00     0.032 A 
BRANCH  19  22
HETATM   22  O   UNL     1       4.471  37.496  54.601  1.00  0.00    -0.356 OA
HETATM   23  C   UNL     1       5.196  38.140  53.561  1.00  0.00     0.210 C 
ENDBRANCH  19  22
ENDBRANCH  13  16
ENDBRANCH  10  12
BRANCH   1  24
HETATM   24  C   UNL     1       5.854  29.781  57.163  1.00  0.00    -0.029 A 
HETATM   25  C   UNL     1       5.493  30.841  58.010  1.00  0.00     0.010 A 
HETATM   26  C   UNL     1       6.460  31.518  58.757  1.00  0.00     0.007 A 
HETATM   27  C   UNL     1       7.812  31.169  58.658  1.00  0.00    -0.059 A 
HETATM   28  C   UNL     1       8.180  30.124  57.804  1.00  0.00     0.007 A 
HETATM   29  C   UNL     1       7.214  29.442  57.062  1.00  0.00     0.010 A 
BRANCH  27  30
HETATM   30  C   UNL     1       8.853  31.888  59.477  1.00  0.00     0.034 C 
HETATM   31  C   UNL     1       8.298  32.346  60.817  1.00  0.00     0.010 C 
ENDBRANCH  27  30
ENDBRANCH   1  24
BRANCH   4  32
HETATM   32  C   UNL     1       6.199  24.542  54.535  1.00  0.00     0.261 C 
HETATM   33  N   UNL     1       6.973  23.605  55.196  1.00  0.00    -0.323 N 
HETATM   34  H   UNL     1       7.053  23.730  56.198  1.00  0.00     0.169 HD
HETATM   35  O   UNL     1       5.827  24.479  53.370  1.00  0.00    -0.267 OA
BRANCH  33  36
HETATM   36  C   UNL     1       7.550  22.435  54.663  1.00  0.00     0.035 A 
HETATM   37  C   UNL     1       7.809  22.240  53.305  1.00  0.00     0.029 A 
HETATM   38  C   UNL     1       8.383  21.046  52.856  1.00  0.00     0.002 A 
HETATM   39  C   UNL     1       8.708  20.039  53.761  1.00  0.00     0.000 A 
HETATM   40  C   UNL     1       8.461  20.226  55.118  1.00  0.00     0.002 A 
HETATM   41  C   UNL     1       7.887  21.418  55.567  1.00  0.00     0.029 A 
ENDBRANCH  33  36
ENDBRANCH   4  32
TORSDOF 7
ENDMDL
MODEL 7
REMARK VINA RESULT:      -9.1      4.006     10.057
REMARK  7 active torsions:
REMARK  status: ('A' for Active; 'I' for Inactive)
REMARK    1  A    between atoms: C_2  and  C_3 
REMARK    2  A    between atoms: C_6  and  C_7 
REMARK    3  A    between atoms: C_10  and  C_11 
REMARK       I    between atoms: C_11  and  N_12 
REMARK    4  A    between atoms: N_12  and  C_13 
REMARK    5  A    between atoms: C_25  and  C_26 
REMARK       I    between atoms: C_26  and  N_27 
REMARK    6  A    between atoms: N_27  and  C_28 
REMARK    7  A    between atoms: C_31  and  O_32 
ROOT
HETATM    1  C   UNL     1       6.487  27.861  52.139  1.00  0.00     0.185 C 
HETATM    2  N   UNL     1       5.557  28.748  51.418  1.00  0.00    -0.239 N 
HETATM    3  C   UNL     1       4.407  28.319  50.797  1.00  0.00     0.142 C 
HETATM    4  C   UNL     1       3.833  29.444  50.238  1.00  0.00     0.097 C 
HETATM    5  C   UNL     1       4.800  30.459  50.456  1.00  0.00     0.160 C 
HETATM    6  N   UNL     1       5.866  30.035  51.142  1.00  0.00    -0.181 NA
HETATM    7  N   UNL     1       4.102  26.997  50.811  1.00  0.00    -0.343 N 
HETATM    8  C   UNL     1       4.969  26.031  51.328  1.00  0.00     0.021 C 
HETATM    9  C   UNL     1       4.554  24.594  51.115  1.00  0.00     0.069 C 
HETATM   10  C   UNL     1       6.114  26.400  51.951  1.00  0.00     0.061 C 
HETATM   11  H   UNL     1       3.375  26.625  50.198  1.00  0.00     0.167 HD
ENDROOT
BRANCH  10  12
HETATM   12  C   UNL     1       7.019  25.383  52.554  1.00  0.00     0.256 C 
HETATM   13  N   UNL     1       6.488  24.785  53.679  1.00  0.00    -0.323 N 
HETATM   14  H   UNL     1       5.584  25.100  54.001  1.00  0.00     0.169 HD
HETATM   15  O   UNL     1       8.115  25.175  52.048  1.00  0.00    -0.267 OA
BRANCH  13  16
HETATM   16  C   UNL     1       7.089  23.791  54.481  1.00  0.00     0.035 A 
HETATM   17  C   UNL     1       7.433  22.518  54.026  1.00  0.00     0.032 A 
HETATM   18  C   UNL     1       8.056  21.605  54.887  1.00  0.00     0.039 A 
HETATM   19  C   UNL     1       8.344  21.948  56.208  1.00  0.00     0.068 A 
HETATM   20  C   UNL     1       7.977  23.206  56.676  1.00  0.00     0.039 A 
HETATM   21  C   UNL     1       7.356  24.122  55.815  1.00  0.00     0.032 A 
BRANCH  19  22
HETATM   22  O   UNL     1       8.971  20.974  56.935  1.00  0.00    -0.356 OA
HETATM   23  C   UNL     1       9.583  19.925  56.195  1.00  0.00     0.210 C 
ENDBRANCH  19  22
ENDBRANCH  13  16
ENDBRANCH  10  12
BRANCH   1  24
HETATM   24  C   UNL     1       6.606  28.300  53.595  1.00  0.00    -0.029 A 
HETATM   25  C   UNL     1       5.489  28.669  54.361  1.00  0.00     0.010 A 
HETATM   26  C   UNL     1       5.636  29.063  55.693  1.00  0.00     0.007 A 
HETATM   27  C   UNL     1       6.903  29.121  56.285  1.00  0.00    -0.059 A 
HETATM   28  C   UNL     1       8.022  28.770  55.522  1.00  0.00     0.007 A 
HETATM   29  C   UNL     1       7.876  28.368  54.192  1.00  0.00     0.010 A 
BRANCH  27  30
HETATM   30  C   UNL     1       7.060  29.529  57.727  1.00  0.00     0.034 C 
HETATM   31  C   UNL     1       8.518  29.529  58.157  1.00  0.00     0.010 C 
ENDBRANCH  27  30
ENDBRANCH   1  24
BRANCH   4  32
HETATM   32  C   UNL     1       2.578  29.593  49.524  1.00  0.00     0.261 C 
HETATM   33  N   UNL     1       2.583  29.004  48.272  1.00  0.00    -0.323 N 
HETATM   34  H   UNL     1       3.398  28.442  48.055  1.00  0.00     0.169 HD
HETATM   35  O   UNL     1       1.627  30.157  50.052  1.00  0.00    -0.267 OA
BRANCH  33  36
HETATM   36  C   UNL     1       1.541  28.988  47.323  1.00  0.00     0.035 A 
HETATM   37  C   UNL     1       1.096  30.116  46.633  1.00  0.00     0.029 A 
HETATM   38  C   UNL     1       0.053  30.017  45.707  1.00  0.00     0.002 A 
HETATM   39  C   UNL     1      -0.551  28.786  45.459  1.00  0.00     0.000 A 
HETATM   40  C   UNL     1      -0.110  27.653  46.137  1.00  0.00     0.002 A 
HETATM   41  C   UNL     1       0.931  27.753  47.063  1.00  0.00     0.029 A 
ENDBRANCH  33  36
ENDBRANCH   4  32
TORSDOF 7
ENDMDL
MODEL 8
REMARK VINA RESULT:      -9.0      4.440      9.138
REMARK  7 active torsions:
REMARK  status: ('A' for Active; 'I' for Inactive)
REMARK    1  A    between atoms: C_2  and  C_3 
REMARK    2  A    between atoms: C_6  and  C_7 
REMARK    3  A    between atoms: C_10  and  C_11 
REMARK       I    between atoms: C_11  and  N_12 
REMARK    4  A    between atoms: N_12  and  C_13 
REMARK    5  A    between atoms: C_25  and  C_26 
REMARK       I    between atoms: C_26  and  N_27 
REMARK    6  A    between atoms: N_27  and  C_28 
REMARK    7  A    between atoms: C_31  and  O_32 
ROOT
HETATM    1  C   UNL     1       4.015  33.475  61.403  1.00  0.00     0.185 C 
HETATM    2  N   UNL     1       4.200  33.697  62.848  1.00  0.00    -0.239 N 
HETATM    3  C   UNL     1       5.401  33.550  63.502  1.00  0.00     0.142 C 
HETATM    4  C   UNL     1       5.149  33.837  64.830  1.00  0.00     0.097 C 
HETATM    5  C   UNL     1       3.739  33.995  64.879  1.00  0.00     0.160 C 
HETATM    6  N   UNL     1       3.153  33.876  63.683  1.00  0.00    -0.181 NA
HETATM    7  N   UNL     1       6.491  33.148  62.802  1.00  0.00    -0.343 N 
HETATM    8  C   UNL     1       6.423  32.761  61.462  1.00  0.00     0.021 C 
HETATM    9  C   UNL     1       7.691  32.182  60.879  1.00  0.00     0.069 C 
HETATM   10  C   UNL     1       5.264  32.887  60.769  1.00  0.00     0.061 C 
HETATM   11  H   UNL     1       7.335  32.839  63.287  1.00  0.00     0.167 HD
ENDROOT
BRANCH  10  12
HETATM   12  C   UNL     1       5.193  32.528  59.326  1.00  0.00     0.256 C 
HETATM   13  N   UNL     1       4.553  31.328  59.096  1.00  0.00    -0.323 N 
HETATM   14  H   UNL     1       4.231  30.802  59.897  1.00  0.00     0.169 HD
HETATM   15  O   UNL     1       5.697  33.273  58.494  1.00  0.00    -0.267 OA
BRANCH  13  16
HETATM   16  C   UNL     1       4.326  30.706  57.850  1.00  0.00     0.035 A 
HETATM   17  C   UNL     1       3.428  31.175  56.892  1.00  0.00     0.032 A 
HETATM   18  C   UNL     1       3.290  30.510  55.667  1.00  0.00     0.039 A 
HETATM   19  C   UNL     1       4.045  29.373  55.381  1.00  0.00     0.068 A 
HETATM   20  C   UNL     1       4.923  28.883  56.344  1.00  0.00     0.039 A 
HETATM   21  C   UNL     1       5.063  29.549  57.569  1.00  0.00     0.032 A 
BRANCH  19  22
HETATM   22  O   UNL     1       3.831  28.831  54.144  1.00  0.00    -0.356 OA
HETATM   23  C   UNL     1       4.635  27.712  53.793  1.00  0.00     0.210 C 
ENDBRANCH  19  22
ENDBRANCH  13  16
ENDBRANCH  10  12
BRANCH   1  24
HETATM   24  C   UNL     1       3.510  34.751  60.737  1.00  0.00    -0.029 A 
HETATM   25  C   UNL     1       2.299  34.799  60.029  1.00  0.00     0.010 A 
HETATM   26  C   UNL     1       1.867  35.987  59.435  1.00  0.00     0.007 A 
HETATM   27  C   UNL     1       2.644  37.149  59.514  1.00  0.00    -0.059 A 
HETATM   28  C   UNL     1       3.859  37.103  60.205  1.00  0.00     0.007 A 
HETATM   29  C   UNL     1       4.289  35.918  60.806  1.00  0.00     0.010 A 
BRANCH  27  30
HETATM   30  C   UNL     1       2.169  38.435  58.888  1.00  0.00     0.034 C 
HETATM   31  C   UNL     1       1.963  39.525  59.928  1.00  0.00     0.010 C 
ENDBRANCH  27  30
ENDBRANCH   1  24
BRANCH   4  32
HETATM   32  C   UNL     1       6.060  33.906  65.958  1.00  0.00     0.261 C 
HETATM   33  N   UNL     1       5.422  34.119  67.167  1.00  0.00    -0.323 N 
HETATM   34  H   UNL     1       4.410  34.076  67.143  1.00  0.00     0.169 HD
HETATM   35  O   UNL     1       7.262  33.738  65.795  1.00  0.00    -0.267 OA
BRANCH  33  36
HETATM   36  C   UNL     1       6.013  34.257  68.439  1.00  0.00     0.035 A 
HETATM   37  C   UNL     1       5.811  33.366  69.495  1.00  0.00     0.029 A 
HETATM   38  C   UNL     1       6.434  33.576  70.730  1.00  0.00     0.002 A 
HETATM   39  C   UNL     1       7.269  34.675  70.918  1.00  0.00     0.000 A 
HETATM   40  C   UNL     1       7.483  35.565  69.869  1.00  0.00     0.002 A 
HETATM   41  C   UNL     1       6.860  35.356  68.636  1.00  0.00     0.029 A 
ENDBRANCH  33  36
ENDBRANCH   4  32
TORSDOF 7
ENDMDL
MODEL 9
REMARK VINA RESULT:      -8.9      4.926     10.284
REMARK  7 active torsions:
REMARK  status: ('A' for Active; 'I' for Inactive)
REMARK    1  A    between atoms: C_2  and  C_3 
REMARK    2  A    between atoms: C_6  and  C_7 
REMARK    3  A    between atoms: C_10  and  C_11 
REMARK       I    between atoms: C_11  and  N_12 
REMARK    4  A    between atoms: N_12  and  C_13 
REMARK    5  A    between atoms: C_25  and  C_26 
REMARK       I    between atoms: C_26  and  N_27 
REMARK    6  A    between atoms: N_27  and  C_28 
REMARK    7  A    between atoms: C_31  and  O_32 
ROOT
HETATM    1  C   UNL     1       4.756  34.201  62.789  1.00  0.00     0.185 C 
HETATM    2  N   UNL     1       4.504  34.424  64.224  1.00  0.00    -0.239 N 
HETATM    3  C   UNL     1       5.343  34.000  65.228  1.00  0.00     0.142 C 
HETATM    4  C   UNL     1       4.749  34.393  66.412  1.00  0.00     0.097 C 
HETATM    5  C   UNL     1       3.491  34.908  66.003  1.00  0.00     0.160 C 
HETATM    6  N   UNL     1       3.323  34.897  64.676  1.00  0.00    -0.181 NA
HETATM    7  N   UNL     1       6.463  33.305  64.906  1.00  0.00    -0.343 N 
HETATM    8  C   UNL     1       6.744  32.897  63.600  1.00  0.00     0.021 C 
HETATM    9  C   UNL     1       7.942  31.990  63.438  1.00  0.00     0.069 C 
HETATM   10  C   UNL     1       5.952  33.289  62.573  1.00  0.00     0.061 C 
HETATM   11  H   UNL     1       6.992  32.809  65.625  1.00  0.00     0.167 HD
ENDROOT
BRANCH  10  12
HETATM   12  C   UNL     1       6.273  32.905  61.170  1.00  0.00     0.256 C 
HETATM   13  N   UNL     1       5.227  32.274  60.528  1.00  0.00    -0.323 N 
HETATM   14  H   UNL     1       4.382  32.105  61.055  1.00  0.00     0.169 HD
HETATM   15  O   UNL     1       7.385  33.147  60.719  1.00  0.00    -0.267 OA
BRANCH  13  16
HETATM   16  C   UNL     1       5.209  31.784  59.205  1.00  0.00     0.035 A 
HETATM   17  C   UNL     1       6.330  31.300  58.532  1.00  0.00     0.032 A 
HETATM   18  C   UNL     1       6.212  30.803  57.227  1.00  0.00     0.039 A 
HETATM   19  C   UNL     1       4.977  30.781  56.579  1.00  0.00     0.068 A 
HETATM   20  C   UNL     1       3.859  31.290  57.234  1.00  0.00     0.039 A 
HETATM   21  C   UNL     1       3.976  31.784  58.540  1.00  0.00     0.032 A 
BRANCH  19  22
HETATM   22  O   UNL     1       4.995  30.253  55.318  1.00  0.00    -0.356 OA
HETATM   23  C   UNL     1       3.966  30.683  54.436  1.00  0.00     0.210 C 
ENDBRANCH  19  22
ENDBRANCH  13  16
ENDBRANCH  10  12
BRANCH   1  24
HETATM   24  C   UNL     1       4.842  35.538  62.059  1.00  0.00    -0.029 A 
HETATM   25  C   UNL     1       5.734  36.550  62.448  1.00  0.00     0.010 A 
HETATM   26  C   UNL     1       5.786  37.760  61.753  1.00  0.00     0.007 A 
HETATM   27  C   UNL     1       4.935  37.999  60.669  1.00  0.00    -0.059 A 
HETATM   28  C   UNL     1       4.033  37.001  60.285  1.00  0.00     0.007 A 
HETATM   29  C   UNL     1       3.984  35.787  60.974  1.00  0.00     0.010 A 
BRANCH  27  30
HETATM   30  C   UNL     1       5.004  39.298  59.909  1.00  0.00     0.034 C 
HETATM   31  C   UNL     1       6.250  40.094  60.265  1.00  0.00     0.010 C 
ENDBRANCH  27  30
ENDBRANCH   1  24
BRANCH   4  32
HETATM   32  C   UNL     1       5.222  34.269  67.779  1.00  0.00     0.261 C 
HETATM   33  N   UNL     1       6.369  34.999  68.032  1.00  0.00    -0.323 N 
HETATM   34  H   UNL     1       6.667  35.621  67.289  1.00  0.00     0.169 HD
HETATM   35  O   UNL     1       4.596  33.602  68.594  1.00  0.00    -0.267 OA
BRANCH  33  36
HETATM   36  C   UNL     1       7.091  35.076  69.239  1.00  0.00     0.035 A 
HETATM   37  C   UNL     1       7.521  36.272  69.817  1.00  0.00     0.029 A 
HETATM   38  C   UNL     1       8.237  36.263  71.020  1.00  0.00     0.002 A 
HETATM   39  C   UNL     1       8.523  35.058  71.657  1.00  0.00     0.000 A 
HETATM   40  C   UNL     1       8.092  33.861  71.093  1.00  0.00     0.002 A 
HETATM   41  C   UNL     1       7.379  33.870  69.892  1.00  0.00     0.029 A 
ENDBRANCH  33  36
ENDBRANCH   4  32
TORSDOF 7
ENDMDL
MODEL 10
REMARK VINA RESULT:      -8.9      2.971      6.023
REMARK  7 active torsions:
REMARK  status: ('A' for Active; 'I' for Inactive)
REMARK    1  A    between atoms: C_2  and  C_3 
REMARK    2  A    between atoms: C_6  and  C_7 
REMARK    3  A    between atoms: C_10  and  C_11 
REMARK       I    between atoms: C_11  and  N_12 
REMARK    4  A    between atoms: N_12  and  C_13 
REMARK    5  A    between atoms: C_25  and  C_26 
REMARK       I    between atoms: C_26  and  N_27 
REMARK    6  A    between atoms: N_27  and  C_28 
REMARK    7  A    between atoms: C_31  and  O_32 
ROOT
HETATM    1  C   UNL     1       5.122  29.616  57.367  1.00  0.00     0.185 C 
HETATM    2  N   UNL     1       4.525  30.728  58.127  1.00  0.00    -0.239 N 
HETATM    3  C   UNL     1       5.253  31.714  58.752  1.00  0.00     0.142 C 
HETATM    4  C   UNL     1       4.330  32.548  59.352  1.00  0.00     0.097 C 
HETATM    5  C   UNL     1       3.092  31.883  59.147  1.00  0.00     0.160 C 
HETATM    6  N   UNL     1       3.209  30.759  58.434  1.00  0.00    -0.181 NA
HETATM    7  N   UNL     1       6.608  31.665  58.707  1.00  0.00    -0.343 N 
HETATM    8  C   UNL     1       7.303  30.588  58.150  1.00  0.00     0.021 C 
HETATM    9  C   UNL     1       8.803  30.611  58.329  1.00  0.00     0.069 C 
HETATM   10  C   UNL     1       6.634  29.592  57.520  1.00  0.00     0.061 C 
HETATM   11  H   UNL     1       7.171  32.256  59.320  1.00  0.00     0.167 HD
ENDROOT
BRANCH  10  12
HETATM   12  C   UNL     1       7.367  28.467  56.875  1.00  0.00     0.256 C 
HETATM   13  N   UNL     1       6.974  27.229  57.338  1.00  0.00    -0.323 N 
HETATM   14  H   UNL     1       6.276  27.195  58.068  1.00  0.00     0.169 HD
HETATM   15  O   UNL     1       8.231  28.710  56.041  1.00  0.00    -0.267 OA
BRANCH  13  16
HETATM   16  C   UNL     1       7.472  25.970  56.938  1.00  0.00     0.035 A 
HETATM   17  C   UNL     1       8.587  25.352  57.503  1.00  0.00     0.032 A 
HETATM   18  C   UNL     1       8.992  24.085  57.063  1.00  0.00     0.039 A 
HETATM   19  C   UNL     1       8.291  23.419  56.057  1.00  0.00     0.068 A 
HETATM   20  C   UNL     1       7.195  24.043  55.468  1.00  0.00     0.039 A 
HETATM   21  C   UNL     1       6.787  25.309  55.910  1.00  0.00     0.032 A 
BRANCH  19  22
HETATM   22  O   UNL     1       8.777  22.183  55.734  1.00  0.00    -0.356 OA
HETATM   23  C   UNL     1       8.267  21.085  56.481  1.00  0.00     0.210 C 
ENDBRANCH  19  22
ENDBRANCH  13  16
ENDBRANCH  10  12
BRANCH   1  24
HETATM   24  C   UNL     1       4.634  29.647  55.922  1.00  0.00    -0.029 A 
HETATM   25  C   UNL     1       4.527  30.841  55.192  1.00  0.00     0.010 A 
HETATM   26  C   UNL     1       4.079  30.830  53.869  1.00  0.00     0.007 A 
HETATM   27  C   UNL     1       3.704  29.631  53.252  1.00  0.00    -0.059 A 
HETATM   28  C   UNL     1       3.793  28.440  53.980  1.00  0.00     0.007 A 
HETATM   29  C   UNL     1       4.248  28.448  55.300  1.00  0.00     0.010 A 
BRANCH  27  30
HETATM   30  C   UNL     1       3.237  29.617  51.820  1.00  0.00     0.034 C 
HETATM   31  C   UNL     1       4.388  29.832  50.849  1.00  0.00     0.010 C 
ENDBRANCH  27  30
ENDBRANCH   1  24
BRANCH   4  32
HETATM   32  C   UNL     1       4.529  33.783  60.088  1.00  0.00     0.261 C 
HETATM   33  N   UNL     1       4.562  33.606  61.460  1.00  0.00    -0.323 N 
HETATM   34  H   UNL     1       4.571  32.644  61.778  1.00  0.00     0.169 HD
HETATM   35  O   UNL     1       4.691  34.841  59.492  1.00  0.00    -0.267 OA
BRANCH  33  36
HETATM   36  C   UNL     1       4.715  34.595  62.452  1.00  0.00     0.035 A 
HETATM   37  C   UNL     1       5.748  35.533  62.467  1.00  0.00     0.029 A 
HETATM   38  C   UNL     1       5.831  36.483  63.491  1.00  0.00     0.002 A 
HETATM   39  C   UNL     1       4.877  36.507  64.505  1.00  0.00     0.000 A 
HETATM   40  C   UNL     1       3.838  35.581  64.496  1.00  0.00     0.002 A 
HETATM   41  C   UNL     1       3.756  34.631  63.474  1.00  0.00     0.029 A 
ENDBRANCH  33  36
ENDBRANCH   4  32
TORSDOF 7
ENDMDL
