MODEL 1
REMARK VINA RESULT:      -9.9      0.000      0.000
REMARK  4 active torsions:
REMARK  status: ('A' for Active; 'I' for Inactive)
REMARK    1  A    between atoms: C_7  and  C_8 
REMARK    2  A    between atoms: C_8  and  O_9 
REMARK    3  A    between atoms: N_12  and  C_14 
REMARK    4  A    between atoms: C_14  and  C_15 
ROOT
HETATM    1  C   UNL     1       8.760  22.104  53.646  1.00  0.00     0.001 A 
HETATM    2  C   UNL     1       8.415  23.298  53.009  1.00  0.00     0.010 A 
HETATM    3  C   UNL     1       7.475  24.147  53.597  1.00  0.00    -0.018 A 
HETATM    4  C   UNL     1       6.905  23.791  54.824  1.00  0.00     0.075 A 
HETATM    5  O   UNL     1       5.989  24.630  55.410  1.00  0.00    -0.350 OA
HETATM    6  C   UNL     1       6.498  25.970  55.379  1.00  0.00     0.189 C 
HETATM    7  C   UNL     1       6.608  26.507  53.934  1.00  0.00     0.036 C 
HETATM    8  C   UNL     1       6.978  25.393  52.924  1.00  0.00     0.061 C 
HETATM    9  C   UNL     1       5.238  27.040  53.478  1.00  0.00     0.250 C 
HETATM   10  N   UNL     1       4.957  26.394  52.142  1.00  0.00    -0.064 N 
HETATM   11  H   UNL     1       3.934  26.241  52.096  1.00  0.00     0.280 HD
HETATM   12  C   UNL     1       5.677  25.087  52.176  1.00  0.00     0.245 C 
HETATM   13  C   UNL     1       7.218  22.591  55.446  1.00  0.00     0.037 A 
HETATM   14  C   UNL     1       8.157  21.747  54.855  1.00  0.00     0.003 A 
ENDROOT
BRANCH  10  15
HETATM   15  C   UNL     1       5.225  27.252  50.929  1.00  0.00     0.294 C 
BRANCH  15  16
HETATM   16  C   UNL     1       4.190  27.045  49.842  1.00  0.00     0.068 A 
HETATM   17  N   UNL     1       3.383  28.128  49.574  1.00  0.00    -0.233 NA
HETATM   18  C   UNL     1       2.508  28.000  48.617  1.00  0.00     0.137 A 
HETATM   19  N   UNL     1       2.330  26.843  47.865  1.00  0.00    -0.272 N 
HETATM   20  C   UNL     1       1.635  29.162  48.283  1.00  0.00     0.053 A 
HETATM   21  C   UNL     1       3.111  25.729  48.117  1.00  0.00     0.255 A 
HETATM   22  C   UNL     1       1.374  26.783  46.854  1.00  0.00     0.125 A 
HETATM   23  O   UNL     1       3.047  24.650  47.534  1.00  0.00    -0.268 OA
HETATM   24  C   UNL     1       4.114  25.884  49.183  1.00  0.00     0.104 A 
HETATM   25  C   UNL     1       0.596  27.832  46.558  1.00  0.00     0.050 A 
HETATM   26  C   UNL     1       0.735  29.059  47.297  1.00  0.00     0.029 A 
HETATM   27 CL   UNL     1      -0.576  27.751  45.303  1.00  0.00    -0.083 Cl
ENDBRANCH  15  16
ENDBRANCH  10  15
BRANCH   7  28
HETATM   28  C   UNL     1       7.651  27.636  53.919  1.00  0.00     0.178 C 
BRANCH  28  29
HETATM   29  O   UNL     1       7.104  28.767  53.260  1.00  0.00    -0.400 OA
HETATM   30  H   UNL     1       7.399  29.567  53.738  1.00  0.00     0.209 HD
ENDBRANCH  28  29
ENDBRANCH   7  28
TORSDOF 4
ENDMDL
MODEL 2
REMARK VINA RESULT:      -9.6      6.786     10.337
REMARK  4 active torsions:
REMARK  status: ('A' for Active; 'I' for Inactive)
REMARK    1  A    between atoms: C_7  and  C_8 
REMARK    2  A    between atoms: C_8  and  O_9 
REMARK    3  A    between atoms: N_12  and  C_14 
REMARK    4  A    between atoms: C_14  and  C_15 
ROOT
HETATM    1  C   UNL     1       7.254  25.202  51.947  1.00  0.00     0.001 A 
HETATM    2  C   UNL     1       7.742  26.030  52.961  1.00  0.00     0.010 A 
HETATM    3  C   UNL     1       7.022  26.161  54.151  1.00  0.00    -0.018 A 
HETATM    4  C   UNL     1       5.829  25.449  54.311  1.00  0.00     0.075 A 
HETATM    5  O   UNL     1       5.126  25.568  55.484  1.00  0.00    -0.350 OA
HETATM    6  C   UNL     1       6.031  25.428  56.587  1.00  0.00     0.189 C 
HETATM    7  C   UNL     1       7.040  26.597  56.650  1.00  0.00     0.036 C 
HETATM    8  C   UNL     1       7.427  27.110  55.241  1.00  0.00     0.061 C 
HETATM    9  C   UNL     1       6.392  27.798  57.362  1.00  0.00     0.250 C 
HETATM   10  N   UNL     1       6.605  28.991  56.461  1.00  0.00    -0.064 N 
HETATM   11  H   UNL     1       5.772  29.594  56.565  1.00  0.00     0.280 HD
HETATM   12  C   UNL     1       6.673  28.432  55.078  1.00  0.00     0.245 C 
HETATM   13  C   UNL     1       5.321  24.652  53.295  1.00  0.00     0.037 A 
HETATM   14  C   UNL     1       6.044  24.523  52.111  1.00  0.00     0.003 A 
ENDROOT
BRANCH  10  15
HETATM   15  C   UNL     1       7.740  29.909  56.846  1.00  0.00     0.294 C 
BRANCH  15  16
HETATM   16  C   UNL     1       7.467  30.639  58.146  1.00  0.00     0.068 A 
HETATM   17  N   UNL     1       8.304  30.323  59.193  1.00  0.00    -0.233 NA
HETATM   18  C   UNL     1       8.126  30.961  60.315  1.00  0.00     0.137 A 
HETATM   19  N   UNL     1       7.142  31.923  60.524  1.00  0.00    -0.272 N 
HETATM   20  C   UNL     1       9.031  30.662  61.462  1.00  0.00     0.053 A 
HETATM   21  C   UNL     1       6.272  32.254  59.501  1.00  0.00     0.255 A 
HETATM   22  C   UNL     1       7.016  32.565  61.753  1.00  0.00     0.125 A 
HETATM   23  O   UNL     1       5.361  33.075  59.560  1.00  0.00    -0.268 OA
HETATM   24  C   UNL     1       6.490  31.549  58.227  1.00  0.00     0.104 A 
HETATM   25  C   UNL     1       7.834  32.294  62.777  1.00  0.00     0.050 A 
HETATM   26  C   UNL     1       8.875  31.312  62.622  1.00  0.00     0.029 A 
HETATM   27 CL   UNL     1       7.675  33.098  64.288  1.00  0.00    -0.083 Cl
ENDBRANCH  15  16
ENDBRANCH  10  15
BRANCH   7  28
HETATM   28  C   UNL     1       8.279  26.122  57.426  1.00  0.00     0.178 C 
BRANCH  28  29
HETATM   29  O   UNL     1       7.864  25.331  58.527  1.00  0.00    -0.400 OA
HETATM   30  H   UNL     1       8.664  25.012  58.990  1.00  0.00     0.209 HD
ENDBRANCH  28  29
ENDBRANCH   7  28
TORSDOF 4
ENDMDL
MODEL 3
REMARK VINA RESULT:      -9.5      5.905      7.659
REMARK  4 active torsions:
REMARK  status: ('A' for Active; 'I' for Inactive)
REMARK    1  A    between atoms: C_7  and  C_8 
REMARK    2  A    between atoms: C_8  and  O_9 
REMARK    3  A    between atoms: N_12  and  C_14 
REMARK    4  A    between atoms: C_14  and  C_15 
ROOT
HETATM    1  C   UNL     1       8.050  20.322  54.807  1.00  0.00     0.001 A 
HETATM    2  C   UNL     1       7.544  21.428  55.494  1.00  0.00     0.010 A 
HETATM    3  C   UNL     1       7.640  22.699  54.923  1.00  0.00    -0.018 A 
HETATM    4  C   UNL     1       8.232  22.840  53.663  1.00  0.00     0.075 A 
HETATM    5  O   UNL     1       8.317  24.087  53.095  1.00  0.00    -0.350 OA
HETATM    6  C   UNL     1       7.046  24.739  53.209  1.00  0.00     0.189 C 
HETATM    7  C   UNL     1       6.687  25.037  54.683  1.00  0.00     0.036 C 
HETATM    8  C   UNL     1       7.214  23.944  55.644  1.00  0.00     0.061 C 
HETATM    9  C   UNL     1       7.373  26.343  55.126  1.00  0.00     0.250 C 
HETATM   10  N   UNL     1       8.088  26.027  56.418  1.00  0.00    -0.064 N 
HETATM   11  H   UNL     1       8.951  26.598  56.426  1.00  0.00     0.280 HD
HETATM   12  C   UNL     1       8.425  24.575  56.338  1.00  0.00     0.245 C 
HETATM   13  C   UNL     1       8.767  21.751  52.990  1.00  0.00     0.037 A 
HETATM   14  C   UNL     1       8.667  20.484  53.564  1.00  0.00     0.003 A 
ENDROOT
BRANCH  10  15
HETATM   15  C   UNL     1       7.384  26.461  57.680  1.00  0.00     0.294 C 
BRANCH  15  16
HETATM   16  C   UNL     1       6.993  27.925  57.642  1.00  0.00     0.068 A 
HETATM   17  N   UNL     1       5.717  28.190  57.197  1.00  0.00    -0.233 NA
HETATM   18  C   UNL     1       5.332  29.434  57.188  1.00  0.00     0.137 A 
HETATM   19  N   UNL     1       6.127  30.505  57.585  1.00  0.00    -0.272 N 
HETATM   20  C   UNL     1       3.948  29.754  56.736  1.00  0.00     0.053 A 
HETATM   21  C   UNL     1       7.421  30.279  58.023  1.00  0.00     0.255 A 
HETATM   22  C   UNL     1       5.643  31.810  57.552  1.00  0.00     0.125 A 
HETATM   23  O   UNL     1       8.222  31.134  58.390  1.00  0.00    -0.268 OA
HETATM   24  C   UNL     1       7.845  28.870  58.053  1.00  0.00     0.104 A 
HETATM   25  C   UNL     1       4.398  32.089  57.148  1.00  0.00     0.050 A 
HETATM   26  C   UNL     1       3.524  31.025  56.729  1.00  0.00     0.029 A 
HETATM   27 CL   UNL     1       3.807  33.703  57.117  1.00  0.00    -0.083 Cl
ENDBRANCH  15  16
ENDBRANCH  10  15
BRANCH   7  28
HETATM   28  C   UNL     1       5.159  25.176  54.787  1.00  0.00     0.178 C 
BRANCH  28  29
HETATM   29  O   UNL     1       4.820  26.551  54.861  1.00  0.00    -0.400 OA
HETATM   30  H   UNL     1       4.534  26.841  53.972  1.00  0.00     0.209 HD
ENDBRANCH  28  29
ENDBRANCH   7  28
TORSDOF 4
ENDMDL
MODEL 4
REMARK VINA RESULT:      -9.5      5.075      8.106
REMARK  4 active torsions:
REMARK  status: ('A' for Active; 'I' for Inactive)
REMARK    1  A    between atoms: C_7  and  C_8 
REMARK    2  A    between atoms: C_8  and  O_9 
REMARK    3  A    between atoms: N_12  and  C_14 
REMARK    4  A    between atoms: C_14  and  C_15 
ROOT
HETATM    1  C   UNL     1       8.585  31.409  60.688  1.00  0.00     0.001 A 
HETATM    2  C   UNL     1       7.976  30.449  59.876  1.00  0.00     0.010 A 
HETATM    3  C   UNL     1       8.476  30.213  58.593  1.00  0.00    -0.018 A 
HETATM    4  C   UNL     1       9.589  30.934  58.149  1.00  0.00     0.075 A 
HETATM    5  O   UNL     1      10.088  30.696  56.893  1.00  0.00    -0.350 OA
HETATM    6  C   UNL     1      10.206  29.280  56.700  1.00  0.00     0.189 C 
HETATM    7  C   UNL     1       8.824  28.589  56.676  1.00  0.00     0.036 C 
HETATM    8  C   UNL     1       7.813  29.275  57.627  1.00  0.00     0.061 C 
HETATM    9  C   UNL     1       8.212  28.709  55.268  1.00  0.00     0.250 C 
HETATM   10  N   UNL     1       6.815  29.250  55.458  1.00  0.00    -0.064 N 
HETATM   11  H   UNL     1       6.619  29.857  54.643  1.00  0.00     0.280 HD
HETATM   12  C   UNL     1       6.874  30.063  56.709  1.00  0.00     0.245 C 
HETATM   13  C   UNL     1      10.178  31.913  58.937  1.00  0.00     0.037 A 
HETATM   14  C   UNL     1       9.676  32.144  60.217  1.00  0.00     0.003 A 
ENDROOT
BRANCH  10  15
HETATM   15  C   UNL     1       5.703  28.231  55.398  1.00  0.00     0.294 C 
BRANCH  15  16
HETATM   16  C   UNL     1       6.123  26.970  54.670  1.00  0.00     0.068 A 
HETATM   17  N   UNL     1       6.511  25.920  55.473  1.00  0.00    -0.233 NA
HETATM   18  C   UNL     1       6.840  24.806  54.884  1.00  0.00     0.137 A 
HETATM   19  N   UNL     1       6.838  24.616  53.505  1.00  0.00    -0.272 N 
HETATM   20  C   UNL     1       7.242  23.641  55.724  1.00  0.00     0.053 A 
HETATM   21  C   UNL     1       6.470  25.653  52.666  1.00  0.00     0.255 A 
HETATM   22  C   UNL     1       7.199  23.392  52.948  1.00  0.00     0.125 A 
HETATM   23  O   UNL     1       6.434  25.616  51.439  1.00  0.00    -0.268 OA
HETATM   24  C   UNL     1       6.077  26.904  53.335  1.00  0.00     0.104 A 
HETATM   25  C   UNL     1       7.555  22.350  53.709  1.00  0.00     0.050 A 
HETATM   26  C   UNL     1       7.574  22.481  55.142  1.00  0.00     0.029 A 
HETATM   27 CL   UNL     1       7.993  20.840  53.013  1.00  0.00    -0.083 Cl
ENDBRANCH  15  16
ENDBRANCH  10  15
BRANCH   7  28
HETATM   28  C   UNL     1       9.019  27.110  57.048  1.00  0.00     0.178 C 
BRANCH  28  29
HETATM   29  O   UNL     1       7.964  26.702  57.904  1.00  0.00    -0.400 OA
HETATM   30  H   UNL     1       7.977  27.276  58.695  1.00  0.00     0.209 HD
ENDBRANCH  28  29
ENDBRANCH   7  28
TORSDOF 4
ENDMDL
MODEL 5
REMARK VINA RESULT:      -9.1      5.311      7.710
REMARK  4 active torsions:
REMARK  status: ('A' for Active; 'I' for Inactive)
REMARK    1  A    between atoms: C_7  and  C_8 
REMARK    2  A    between atoms: C_8  and  O_9 
REMARK    3  A    between atoms: N_12  and  C_14 
REMARK    4  A    between atoms: C_14  and  C_15 
ROOT
HETATM    1  C   UNL     1      10.920  29.974  56.490  1.00  0.00     0.001 A 
HETATM    2  C   UNL     1       9.700  29.594  55.927  1.00  0.00     0.010 A 
HETATM    3  C   UNL     1       8.543  29.613  56.709  1.00  0.00    -0.018 A 
HETATM    4  C   UNL     1       8.626  30.025  58.043  1.00  0.00     0.075 A 
HETATM    5  O   UNL     1       7.488  30.055  58.811  1.00  0.00    -0.350 OA
HETATM    6  C   UNL     1       6.444  30.703  58.072  1.00  0.00     0.189 C 
HETATM    7  C   UNL     1       6.024  29.880  56.834  1.00  0.00     0.036 C 
HETATM    8  C   UNL     1       7.218  29.121  56.205  1.00  0.00     0.061 C 
HETATM    9  C   UNL     1       5.020  28.792  57.256  1.00  0.00     0.250 C 
HETATM   10  N   UNL     1       5.540  27.493  56.689  1.00  0.00    -0.064 N 
HETATM   11  H   UNL     1       5.293  26.753  57.369  1.00  0.00     0.280 HD
HETATM   12  C   UNL     1       7.022  27.659  56.618  1.00  0.00     0.245 C 
HETATM   13  C   UNL     1       9.840  30.371  58.619  1.00  0.00     0.037 A 
HETATM   14  C   UNL     1      10.991  30.353  57.833  1.00  0.00     0.003 A 
ENDROOT
BRANCH  10  15
HETATM   15  C   UNL     1       4.878  27.019  55.418  1.00  0.00     0.294 C 
BRANCH  15  16
HETATM   16  C   UNL     1       5.690  25.950  54.715  1.00  0.00     0.068 A 
HETATM   17  N   UNL     1       6.093  24.894  55.503  1.00  0.00    -0.233 NA
HETATM   18  C   UNL     1       6.758  23.935  54.925  1.00  0.00     0.137 A 
HETATM   19  N   UNL     1       7.096  23.917  53.575  1.00  0.00    -0.272 N 
HETATM   20  C   UNL     1       7.189  22.766  55.743  1.00  0.00     0.053 A 
HETATM   21  C   UNL     1       6.723  24.968  52.756  1.00  0.00     0.255 A 
HETATM   22  C   UNL     1       7.807  22.853  53.026  1.00  0.00     0.125 A 
HETATM   23  O   UNL     1       6.965  25.075  51.557  1.00  0.00    -0.268 OA
HETATM   24  C   UNL     1       5.951  26.039  53.407  1.00  0.00     0.104 A 
HETATM   25  C   UNL     1       8.187  21.804  53.767  1.00  0.00     0.050 A 
HETATM   26  C   UNL     1       7.864  21.761  55.169  1.00  0.00     0.029 A 
HETATM   27 CL   UNL     1       9.058  20.491  53.079  1.00  0.00    -0.083 Cl
ENDBRANCH  15  16
ENDBRANCH  10  15
BRANCH   7  28
HETATM   28  C   UNL     1       5.378  30.836  55.818  1.00  0.00     0.178 C 
BRANCH  28  29
HETATM   29  O   UNL     1       5.317  30.198  54.552  1.00  0.00    -0.400 OA
HETATM   30  H   UNL     1       5.983  29.483  54.541  1.00  0.00     0.209 HD
ENDBRANCH  28  29
ENDBRANCH   7  28
TORSDOF 4
ENDMDL
MODEL 6
REMARK VINA RESULT:      -8.9      3.256      8.942
REMARK  4 active torsions:
REMARK  status: ('A' for Active; 'I' for Inactive)
REMARK    1  A    between atoms: C_7  and  C_8 
REMARK    2  A    between atoms: C_8  and  O_9 
REMARK    3  A    between atoms: N_12  and  C_14 
REMARK    4  A    between atoms: C_14  and  C_15 
ROOT
HETATM    1  C   UNL     1       0.396  30.595  47.038  1.00  0.00     0.001 A 
HETATM    2  C   UNL     1       1.591  30.330  47.710  1.00  0.00     0.010 A 
HETATM    3  C   UNL     1       2.050  29.015  47.810  1.00  0.00    -0.018 A 
HETATM    4  C   UNL     1       1.307  27.985  47.222  1.00  0.00     0.075 A 
HETATM    5  O   UNL     1       1.762  26.693  47.310  1.00  0.00    -0.350 OA
HETATM    6  C   UNL     1       3.155  26.664  46.970  1.00  0.00     0.189 C 
HETATM    7  C   UNL     1       4.013  27.421  48.008  1.00  0.00     0.036 C 
HETATM    8  C   UNL     1       3.268  28.641  48.603  1.00  0.00     0.061 C 
HETATM    9  C   UNL     1       4.308  26.496  49.203  1.00  0.00     0.250 C 
HETATM   10  N   UNL     1       3.933  27.273  50.443  1.00  0.00    -0.064 N 
HETATM   11  H   UNL     1       3.565  26.585  51.123  1.00  0.00     0.280 HD
HETATM   12  C   UNL     1       2.851  28.206  50.010  1.00  0.00     0.245 C 
HETATM   13  C   UNL     1       0.101  28.237  46.584  1.00  0.00     0.037 A 
HETATM   14  C   UNL     1      -0.351  29.552  46.485  1.00  0.00     0.003 A 
ENDROOT
BRANCH  10  15
HETATM   15  C   UNL     1       5.079  27.910  51.190  1.00  0.00     0.294 C 
BRANCH  15  16
HETATM   16  C   UNL     1       5.573  27.039  52.328  1.00  0.00     0.068 A 
HETATM   17  N   UNL     1       6.376  25.981  51.963  1.00  0.00    -0.233 NA
HETATM   18  C   UNL     1       6.853  25.235  52.918  1.00  0.00     0.137 A 
HETATM   19  N   UNL     1       6.593  25.429  54.271  1.00  0.00    -0.272 N 
HETATM   20  C   UNL     1       7.747  24.096  52.561  1.00  0.00     0.053 A 
HETATM   21  C   UNL     1       5.776  26.471  54.674  1.00  0.00     0.255 A 
HETATM   22  C   UNL     1       7.143  24.589  55.237  1.00  0.00     0.125 A 
HETATM   23  O   UNL     1       5.464  26.743  55.830  1.00  0.00    -0.268 OA
HETATM   24  C   UNL     1       5.258  27.327  53.595  1.00  0.00     0.104 A 
HETATM   25  C   UNL     1       7.947  23.570  54.908  1.00  0.00     0.050 A 
HETATM   26  C   UNL     1       8.259  23.320  53.525  1.00  0.00     0.029 A 
HETATM   27 CL   UNL     1       8.627  22.544  56.107  1.00  0.00    -0.083 Cl
ENDBRANCH  15  16
ENDBRANCH  10  15
BRANCH   7  28
HETATM   28  C   UNL     1       5.324  27.849  47.329  1.00  0.00     0.178 C 
BRANCH  28  29
HETATM   29  O   UNL     1       6.062  26.692  46.971  1.00  0.00    -0.400 OA
HETATM   30  H   UNL     1       6.544  26.383  47.764  1.00  0.00     0.209 HD
ENDBRANCH  28  29
ENDBRANCH   7  28
TORSDOF 4
ENDMDL
MODEL 7
REMARK VINA RESULT:      -8.7      2.481      3.151
REMARK  4 active torsions:
REMARK  status: ('A' for Active; 'I' for Inactive)
REMARK    1  A    between atoms: C_7  and  C_8 
REMARK    2  A    between atoms: C_8  and  O_9 
REMARK    3  A    between atoms: N_12  and  C_14 
REMARK    4  A    between atoms: C_14  and  C_15 
ROOT
HETATM    1  C   UNL     1       8.315  23.649  52.894  1.00  0.00     0.001 A 
HETATM    2  C   UNL     1       7.899  24.957  53.152  1.00  0.00     0.010 A 
HETATM    3  C   UNL     1       7.154  25.231  54.301  1.00  0.00    -0.018 A 
HETATM    4  C   UNL     1       6.847  24.189  55.182  1.00  0.00     0.075 A 
HETATM    5  O   UNL     1       6.124  24.457  56.317  1.00  0.00    -0.350 OA
HETATM    6  C   UNL     1       6.680  25.611  56.962  1.00  0.00     0.189 C 
HETATM    7  C   UNL     1       6.500  26.886  56.108  1.00  0.00     0.036 C 
HETATM    8  C   UNL     1       6.584  26.589  54.591  1.00  0.00     0.061 C 
HETATM    9  C   UNL     1       5.091  27.464  56.337  1.00  0.00     0.250 C 
HETATM   10  N   UNL     1       4.494  27.679  54.967  1.00  0.00    -0.064 N 
HETATM   11  H   UNL     1       3.480  27.492  55.053  1.00  0.00     0.280 HD
HETATM   12  C   UNL     1       5.138  26.657  54.091  1.00  0.00     0.245 C 
HETATM   13  C   UNL     1       7.228  22.881  54.915  1.00  0.00     0.037 A 
HETATM   14  C   UNL     1       7.973  22.614  53.768  1.00  0.00     0.003 A 
ENDROOT
BRANCH  10  15
HETATM   15  C   UNL     1       4.534  29.096  54.449  1.00  0.00     0.294 C 
BRANCH  15  16
HETATM   16  C   UNL     1       4.396  29.157  52.941  1.00  0.00     0.068 A 
HETATM   17  N   UNL     1       3.122  28.965  52.452  1.00  0.00    -0.233 NA
HETATM   18  C   UNL     1       2.958  29.051  51.162  1.00  0.00     0.137 A 
HETATM   19  N   UNL     1       3.981  29.309  50.255  1.00  0.00    -0.272 N 
HETATM   20  C   UNL     1       1.588  28.874  50.601  1.00  0.00     0.053 A 
HETATM   21  C   UNL     1       5.276  29.490  50.708  1.00  0.00     0.255 A 
HETATM   22  C   UNL     1       3.726  29.390  48.889  1.00  0.00     0.125 A 
HETATM   23  O   UNL     1       6.263  29.715  50.014  1.00  0.00    -0.268 OA
HETATM   24  C   UNL     1       5.455  29.416  52.168  1.00  0.00     0.104 A 
HETATM   25  C   UNL     1       2.492  29.233  48.392  1.00  0.00     0.050 A 
HETATM   26  C   UNL     1       1.391  28.968  49.279  1.00  0.00     0.029 A 
HETATM   27 CL   UNL     1       2.186  29.342  46.704  1.00  0.00    -0.083 Cl
ENDBRANCH  15  16
ENDBRANCH  10  15
BRANCH   7  28
HETATM   28  C   UNL     1       7.569  27.905  56.533  1.00  0.00     0.178 C 
BRANCH  28  29
HETATM   29  O   UNL     1       8.099  27.527  57.793  1.00  0.00    -0.400 OA
HETATM   30  H   UNL     1       7.636  26.716  58.084  1.00  0.00     0.209 HD
ENDBRANCH  28  29
ENDBRANCH   7  28
TORSDOF 4
ENDMDL
MODEL 8
REMARK VINA RESULT:      -8.6     10.705     13.577
REMARK  4 active torsions:
REMARK  status: ('A' for Active; 'I' for Inactive)
REMARK    1  A    between atoms: C_7  and  C_8 
REMARK    2  A    between atoms: C_8  and  O_9 
REMARK    3  A    between atoms: N_12  and  C_14 
REMARK    4  A    between atoms: C_14  and  C_15 
ROOT
HETATM    1  C   UNL     1       6.501  34.176  67.996  1.00  0.00     0.001 A 
HETATM    2  C   UNL     1       6.924  34.229  66.666  1.00  0.00     0.010 A 
HETATM    3  C   UNL     1       5.979  34.178  65.638  1.00  0.00    -0.018 A 
HETATM    4  C   UNL     1       4.621  34.086  65.962  1.00  0.00     0.075 A 
HETATM    5  O   UNL     1       3.690  34.046  64.954  1.00  0.00    -0.350 OA
HETATM    6  C   UNL     1       3.987  35.079  64.004  1.00  0.00     0.189 C 
HETATM    7  C   UNL     1       5.323  34.816  63.273  1.00  0.00     0.036 C 
HETATM    8  C   UNL     1       6.363  34.125  64.188  1.00  0.00     0.061 C 
HETATM    9  C   UNL     1       5.087  33.839  62.106  1.00  0.00     0.250 C 
HETATM   10  N   UNL     1       6.117  32.744  62.256  1.00  0.00    -0.064 N 
HETATM   11  H   UNL     1       5.670  31.871  61.929  1.00  0.00     0.280 HD
HETATM   12  C   UNL     1       6.399  32.667  63.720  1.00  0.00     0.245 C 
HETATM   13  C   UNL     1       4.196  33.998  67.280  1.00  0.00     0.037 A 
HETATM   14  C   UNL     1       5.143  34.052  68.301  1.00  0.00     0.003 A 
ENDROOT
BRANCH  10  15
HETATM   15  C   UNL     1       7.330  32.858  61.366  1.00  0.00     0.294 C 
BRANCH  15  16
HETATM   16  C   UNL     1       7.157  32.099  60.066  1.00  0.00     0.068 A 
HETATM   17  N   UNL     1       8.278  31.445  59.604  1.00  0.00    -0.233 NA
HETATM   18  C   UNL     1       8.157  30.749  58.510  1.00  0.00     0.137 A 
HETATM   19  N   UNL     1       6.979  30.635  57.777  1.00  0.00    -0.272 N 
HETATM   20  C   UNL     1       9.344  30.008  57.995  1.00  0.00     0.053 A 
HETATM   21  C   UNL     1       5.837  31.291  58.201  1.00  0.00     0.255 A 
HETATM   22  C   UNL     1       6.926  29.867  56.617  1.00  0.00     0.125 A 
HETATM   23  O   UNL     1       4.743  31.279  57.643  1.00  0.00    -0.268 OA
HETATM   24  C   UNL     1       5.971  32.059  59.450  1.00  0.00     0.104 A 
HETATM   25  C   UNL     1       7.996  29.202  56.163  1.00  0.00     0.050 A 
HETATM   26  C   UNL     1       9.242  29.275  56.879  1.00  0.00     0.029 A 
HETATM   27 CL   UNL     1       7.918  28.250  54.734  1.00  0.00    -0.083 Cl
ENDBRANCH  15  16
ENDBRANCH  10  15
BRANCH   7  28
HETATM   28  C   UNL     1       5.855  36.158  62.745  1.00  0.00     0.178 C 
BRANCH  28  29
HETATM   29  O   UNL     1       6.021  37.053  63.833  1.00  0.00    -0.400 OA
HETATM   30  H   UNL     1       6.859  36.830  64.283  1.00  0.00     0.209 HD
ENDBRANCH  28  29
ENDBRANCH   7  28
TORSDOF 4
ENDMDL
MODEL 9
REMARK VINA RESULT:      -8.6      5.752      8.982
REMARK  4 active torsions:
REMARK  status: ('A' for Active; 'I' for Inactive)
REMARK    1  A    between atoms: C_7  and  C_8 
REMARK    2  A    between atoms: C_8  and  O_9 
REMARK    3  A    between atoms: N_12  and  C_14 
REMARK    4  A    between atoms: C_14  and  C_15 
ROOT
HETATM    1  C   UNL     1       5.731  32.850  59.869  1.00  0.00     0.001 A 
HETATM    2  C   UNL     1       6.104  32.149  58.720  1.00  0.00     0.010 A 
HETATM    3  C   UNL     1       5.169  31.342  58.069  1.00  0.00    -0.018 A 
HETATM    4  C   UNL     1       3.866  31.260  58.574  1.00  0.00     0.075 A 
HETATM    5  O   UNL     1       2.942  30.475  57.929  1.00  0.00    -0.350 OA
HETATM    6  C   UNL     1       2.998  30.750  56.523  1.00  0.00     0.189 C 
HETATM    7  C   UNL     1       4.343  30.305  55.906  1.00  0.00     0.036 C 
HETATM    8  C   UNL     1       5.523  30.479  56.893  1.00  0.00     0.061 C 
HETATM    9  C   UNL     1       4.290  28.799  55.588  1.00  0.00     0.250 C 
HETATM   10  N   UNL     1       5.527  28.193  56.206  1.00  0.00    -0.064 N 
HETATM   11  H   UNL     1       5.264  27.244  56.526  1.00  0.00     0.280 HD
HETATM   12  C   UNL     1       5.852  29.063  57.375  1.00  0.00     0.245 C 
HETATM   13  C   UNL     1       3.498  31.926  59.734  1.00  0.00     0.037 A 
HETATM   14  C   UNL     1       4.435  32.732  60.379  1.00  0.00     0.003 A 
ENDROOT
BRANCH  10  15
HETATM   15  C   UNL     1       6.671  27.926  55.258  1.00  0.00     0.294 C 
BRANCH  15  16
HETATM   16  C   UNL     1       7.154  26.491  55.335  1.00  0.00     0.068 A 
HETATM   17  N   UNL     1       7.011  25.752  54.181  1.00  0.00    -0.233 NA
HETATM   18  C   UNL     1       7.453  24.527  54.198  1.00  0.00     0.137 A 
HETATM   19  N   UNL     1       8.041  23.918  55.302  1.00  0.00    -0.272 N 
HETATM   20  C   UNL     1       7.338  23.706  52.958  1.00  0.00     0.053 A 
HETATM   21  C   UNL     1       8.186  24.624  56.484  1.00  0.00     0.255 A 
HETATM   22  C   UNL     1       8.493  22.603  55.242  1.00  0.00     0.125 A 
HETATM   23  O   UNL     1       8.678  24.202  57.526  1.00  0.00    -0.268 OA
HETATM   24  C   UNL     1       7.707  26.016  56.456  1.00  0.00     0.104 A 
HETATM   25  C   UNL     1       8.389  21.873  54.124  1.00  0.00     0.050 A 
HETATM   26  C   UNL     1       7.794  22.447  52.946  1.00  0.00     0.029 A 
HETATM   27 CL   UNL     1       8.957  20.252  54.057  1.00  0.00    -0.083 Cl
ENDBRANCH  15  16
ENDBRANCH  10  15
BRANCH   7  28
HETATM   28  C   UNL     1       4.573  31.113  54.619  1.00  0.00     0.178 C 
BRANCH  28  29
HETATM   29  O   UNL     1       4.879  30.224  53.558  1.00  0.00    -0.400 OA
HETATM   30  H   UNL     1       4.071  30.103  53.021  1.00  0.00     0.209 HD
ENDBRANCH  28  29
ENDBRANCH   7  28
TORSDOF 4
ENDMDL
MODEL 10
REMARK VINA RESULT:      -8.6      1.980      2.784
REMARK  4 active torsions:
REMARK  status: ('A' for Active; 'I' for Inactive)
REMARK    1  A    between atoms: C_7  and  C_8 
REMARK    2  A    between atoms: C_8  and  O_9 
REMARK    3  A    between atoms: N_12  and  C_14 
REMARK    4  A    between atoms: C_14  and  C_15 
ROOT
HETATM    1  C   UNL     1       8.015  23.139  52.987  1.00  0.00     0.001 A 
HETATM    2  C   UNL     1       7.711  24.500  52.922  1.00  0.00     0.010 A 
HETATM    3  C   UNL     1       7.229  25.155  54.058  1.00  0.00    -0.018 A 
HETATM    4  C   UNL     1       7.071  24.435  55.248  1.00  0.00     0.075 A 
HETATM    5  O   UNL     1       6.608  25.079  56.368  1.00  0.00    -0.350 OA
HETATM    6  C   UNL     1       7.328  26.308  56.530  1.00  0.00     0.189 C 
HETATM    7  C   UNL     1       7.024  27.305  55.389  1.00  0.00     0.036 C 
HETATM    8  C   UNL     1       6.783  26.588  54.038  1.00  0.00     0.061 C 
HETATM    9  C   UNL     1       5.715  28.055  55.697  1.00  0.00     0.250 C 
HETATM   10  N   UNL     1       4.857  27.934  54.460  1.00  0.00    -0.064 N 
HETATM   11  H   UNL     1       3.876  27.877  54.784  1.00  0.00     0.280 HD
HETATM   12  C   UNL     1       5.268  26.651  53.818  1.00  0.00     0.245 C 
HETATM   13  C   UNL     1       7.339  23.075  55.310  1.00  0.00     0.037 A 
HETATM   14  C   UNL     1       7.822  22.427  54.174  1.00  0.00     0.003 A 
ENDROOT
BRANCH  10  15
HETATM   15  C   UNL     1       4.843  29.139  53.551  1.00  0.00     0.294 C 
BRANCH  15  16
HETATM   16  C   UNL     1       4.111  28.866  52.252  1.00  0.00     0.068 A 
HETATM   17  N   UNL     1       4.648  27.874  51.463  1.00  0.00    -0.233 NA
HETATM   18  C   UNL     1       4.022  27.584  50.358  1.00  0.00     0.137 A 
HETATM   19  N   UNL     1       2.862  28.218  49.922  1.00  0.00    -0.272 N 
HETATM   20  C   UNL     1       4.561  26.497  49.491  1.00  0.00     0.053 A 
HETATM   21  C   UNL     1       2.303  29.231  50.681  1.00  0.00     0.255 A 
HETATM   22  C   UNL     1       2.246  27.849  48.729  1.00  0.00     0.125 A 
HETATM   23  O   UNL     1       1.292  29.871  50.405  1.00  0.00    -0.268 OA
HETATM   24  C   UNL     1       2.999  29.541  51.940  1.00  0.00     0.104 A 
HETATM   25  C   UNL     1       2.735  26.869  47.958  1.00  0.00     0.050 A 
HETATM   26  C   UNL     1       3.929  26.172  48.356  1.00  0.00     0.029 A 
HETATM   27 CL   UNL     1       1.964  26.416  46.490  1.00  0.00    -0.083 Cl
ENDBRANCH  15  16
ENDBRANCH  10  15
BRANCH   7  28
HETATM   28  C   UNL     1       8.195  28.295  55.289  1.00  0.00     0.178 C 
BRANCH  28  29
HETATM   29  O   UNL     1       8.428  28.605  53.925  1.00  0.00    -0.400 OA
HETATM   30  H   UNL     1       9.120  29.295  53.886  1.00  0.00     0.209 HD
ENDBRANCH  28  29
ENDBRANCH   7  28
TORSDOF 4
ENDMDL
