MODEL 1
REMARK VINA RESULT:      -8.4      0.000      0.000
REMARK  2 active torsions:
REMARK  status: ('A' for Active; 'I' for Inactive)
REMARK    1  A    between atoms: C_2  and  C_3 
REMARK       I    between atoms: C_3  and  N_4 
REMARK    2  A    between atoms: N_4  and  C_5 
ROOT
HETATM    1  C   UNL     1       7.534  27.946  57.686  1.00  0.00     0.174 A 
HETATM    2  S   UNL     1       7.006  28.087  56.078  1.00  0.00    -0.050 SA
HETATM    3  C   UNL     1       7.481  26.461  55.769  1.00  0.00     0.040 A 
HETATM    4  C   UNL     1       8.012  25.920  56.950  1.00  0.00     0.079 A 
HETATM    5  N   UNL     1       8.029  26.783  58.033  1.00  0.00    -0.223 NA
HETATM    6  C   UNL     1       7.391  25.726  54.572  1.00  0.00     0.061 A 
HETATM    7  C   UNL     1       7.864  24.429  54.628  1.00  0.00     0.106 A 
HETATM    8  C   UNL     1       8.386  23.880  55.772  1.00  0.00     0.107 A 
HETATM    9  O   UNL     1       8.791  22.593  55.593  1.00  0.00    -0.323 OA
HETATM   10  C   UNL     1       8.470  22.396  54.201  1.00  0.00     0.352 A 
HETATM   11  O   UNL     1       7.875  23.556  53.583  1.00  0.00    -0.323 OA
HETATM   12  C   UNL     1       8.478  24.586  56.956  1.00  0.00     0.073 A 
ENDROOT
BRANCH   1  13
HETATM   13  N   UNL     1       7.469  28.971  58.591  1.00  0.00    -0.301 N 
HETATM   14  C   UNL     1       8.383  29.979  58.799  1.00  0.00     0.264 C 
HETATM   15  O   UNL     1       9.418  30.135  58.161  1.00  0.00    -0.267 OA
HETATM   16  H   UNL     1       6.643  28.940  59.173  1.00  0.00     0.171 HD
BRANCH  14  17
HETATM   17  C   UNL     1       8.032  30.901  59.882  1.00  0.00     0.074 A 
HETATM   18  C   UNL     1       7.074  31.903  59.836  1.00  0.00     0.027 A 
HETATM   19  C   UNL     1       6.980  32.636  61.056  1.00  0.00     0.033 A 
HETATM   20  C   UNL     1       7.869  32.158  61.982  1.00  0.00     0.075 A 
HETATM   21  S   UNL     1       8.802  30.865  61.420  1.00  0.00    -0.072 SA
HETATM   22 CL   UNL     1       8.098  32.742  63.580  1.00  0.00    -0.076 Cl
ENDBRANCH  14  17
ENDBRANCH   1  13
TORSDOF 2
ENDMDL
MODEL 2
REMARK VINA RESULT:      -8.2      5.063      9.974
REMARK  2 active torsions:
REMARK  status: ('A' for Active; 'I' for Inactive)
REMARK    1  A    between atoms: C_2  and  C_3 
REMARK       I    between atoms: C_3  and  N_4 
REMARK    2  A    between atoms: N_4  and  C_5 
ROOT
HETATM    1  C   UNL     1       7.434  31.595  61.477  1.00  0.00     0.174 A 
HETATM    2  S   UNL     1       8.542  32.100  62.661  1.00  0.00    -0.050 SA
HETATM    3  C   UNL     1       7.250  32.701  63.628  1.00  0.00     0.040 A 
HETATM    4  C   UNL     1       6.041  32.455  62.959  1.00  0.00     0.079 A 
HETATM    5  N   UNL     1       6.168  31.820  61.735  1.00  0.00    -0.223 NA
HETATM    6  C   UNL     1       7.308  33.341  64.881  1.00  0.00     0.061 A 
HETATM    7  C   UNL     1       6.092  33.721  65.416  1.00  0.00     0.106 A 
HETATM    8  C   UNL     1       4.899  33.490  64.779  1.00  0.00     0.107 A 
HETATM    9  O   UNL     1       3.833  33.951  65.490  1.00  0.00    -0.323 OA
HETATM   10  C   UNL     1       4.494  34.506  66.646  1.00  0.00     0.352 A 
HETATM   11  O   UNL     1       5.928  34.357  66.609  1.00  0.00    -0.323 OA
HETATM   12  C   UNL     1       4.824  32.860  63.552  1.00  0.00     0.073 A 
ENDROOT
BRANCH   1  13
HETATM   13  N   UNL     1       7.806  30.992  60.306  1.00  0.00    -0.301 N 
HETATM   14  C   UNL     1       8.613  31.496  59.311  1.00  0.00     0.264 C 
HETATM   15  O   UNL     1       9.165  32.591  59.338  1.00  0.00    -0.267 OA
HETATM   16  H   UNL     1       7.406  30.072  60.184  1.00  0.00     0.171 HD
BRANCH  14  17
HETATM   17  C   UNL     1       8.782  30.607  58.159  1.00  0.00     0.074 A 
HETATM   18  C   UNL     1       9.979  30.268  57.547  1.00  0.00     0.027 A 
HETATM   19  C   UNL     1       9.804  29.386  56.440  1.00  0.00     0.033 A 
HETATM   20  C   UNL     1       8.480  29.089  56.257  1.00  0.00     0.075 A 
HETATM   21  S   UNL     1       7.457  29.839  57.375  1.00  0.00    -0.072 SA
HETATM   22 CL   UNL     1       7.816  28.071  55.045  1.00  0.00    -0.076 Cl
ENDBRANCH  14  17
ENDBRANCH   1  13
TORSDOF 2
ENDMDL
MODEL 3
REMARK VINA RESULT:      -8.1      1.510      1.927
REMARK  2 active torsions:
REMARK  status: ('A' for Active; 'I' for Inactive)
REMARK    1  A    between atoms: C_2  and  C_3 
REMARK       I    between atoms: C_3  and  N_4 
REMARK    2  A    between atoms: N_4  and  C_5 
ROOT
HETATM    1  C   UNL     1       7.470  26.509  56.905  1.00  0.00     0.174 A 
HETATM    2  S   UNL     1       7.091  26.245  55.270  1.00  0.00    -0.050 SA
HETATM    3  C   UNL     1       7.558  24.594  55.419  1.00  0.00     0.040 A 
HETATM    4  C   UNL     1       7.970  24.364  56.741  1.00  0.00     0.079 A 
HETATM    5  N   UNL     1       7.909  25.470  57.573  1.00  0.00    -0.223 NA
HETATM    6  C   UNL     1       7.560  23.585  54.437  1.00  0.00     0.061 A 
HETATM    7  C   UNL     1       7.999  22.344  54.856  1.00  0.00     0.106 A 
HETATM    8  C   UNL     1       8.406  22.097  56.143  1.00  0.00     0.107 A 
HETATM    9  O   UNL     1       8.798  20.806  56.325  1.00  0.00    -0.323 OA
HETATM   10  C   UNL     1       8.599  20.269  55.002  1.00  0.00     0.352 A 
HETATM   11  O   UNL     1       8.085  21.238  54.065  1.00  0.00    -0.323 OA
HETATM   12  C   UNL     1       8.406  23.075  57.119  1.00  0.00     0.073 A 
ENDROOT
BRANCH   1  13
HETATM   13  N   UNL     1       7.347  27.726  57.519  1.00  0.00    -0.301 N 
HETATM   14  C   UNL     1       8.294  28.717  57.639  1.00  0.00     0.264 C 
HETATM   15  O   UNL     1       9.426  28.670  57.171  1.00  0.00    -0.267 OA
HETATM   16  H   UNL     1       6.439  27.872  57.939  1.00  0.00     0.171 HD
BRANCH  14  17
HETATM   17  C   UNL     1       7.852  29.890  58.397  1.00  0.00     0.074 A 
HETATM   18  C   UNL     1       6.744  30.678  58.127  1.00  0.00     0.027 A 
HETATM   19  C   UNL     1       6.592  31.755  59.050  1.00  0.00     0.033 A 
HETATM   20  C   UNL     1       7.591  31.739  59.987  1.00  0.00     0.075 A 
HETATM   21  S   UNL     1       8.692  30.473  59.781  1.00  0.00    -0.072 SA
HETATM   22 CL   UNL     1       7.799  32.847  61.281  1.00  0.00    -0.076 Cl
ENDBRANCH  14  17
ENDBRANCH   1  13
TORSDOF 2
ENDMDL
MODEL 4
REMARK VINA RESULT:      -8.0      4.155      8.603
REMARK  2 active torsions:
REMARK  status: ('A' for Active; 'I' for Inactive)
REMARK    1  A    between atoms: C_2  and  C_3 
REMARK       I    between atoms: C_3  and  N_4 
REMARK    2  A    between atoms: N_4  and  C_5 
ROOT
HETATM    1  C   UNL     1       7.516  27.537  56.215  1.00  0.00     0.174 A 
HETATM    2  S   UNL     1       6.119  28.495  56.351  1.00  0.00    -0.050 SA
HETATM    3  C   UNL     1       6.940  29.556  57.431  1.00  0.00     0.040 A 
HETATM    4  C   UNL     1       8.253  29.089  57.602  1.00  0.00     0.079 A 
HETATM    5  N   UNL     1       8.562  27.938  56.896  1.00  0.00    -0.223 NA
HETATM    6  C   UNL     1       6.454  30.708  58.077  1.00  0.00     0.061 A 
HETATM    7  C   UNL     1       7.354  31.358  58.899  1.00  0.00     0.106 A 
HETATM    8  C   UNL     1       8.641  30.921  59.080  1.00  0.00     0.107 A 
HETATM    9  O   UNL     1       9.345  31.714  59.934  1.00  0.00    -0.323 OA
HETATM   10  C   UNL     1       8.348  32.699  60.276  1.00  0.00     0.352 A 
HETATM   11  O   UNL     1       7.084  32.483  59.617  1.00  0.00    -0.323 OA
HETATM   12  C   UNL     1       9.135  29.794  58.451  1.00  0.00     0.073 A 
ENDROOT
BRANCH   1  13
HETATM   13  N   UNL     1       7.578  26.401  55.454  1.00  0.00    -0.301 N 
HETATM   14  C   UNL     1       7.403  25.097  55.860  1.00  0.00     0.264 C 
HETATM   15  O   UNL     1       7.125  24.745  57.001  1.00  0.00    -0.267 OA
HETATM   16  H   UNL     1       7.798  26.580  54.484  1.00  0.00     0.171 HD
BRANCH  14  17
HETATM   17  C   UNL     1       7.578  24.104  54.797  1.00  0.00     0.074 A 
HETATM   18  C   UNL     1       7.655  24.356  53.436  1.00  0.00     0.027 A 
HETATM   19  C   UNL     1       7.817  23.169  52.662  1.00  0.00     0.033 A 
HETATM   20  C   UNL     1       7.857  22.062  53.467  1.00  0.00     0.075 A 
HETATM   21  S   UNL     1       7.707  22.418  55.114  1.00  0.00    -0.072 SA
HETATM   22 CL   UNL     1       8.037  20.432  52.961  1.00  0.00    -0.076 Cl
ENDBRANCH  14  17
ENDBRANCH   1  13
TORSDOF 2
ENDMDL
MODEL 5
REMARK VINA RESULT:      -8.0      1.709      2.588
REMARK  2 active torsions:
REMARK  status: ('A' for Active; 'I' for Inactive)
REMARK    1  A    between atoms: C_2  and  C_3 
REMARK       I    between atoms: C_3  and  N_4 
REMARK    2  A    between atoms: N_4  and  C_5 
ROOT
HETATM    1  C   UNL     1       7.760  26.254  56.817  1.00  0.00     0.174 A 
HETATM    2  S   UNL     1       8.460  24.959  57.662  1.00  0.00    -0.050 SA
HETATM    3  C   UNL     1       8.302  23.953  56.273  1.00  0.00     0.040 A 
HETATM    4  C   UNL     1       7.719  24.706  55.242  1.00  0.00     0.079 A 
HETATM    5  N   UNL     1       7.421  26.018  55.572  1.00  0.00    -0.223 NA
HETATM    6  C   UNL     1       8.665  22.603  56.114  1.00  0.00     0.061 A 
HETATM    7  C   UNL     1       8.408  22.056  54.872  1.00  0.00     0.106 A 
HETATM    8  C   UNL     1       7.839  22.773  53.850  1.00  0.00     0.107 A 
HETATM    9  O   UNL     1       7.677  22.031  52.721  1.00  0.00    -0.323 OA
HETATM   10  C   UNL     1       8.203  20.759  53.152  1.00  0.00     0.352 A 
HETATM   11  O   UNL     1       8.675  20.769  54.514  1.00  0.00    -0.323 OA
HETATM   12  C   UNL     1       7.481  24.101  53.988  1.00  0.00     0.073 A 
ENDROOT
BRANCH   1  13
HETATM   13  N   UNL     1       7.538  27.485  57.374  1.00  0.00    -0.301 N 
HETATM   14  C   UNL     1       8.415  28.540  57.478  1.00  0.00     0.264 C 
HETATM   15  O   UNL     1       9.563  28.548  57.046  1.00  0.00    -0.267 OA
HETATM   16  H   UNL     1       6.610  27.589  57.760  1.00  0.00     0.171 HD
BRANCH  14  17
HETATM   17  C   UNL     1       7.874  29.712  58.171  1.00  0.00     0.074 A 
HETATM   18  C   UNL     1       6.737  30.425  57.824  1.00  0.00     0.027 A 
HETATM   19  C   UNL     1       6.484  31.523  58.697  1.00  0.00     0.033 A 
HETATM   20  C   UNL     1       7.439  31.599  59.676  1.00  0.00     0.075 A 
HETATM   21  S   UNL     1       8.618  30.392  59.565  1.00  0.00    -0.072 SA
HETATM   22 CL   UNL     1       7.527  32.763  60.934  1.00  0.00    -0.076 Cl
ENDBRANCH  14  17
ENDBRANCH   1  13
TORSDOF 2
ENDMDL
MODEL 6
REMARK VINA RESULT:      -7.8      5.477     10.471
REMARK  2 active torsions:
REMARK  status: ('A' for Active; 'I' for Inactive)
REMARK    1  A    between atoms: C_2  and  C_3 
REMARK       I    between atoms: C_3  and  N_4 
REMARK    2  A    between atoms: N_4  and  C_5 
ROOT
HETATM    1  C   UNL     1       6.774  32.009  62.242  1.00  0.00     0.174 A 
HETATM    2  S   UNL     1       5.107  32.311  62.366  1.00  0.00    -0.050 SA
HETATM    3  C   UNL     1       5.343  33.032  63.912  1.00  0.00     0.040 A 
HETATM    4  C   UNL     1       6.713  32.992  64.218  1.00  0.00     0.079 A 
HETATM    5  N   UNL     1       7.512  32.407  63.250  1.00  0.00    -0.223 NA
HETATM    6  C   UNL     1       4.387  33.586  64.784  1.00  0.00     0.061 A 
HETATM    7  C   UNL     1       4.881  34.090  65.972  1.00  0.00     0.106 A 
HETATM    8  C   UNL     1       6.215  34.062  66.291  1.00  0.00     0.107 A 
HETATM    9  O   UNL     1       6.469  34.610  67.511  1.00  0.00    -0.323 OA
HETATM   10  C   UNL     1       5.139  34.981  67.927  1.00  0.00     0.352 A 
HETATM   11  O   UNL     1       4.126  34.660  66.952  1.00  0.00    -0.323 OA
HETATM   12  C   UNL     1       7.166  33.525  65.445  1.00  0.00     0.073 A 
ENDROOT
BRANCH   1  13
HETATM   13  N   UNL     1       7.347  31.379  61.170  1.00  0.00    -0.301 N 
HETATM   14  C   UNL     1       8.177  31.917  60.214  1.00  0.00     0.264 C 
HETATM   15  O   UNL     1       8.568  33.079  60.192  1.00  0.00    -0.267 OA
HETATM   16  H   UNL     1       7.092  30.403  61.095  1.00  0.00     0.171 HD
BRANCH  14  17
HETATM   17  C   UNL     1       8.587  30.976  59.168  1.00  0.00     0.074 A 
HETATM   18  C   UNL     1       7.910  29.832  58.776  1.00  0.00     0.027 A 
HETATM   19  C   UNL     1       8.578  29.122  57.735  1.00  0.00     0.033 A 
HETATM   20  C   UNL     1       9.738  29.758  57.377  1.00  0.00     0.075 A 
HETATM   21  S   UNL     1      10.033  31.171  58.257  1.00  0.00    -0.072 SA
HETATM   22 CL   UNL     1      10.852  29.256  56.173  1.00  0.00    -0.076 Cl
ENDBRANCH  14  17
ENDBRANCH   1  13
TORSDOF 2
ENDMDL
MODEL 7
REMARK VINA RESULT:      -7.7      4.428      8.757
REMARK  2 active torsions:
REMARK  status: ('A' for Active; 'I' for Inactive)
REMARK    1  A    between atoms: C_2  and  C_3 
REMARK       I    between atoms: C_3  and  N_4 
REMARK    2  A    between atoms: N_4  and  C_5 
ROOT
HETATM    1  C   UNL     1       7.207  26.985  56.634  1.00  0.00     0.174 A 
HETATM    2  S   UNL     1       8.473  27.955  57.218  1.00  0.00    -0.050 SA
HETATM    3  C   UNL     1       7.358  29.219  57.567  1.00  0.00     0.040 A 
HETATM    4  C   UNL     1       6.070  28.789  57.209  1.00  0.00     0.079 A 
HETATM    5  N   UNL     1       6.006  27.509  56.682  1.00  0.00    -0.223 NA
HETATM    6  C   UNL     1       7.608  30.492  58.113  1.00  0.00     0.061 A 
HETATM    7  C   UNL     1       6.501  31.302  58.274  1.00  0.00     0.106 A 
HETATM    8  C   UNL     1       5.234  30.902  57.932  1.00  0.00     0.107 A 
HETATM    9  O   UNL     1       4.302  31.864  58.175  1.00  0.00    -0.323 OA
HETATM   10  C   UNL     1       5.129  32.920  58.704  1.00  0.00     0.352 A 
HETATM   11  O   UNL     1       6.526  32.568  58.776  1.00  0.00    -0.323 OA
HETATM   12  C   UNL     1       4.971  29.655  57.399  1.00  0.00     0.073 A 
ENDROOT
BRANCH   1  13
HETATM   13  N   UNL     1       7.394  25.727  56.127  1.00  0.00    -0.301 N 
HETATM   14  C   UNL     1       7.370  25.332  54.809  1.00  0.00     0.264 C 
HETATM   15  O   UNL     1       7.200  26.078  53.851  1.00  0.00    -0.267 OA
HETATM   16  H   UNL     1       7.550  25.027  56.839  1.00  0.00     0.171 HD
BRANCH  14  17
HETATM   17  C   UNL     1       7.567  23.894  54.604  1.00  0.00     0.074 A 
HETATM   18  C   UNL     1       7.486  22.904  55.571  1.00  0.00     0.027 A 
HETATM   19  C   UNL     1       7.740  21.600  55.052  1.00  0.00     0.033 A 
HETATM   20  C   UNL     1       8.004  21.653  53.709  1.00  0.00     0.075 A 
HETATM   21  S   UNL     1       7.952  23.218  53.070  1.00  0.00    -0.072 SA
HETATM   22 CL   UNL     1       8.366  20.326  52.682  1.00  0.00    -0.076 Cl
ENDBRANCH  14  17
ENDBRANCH   1  13
TORSDOF 2
ENDMDL
MODEL 8
REMARK VINA RESULT:      -7.6      7.275      8.470
REMARK  2 active torsions:
REMARK  status: ('A' for Active; 'I' for Inactive)
REMARK    1  A    between atoms: C_2  and  C_3 
REMARK       I    between atoms: C_3  and  N_4 
REMARK    2  A    between atoms: N_4  and  C_5 
ROOT
HETATM    1  C   UNL     1       6.634  25.627  52.472  1.00  0.00     0.174 A 
HETATM    2  S   UNL     1       6.362  25.699  54.147  1.00  0.00    -0.050 SA
HETATM    3  C   UNL     1       7.026  24.121  54.332  1.00  0.00     0.040 A 
HETATM    4  C   UNL     1       7.422  23.653  53.070  1.00  0.00     0.079 A 
HETATM    5  N   UNL     1       7.193  24.530  52.022  1.00  0.00    -0.223 NA
HETATM    6  C   UNL     1       7.180  23.359  55.506  1.00  0.00     0.061 A 
HETATM    7  C   UNL     1       7.747  22.110  55.340  1.00  0.00     0.106 A 
HETATM    8  C   UNL     1       8.141  21.633  54.115  1.00  0.00     0.107 A 
HETATM    9  O   UNL     1       8.668  20.381  54.191  1.00  0.00    -0.323 OA
HETATM   10  C   UNL     1       8.554  20.120  55.605  1.00  0.00     0.352 A 
HETATM   11  O   UNL     1       7.976  21.217  56.341  1.00  0.00    -0.323 OA
HETATM   12  C   UNL     1       8.000  22.369  52.954  1.00  0.00     0.073 A 
ENDROOT
BRANCH   1  13
HETATM   13  N   UNL     1       6.294  26.635  51.611  1.00  0.00    -0.301 N 
HETATM   14  C   UNL     1       5.325  26.626  50.634  1.00  0.00     0.264 C 
HETATM   15  O   UNL     1       4.572  25.688  50.397  1.00  0.00    -0.267 OA
HETATM   16  H   UNL     1       6.856  27.467  51.725  1.00  0.00     0.171 HD
BRANCH  14  17
HETATM   17  C   UNL     1       5.242  27.862  49.851  1.00  0.00     0.074 A 
HETATM   18  C   UNL     1       5.504  29.145  50.304  1.00  0.00     0.027 A 
HETATM   19  C   UNL     1       5.322  30.137  49.296  1.00  0.00     0.033 A 
HETATM   20  C   UNL     1       4.929  29.566  48.115  1.00  0.00     0.075 A 
HETATM   21  S   UNL     1       4.778  27.883  48.195  1.00  0.00    -0.072 SA
HETATM   22 CL   UNL     1       4.595  30.382  46.642  1.00  0.00    -0.076 Cl
ENDBRANCH  14  17
ENDBRANCH   1  13
TORSDOF 2
ENDMDL
MODEL 9
REMARK VINA RESULT:      -7.4      2.255      2.718
REMARK  2 active torsions:
REMARK  status: ('A' for Active; 'I' for Inactive)
REMARK    1  A    between atoms: C_2  and  C_3 
REMARK       I    between atoms: C_3  and  N_4 
REMARK    2  A    between atoms: N_4  and  C_5 
ROOT
HETATM    1  C   UNL     1       6.449  29.201  57.372  1.00  0.00     0.174 A 
HETATM    2  S   UNL     1       5.836  29.971  55.988  1.00  0.00    -0.050 SA
HETATM    3  C   UNL     1       5.674  28.448  55.200  1.00  0.00     0.040 A 
HETATM    4  C   UNL     1       6.103  27.443  56.081  1.00  0.00     0.079 A 
HETATM    5  N   UNL     1       6.538  27.894  57.316  1.00  0.00    -0.223 NA
HETATM    6  C   UNL     1       5.204  28.170  53.903  1.00  0.00     0.061 A 
HETATM    7  C   UNL     1       5.194  26.836  53.542  1.00  0.00     0.106 A 
HETATM    8  C   UNL     1       5.609  25.838  54.387  1.00  0.00     0.107 A 
HETATM    9  O   UNL     1       5.514  24.604  53.819  1.00  0.00    -0.323 OA
HETATM   10  C   UNL     1       4.998  24.941  52.516  1.00  0.00     0.352 A 
HETATM   11  O   UNL     1       4.786  26.356  52.335  1.00  0.00    -0.323 OA
HETATM   12  C   UNL     1       6.069  26.093  55.665  1.00  0.00     0.073 A 
ENDROOT
BRANCH   1  13
HETATM   13  N   UNL     1       6.846  29.875  58.495  1.00  0.00    -0.301 N 
HETATM   14  C   UNL     1       8.128  30.155  58.909  1.00  0.00     0.264 C 
HETATM   15  O   UNL     1       9.147  29.857  58.296  1.00  0.00    -0.267 OA
HETATM   16  H   UNL     1       6.075  30.174  59.076  1.00  0.00     0.171 HD
BRANCH  14  17
HETATM   17  C   UNL     1       8.211  30.864  60.188  1.00  0.00     0.074 A 
HETATM   18  C   UNL     1       9.191  30.706  61.157  1.00  0.00     0.027 A 
HETATM   19  C   UNL     1       8.981  31.537  62.297  1.00  0.00     0.033 A 
HETATM   20  C   UNL     1       7.849  32.295  62.147  1.00  0.00     0.075 A 
HETATM   21  S   UNL     1       7.047  32.030  60.683  1.00  0.00    -0.072 SA
HETATM   22 CL   UNL     1       7.219  33.428  63.271  1.00  0.00    -0.076 Cl
ENDBRANCH  14  17
ENDBRANCH   1  13
TORSDOF 2
ENDMDL
MODEL 10
REMARK VINA RESULT:      -7.3      7.110      9.583
REMARK  2 active torsions:
REMARK  status: ('A' for Active; 'I' for Inactive)
REMARK    1  A    between atoms: C_2  and  C_3 
REMARK       I    between atoms: C_3  and  N_4 
REMARK    2  A    between atoms: N_4  and  C_5 
ROOT
HETATM    1  C   UNL     1       5.360  25.937  51.940  1.00  0.00     0.174 A 
HETATM    2  S   UNL     1       4.666  27.224  52.805  1.00  0.00    -0.050 SA
HETATM    3  C   UNL     1       4.316  28.040  51.330  1.00  0.00     0.040 A 
HETATM    4  C   UNL     1       4.760  27.243  50.263  1.00  0.00     0.079 A 
HETATM    5  N   UNL     1       5.349  26.045  50.634  1.00  0.00    -0.223 NA
HETATM    6  C   UNL     1       3.698  29.290  51.137  1.00  0.00     0.061 A 
HETATM    7  C   UNL     1       3.556  29.691  49.822  1.00  0.00     0.106 A 
HETATM    8  C   UNL     1       3.982  28.927  48.765  1.00  0.00     0.107 A 
HETATM    9  O   UNL     1       3.742  29.522  47.564  1.00  0.00    -0.323 OA
HETATM   10  C   UNL     1       3.121  30.753  47.988  1.00  0.00     0.352 A 
HETATM   11  O   UNL     1       2.993  30.864  49.420  1.00  0.00    -0.323 OA
HETATM   12  C   UNL     1       4.586  27.697  48.937  1.00  0.00     0.073 A 
ENDROOT
BRANCH   1  13
HETATM   13  N   UNL     1       5.916  24.840  52.540  1.00  0.00    -0.301 N 
HETATM   14  C   UNL     1       7.149  24.736  53.144  1.00  0.00     0.264 C 
HETATM   15  O   UNL     1       7.954  25.652  53.265  1.00  0.00    -0.267 OA
HETATM   16  H   UNL     1       5.326  24.020  52.502  1.00  0.00     0.171 HD
BRANCH  14  17
HETATM   17  C   UNL     1       7.461  23.399  53.657  1.00  0.00     0.074 A 
HETATM   18  C   UNL     1       7.784  22.281  52.904  1.00  0.00     0.027 A 
HETATM   19  C   UNL     1       8.025  21.125  53.704  1.00  0.00     0.033 A 
HETATM   20  C   UNL     1       7.877  21.414  55.035  1.00  0.00     0.075 A 
HETATM   21  S   UNL     1       7.460  23.024  55.336  1.00  0.00    -0.072 SA
HETATM   22 CL   UNL     1       8.070  20.325  56.348  1.00  0.00    -0.076 Cl
ENDBRANCH  14  17
ENDBRANCH   1  13
TORSDOF 2
ENDMDL
