MODEL 1
REMARK VINA RESULT:      -9.2      0.000      0.000
REMARK  5 active torsions:
REMARK  status: ('A' for Active; 'I' for Inactive)
REMARK    1  A    between atoms: C_8  and  C_9 
REMARK       I    between atoms: C_9  and  N_10 
REMARK    2  A    between atoms: N_10  and  C_11 
REMARK    3  A    between atoms: C_14  and  N_15 
REMARK       I    between atoms: N_15  and  C_16 
REMARK       I    between atoms: C_16  and  N_17 
REMARK    4  A    between atoms: N_17  and  C_18 
REMARK    5  A    between atoms: C_18  and  C_19 
ROOT
HETATM    1  C   UNL     1       7.741  28.106  56.330  1.00  0.00     0.035 A 
HETATM    2  C   UNL     1       6.667  28.795  56.894  1.00  0.00     0.032 A 
HETATM    3  C   UNL     1       6.884  29.912  57.719  1.00  0.00     0.032 A 
HETATM    4  C   UNL     1       8.177  30.364  57.980  1.00  0.00     0.036 A 
HETATM    5  C   UNL     1       9.253  29.646  57.448  1.00  0.00     0.032 A 
HETATM    6  C   UNL     1       9.038  28.534  56.626  1.00  0.00     0.032 A 
ENDROOT
BRANCH   1   7
HETATM    7  N   UNL     1       7.621  26.985  55.482  1.00  0.00    -0.322 N 
HETATM    8  C   UNL     1       7.404  25.662  55.833  1.00  0.00     0.274 C 
HETATM    9  O   UNL     1       7.245  25.271  56.984  1.00  0.00    -0.266 OA
HETATM   10  H   UNL     1       7.628  27.193  54.494  1.00  0.00     0.169 HD
BRANCH   8  11
HETATM   11  C   UNL     1       7.346  24.765  54.697  1.00  0.00     0.126 A 
HETATM   12  N   UNL     1       7.721  23.428  54.691  1.00  0.00    -0.300 N 
HETATM   13  C   UNL     1       8.227  22.613  55.711  1.00  0.00     0.106 A 
HETATM   14  C   UNL     1       7.476  22.948  53.405  1.00  0.00     0.134 A 
HETATM   15  C   UNL     1       8.496  21.315  55.468  1.00  0.00    -0.046 A 
HETATM   16  C   UNL     1       9.046  20.374  56.493  1.00  0.00     0.049 C 
HETATM   17  C   UNL     1       8.240  20.794  54.128  1.00  0.00     0.012 A 
HETATM   18  C   UNL     1       7.754  21.576  53.147  1.00  0.00     0.051 A 
HETATM   19  N   UNL     1       7.010  23.885  52.612  1.00  0.00    -0.240 NA
HETATM   20  C   UNL     1       6.946  25.006  53.391  1.00  0.00     0.155 A 
ENDBRANCH   8  11
ENDBRANCH   1   7
BRANCH   4  21
HETATM   21  N   UNL     1       8.502  31.469  58.785  1.00  0.00    -0.309 N 
HETATM   22  C   UNL     1       8.814  31.620  60.100  1.00  0.00     0.320 C 
HETATM   23  N   UNL     1       8.574  30.579  60.937  1.00  0.00    -0.339 N 
HETATM   24  O   UNL     1       9.240  32.709  60.478  1.00  0.00    -0.247 OA
HETATM   25  H   UNL     1       7.871  29.925  60.636  1.00  0.00     0.164 HD
HETATM   26  H   UNL     1       8.539  32.369  58.320  1.00  0.00     0.170 HD
BRANCH  23  27
HETATM   27  C   UNL     1       8.768  30.694  62.364  1.00  0.00     0.150 C 
BRANCH  27  28
HETATM   28  C   UNL     1       7.726  31.578  62.983  1.00  0.00    -0.018 C 
HETATM   29  C   UNL     1       7.917  32.706  63.682  1.00  0.00     0.008 C 
ENDBRANCH  27  28
ENDBRANCH  23  27
ENDBRANCH   4  21
TORSDOF 5
ENDMDL
MODEL 2
REMARK VINA RESULT:      -9.2      1.633      2.806
REMARK  5 active torsions:
REMARK  status: ('A' for Active; 'I' for Inactive)
REMARK    1  A    between atoms: C_8  and  C_9 
REMARK       I    between atoms: C_9  and  N_10 
REMARK    2  A    between atoms: N_10  and  C_11 
REMARK    3  A    between atoms: C_14  and  N_15 
REMARK       I    between atoms: N_15  and  C_16 
REMARK       I    between atoms: C_16  and  N_17 
REMARK    4  A    between atoms: N_17  and  C_18 
REMARK    5  A    between atoms: C_18  and  C_19 
ROOT
HETATM    1  C   UNL     1       7.380  27.030  57.028  1.00  0.00     0.035 A 
HETATM    2  C   UNL     1       8.415  27.914  57.332  1.00  0.00     0.032 A 
HETATM    3  C   UNL     1       8.142  29.247  57.683  1.00  0.00     0.032 A 
HETATM    4  C   UNL     1       6.829  29.712  57.749  1.00  0.00     0.036 A 
HETATM    5  C   UNL     1       5.795  28.836  57.402  1.00  0.00     0.032 A 
HETATM    6  C   UNL     1       6.067  27.508  57.052  1.00  0.00     0.032 A 
ENDROOT
BRANCH   1   7
HETATM    7  N   UNL     1       7.556  25.675  56.677  1.00  0.00    -0.322 N 
HETATM    8  C   UNL     1       8.299  24.708  57.334  1.00  0.00     0.274 C 
HETATM    9  O   UNL     1       8.908  24.898  58.380  1.00  0.00    -0.266 OA
HETATM   10  H   UNL     1       7.014  25.365  55.883  1.00  0.00     0.169 HD
BRANCH   8  11
HETATM   11  C   UNL     1       8.267  23.413  56.683  1.00  0.00     0.126 A 
HETATM   12  N   UNL     1       8.127  23.188  55.319  1.00  0.00    -0.300 N 
HETATM   13  C   UNL     1       7.989  24.083  54.251  1.00  0.00     0.106 A 
HETATM   14  C   UNL     1       8.174  21.807  55.134  1.00  0.00     0.134 A 
HETATM   15  C   UNL     1       7.895  23.619  52.989  1.00  0.00    -0.046 A 
HETATM   16  C   UNL     1       7.736  24.500  51.790  1.00  0.00     0.049 C 
HETATM   17  C   UNL     1       7.948  22.175  52.776  1.00  0.00     0.012 A 
HETATM   18  C   UNL     1       8.081  21.315  53.802  1.00  0.00     0.051 A 
HETATM   19  N   UNL     1       8.301  21.163  56.272  1.00  0.00    -0.240 NA
HETATM   20  C   UNL     1       8.339  22.140  57.226  1.00  0.00     0.155 A 
ENDBRANCH   8  11
ENDBRANCH   1   7
BRANCH   4  21
HETATM   21  N   UNL     1       6.449  31.020  58.091  1.00  0.00    -0.309 N 
HETATM   22  C   UNL     1       6.635  31.801  59.189  1.00  0.00     0.320 C 
HETATM   23  N   UNL     1       7.079  31.209  60.326  1.00  0.00    -0.339 N 
HETATM   24  O   UNL     1       6.336  32.991  59.117  1.00  0.00    -0.247 OA
HETATM   25  H   UNL     1       6.898  30.222  60.409  1.00  0.00     0.164 HD
HETATM   26  H   UNL     1       5.933  31.537  57.388  1.00  0.00     0.170 HD
BRANCH  23  27
HETATM   27  C   UNL     1       7.194  31.941  61.566  1.00  0.00     0.150 C 
BRANCH  27  28
HETATM   28  C   UNL     1       8.585  31.852  62.121  1.00  0.00    -0.018 C 
HETATM   29  C   UNL     1       9.742  31.890  61.445  1.00  0.00     0.008 C 
ENDBRANCH  27  28
ENDBRANCH  23  27
ENDBRANCH   4  21
TORSDOF 5
ENDMDL
MODEL 3
REMARK VINA RESULT:      -9.2      5.777      9.610
REMARK  5 active torsions:
REMARK  status: ('A' for Active; 'I' for Inactive)
REMARK    1  A    between atoms: C_8  and  C_9 
REMARK       I    between atoms: C_9  and  N_10 
REMARK    2  A    between atoms: N_10  and  C_11 
REMARK    3  A    between atoms: C_14  and  N_15 
REMARK       I    between atoms: N_15  and  C_16 
REMARK       I    between atoms: C_16  and  N_17 
REMARK    4  A    between atoms: N_17  and  C_18 
REMARK    5  A    between atoms: C_18  and  C_19 
ROOT
HETATM    1  C   UNL     1       5.556  25.458  51.870  1.00  0.00     0.035 A 
HETATM    2  C   UNL     1       6.941  25.303  51.923  1.00  0.00     0.032 A 
HETATM    3  C   UNL     1       7.586  25.018  53.139  1.00  0.00     0.032 A 
HETATM    4  C   UNL     1       6.854  24.870  54.316  1.00  0.00     0.036 A 
HETATM    5  C   UNL     1       5.470  25.068  54.268  1.00  0.00     0.032 A 
HETATM    6  C   UNL     1       4.827  25.351  53.058  1.00  0.00     0.032 A 
ENDROOT
BRANCH   1   7
HETATM    7  N   UNL     1       4.821  25.732  50.697  1.00  0.00    -0.322 N 
HETATM    8  C   UNL     1       4.815  26.892  49.939  1.00  0.00     0.274 C 
HETATM    9  O   UNL     1       5.508  27.875  50.177  1.00  0.00    -0.266 OA
HETATM   10  H   UNL     1       4.287  24.955  50.336  1.00  0.00     0.169 HD
BRANCH   8  11
HETATM   11  C   UNL     1       3.926  26.831  48.797  1.00  0.00     0.126 A 
HETATM   12  N   UNL     1       2.884  27.708  48.524  1.00  0.00    -0.300 N 
HETATM   13  C   UNL     1       2.423  28.830  49.223  1.00  0.00     0.106 A 
HETATM   14  C   UNL     1       2.315  27.293  47.320  1.00  0.00     0.134 A 
HETATM   15  C   UNL     1       1.394  29.552  48.737  1.00  0.00    -0.046 A 
HETATM   16  C   UNL     1       0.830  30.758  49.420  1.00  0.00     0.049 C 
HETATM   17  C   UNL     1       0.790  29.135  47.475  1.00  0.00     0.012 A 
HETATM   18  C   UNL     1       1.233  28.057  46.802  1.00  0.00     0.051 A 
HETATM   19  N   UNL     1       2.901  26.217  46.846  1.00  0.00    -0.240 NA
HETATM   20  C   UNL     1       3.876  25.917  47.754  1.00  0.00     0.155 A 
ENDBRANCH   8  11
ENDBRANCH   1   7
BRANCH   4  21
HETATM   21  N   UNL     1       7.399  24.583  55.578  1.00  0.00    -0.309 N 
HETATM   22  C   UNL     1       7.893  23.457  56.160  1.00  0.00     0.320 C 
HETATM   23  N   UNL     1       7.653  22.267  55.555  1.00  0.00    -0.339 N 
HETATM   24  O   UNL     1       8.481  23.564  57.235  1.00  0.00    -0.247 OA
HETATM   25  H   UNL     1       6.850  22.235  54.948  1.00  0.00     0.164 HD
HETATM   26  H   UNL     1       7.473  25.361  56.224  1.00  0.00     0.170 HD
BRANCH  23  27
HETATM   27  C   UNL     1       8.041  21.016  56.162  1.00  0.00     0.150 C 
BRANCH  27  28
HETATM   28  C   UNL     1       8.604  20.070  55.143  1.00  0.00    -0.018 C 
HETATM   29  C   UNL     1       8.668  20.238  53.814  1.00  0.00     0.008 C 
ENDBRANCH  27  28
ENDBRANCH  23  27
ENDBRANCH   4  21
TORSDOF 5
ENDMDL
MODEL 4
REMARK VINA RESULT:      -9.0      1.358      1.809
REMARK  5 active torsions:
REMARK  status: ('A' for Active; 'I' for Inactive)
REMARK    1  A    between atoms: C_8  and  C_9 
REMARK       I    between atoms: C_9  and  N_10 
REMARK    2  A    between atoms: N_10  and  C_11 
REMARK    3  A    between atoms: C_14  and  N_15 
REMARK       I    between atoms: N_15  and  C_16 
REMARK       I    between atoms: C_16  and  N_17 
REMARK    4  A    between atoms: N_17  and  C_18 
REMARK    5  A    between atoms: C_18  and  C_19 
ROOT
HETATM    1  C   UNL     1       6.880  28.394  56.253  1.00  0.00     0.035 A 
HETATM    2  C   UNL     1       7.886  29.092  56.922  1.00  0.00     0.032 A 
HETATM    3  C   UNL     1       7.568  30.141  57.803  1.00  0.00     0.032 A 
HETATM    4  C   UNL     1       6.241  30.497  58.037  1.00  0.00     0.036 A 
HETATM    5  C   UNL     1       5.237  29.824  57.333  1.00  0.00     0.032 A 
HETATM    6  C   UNL     1       5.552  28.780  56.456  1.00  0.00     0.032 A 
ENDROOT
BRANCH   1   7
HETATM    7  N   UNL     1       7.101  27.322  55.363  1.00  0.00    -0.322 N 
HETATM    8  C   UNL     1       7.550  26.044  55.652  1.00  0.00     0.274 C 
HETATM    9  O   UNL     1       7.797  25.639  56.782  1.00  0.00    -0.266 OA
HETATM   10  H   UNL     1       6.831  27.499  54.406  1.00  0.00     0.169 HD
BRANCH   8  11
HETATM   11  C   UNL     1       7.674  25.197  54.483  1.00  0.00     0.126 A 
HETATM   12  N   UNL     1       7.773  23.811  54.484  1.00  0.00    -0.300 N 
HETATM   13  C   UNL     1       7.779  22.893  55.541  1.00  0.00     0.106 A 
HETATM   14  C   UNL     1       7.846  23.413  53.149  1.00  0.00     0.134 A 
HETATM   15  C   UNL     1       7.860  21.572  55.288  1.00  0.00    -0.046 A 
HETATM   16  C   UNL     1       7.882  20.521  56.353  1.00  0.00     0.049 C 
HETATM   17  C   UNL     1       7.932  21.137  53.896  1.00  0.00     0.012 A 
HETATM   18  C   UNL     1       7.925  22.018  52.879  1.00  0.00     0.051 A 
HETATM   19  N   UNL     1       7.831  24.440  52.330  1.00  0.00    -0.240 NA
HETATM   20  C   UNL     1       7.744  25.536  53.140  1.00  0.00     0.155 A 
ENDBRANCH   8  11
ENDBRANCH   1   7
BRANCH   4  21
HETATM   21  N   UNL     1       5.817  31.524  58.897  1.00  0.00    -0.309 N 
HETATM   22  C   UNL     1       6.215  31.952  60.125  1.00  0.00     0.320 C 
HETATM   23  N   UNL     1       7.039  31.150  60.845  1.00  0.00    -0.339 N 
HETATM   24  O   UNL     1       5.763  33.014  60.548  1.00  0.00    -0.247 OA
HETATM   25  H   UNL     1       7.014  30.171  60.613  1.00  0.00     0.164 HD
HETATM   26  H   UNL     1       5.060  32.108  58.561  1.00  0.00     0.170 HD
BRANCH  23  27
HETATM   27  C   UNL     1       7.417  31.474  62.200  1.00  0.00     0.150 C 
BRANCH  27  28
HETATM   28  C   UNL     1       8.855  31.893  62.277  1.00  0.00    -0.018 C 
HETATM   29  C   UNL     1       9.771  31.868  61.297  1.00  0.00     0.008 C 
ENDBRANCH  27  28
ENDBRANCH  23  27
ENDBRANCH   4  21
TORSDOF 5
ENDMDL
MODEL 5
REMARK VINA RESULT:      -8.8      5.317      8.241
REMARK  5 active torsions:
REMARK  status: ('A' for Active; 'I' for Inactive)
REMARK    1  A    between atoms: C_8  and  C_9 
REMARK       I    between atoms: C_9  and  N_10 
REMARK    2  A    between atoms: N_10  and  C_11 
REMARK    3  A    between atoms: C_14  and  N_15 
REMARK       I    between atoms: N_15  and  C_16 
REMARK       I    between atoms: C_16  and  N_17 
REMARK    4  A    between atoms: N_17  and  C_18 
REMARK    5  A    between atoms: C_18  and  C_19 
ROOT
HETATM    1  C   UNL     1       5.633  25.612  52.007  1.00  0.00     0.035 A 
HETATM    2  C   UNL     1       7.020  25.469  52.051  1.00  0.00     0.032 A 
HETATM    3  C   UNL     1       7.690  25.342  53.281  1.00  0.00     0.032 A 
HETATM    4  C   UNL     1       6.981  25.343  54.481  1.00  0.00     0.036 A 
HETATM    5  C   UNL     1       5.595  25.529  54.436  1.00  0.00     0.032 A 
HETATM    6  C   UNL     1       4.928  25.655  53.212  1.00  0.00     0.032 A 
ENDROOT
BRANCH   1   7
HETATM    7  N   UNL     1       4.875  25.734  50.823  1.00  0.00    -0.322 N 
HETATM    8  C   UNL     1       4.836  26.795  49.933  1.00  0.00     0.274 C 
HETATM    9  O   UNL     1       5.515  27.810  50.040  1.00  0.00    -0.266 OA
HETATM   10  H   UNL     1       4.349  24.911  50.566  1.00  0.00     0.169 HD
BRANCH   8  11
HETATM   11  C   UNL     1       3.930  26.584  48.822  1.00  0.00     0.126 A 
HETATM   12  N   UNL     1       2.879  27.415  48.456  1.00  0.00    -0.300 N 
HETATM   13  C   UNL     1       2.422  28.616  49.013  1.00  0.00     0.106 A 
HETATM   14  C   UNL     1       2.294  26.847  47.325  1.00  0.00     0.134 A 
HETATM   15  C   UNL     1       1.380  29.265  48.456  1.00  0.00    -0.046 A 
HETATM   16  C   UNL     1       0.820  30.547  48.988  1.00  0.00     0.049 C 
HETATM   17  C   UNL     1       0.760  28.688  47.267  1.00  0.00     0.012 A 
HETATM   18  C   UNL     1       1.199  27.535  46.731  1.00  0.00     0.051 A 
HETATM   19  N   UNL     1       2.879  25.722  46.982  1.00  0.00    -0.240 NA
HETATM   20  C   UNL     1       3.869  25.545  47.906  1.00  0.00     0.155 A 
ENDBRANCH   8  11
ENDBRANCH   1   7
BRANCH   4  21
HETATM   21  N   UNL     1       7.551  25.219  55.759  1.00  0.00    -0.309 N 
HETATM   22  C   UNL     1       7.923  26.109  56.718  1.00  0.00     0.320 C 
HETATM   23  N   UNL     1       8.000  27.420  56.377  1.00  0.00    -0.339 N 
HETATM   24  O   UNL     1       8.228  25.679  57.828  1.00  0.00    -0.247 OA
HETATM   25  H   UNL     1       8.140  27.614  55.399  1.00  0.00     0.164 HD
HETATM   26  H   UNL     1       7.728  24.275  56.083  1.00  0.00     0.170 HD
BRANCH  23  27
HETATM   27  C   UNL     1       8.496  28.415  57.299  1.00  0.00     0.150 C 
BRANCH  27  28
HETATM   28  C   UNL     1       9.452  29.352  56.624  1.00  0.00    -0.018 C 
HETATM   29  C   UNL     1      10.776  29.449  56.810  1.00  0.00     0.008 C 
ENDBRANCH  27  28
ENDBRANCH  23  27
ENDBRANCH   4  21
TORSDOF 5
ENDMDL
MODEL 6
REMARK VINA RESULT:      -8.6      1.971     10.101
REMARK  5 active torsions:
REMARK  status: ('A' for Active; 'I' for Inactive)
REMARK    1  A    between atoms: C_8  and  C_9 
REMARK       I    between atoms: C_9  and  N_10 
REMARK    2  A    between atoms: N_10  and  C_11 
REMARK    3  A    between atoms: C_14  and  N_15 
REMARK       I    between atoms: N_15  and  C_16 
REMARK       I    between atoms: C_16  and  N_17 
REMARK    4  A    between atoms: N_17  and  C_18 
REMARK    5  A    between atoms: C_18  and  C_19 
ROOT
HETATM    1  C   UNL     1       7.453  28.729  57.252  1.00  0.00     0.035 A 
HETATM    2  C   UNL     1       8.021  28.941  55.996  1.00  0.00     0.032 A 
HETATM    3  C   UNL     1       7.547  28.249  54.867  1.00  0.00     0.032 A 
HETATM    4  C   UNL     1       6.490  27.347  54.977  1.00  0.00     0.036 A 
HETATM    5  C   UNL     1       5.950  27.105  56.244  1.00  0.00     0.032 A 
HETATM    6  C   UNL     1       6.422  27.793  57.368  1.00  0.00     0.032 A 
ENDROOT
BRANCH   1   7
HETATM    7  N   UNL     1       7.853  29.383  58.437  1.00  0.00    -0.322 N 
HETATM    8  C   UNL     1       7.626  30.698  58.809  1.00  0.00     0.274 C 
HETATM    9  O   UNL     1       6.987  31.504  58.143  1.00  0.00    -0.266 OA
HETATM   10  H   UNL     1       8.301  28.791  59.121  1.00  0.00     0.169 HD
BRANCH   8  11
HETATM   11  C   UNL     1       8.193  31.039  60.099  1.00  0.00     0.126 A 
HETATM   12  N   UNL     1       7.553  31.738  61.114  1.00  0.00    -0.300 N 
HETATM   13  C   UNL     1       6.263  32.277  61.184  1.00  0.00     0.106 A 
HETATM   14  C   UNL     1       8.453  31.816  62.176  1.00  0.00     0.134 A 
HETATM   15  C   UNL     1       5.852  32.901  62.306  1.00  0.00    -0.046 A 
HETATM   16  C   UNL     1       4.495  33.514  62.466  1.00  0.00     0.049 C 
HETATM   17  C   UNL     1       6.779  32.986  63.431  1.00  0.00     0.012 A 
HETATM   18  C   UNL     1       8.019  32.468  63.364  1.00  0.00     0.051 A 
HETATM   19  N   UNL     1       9.603  31.249  61.888  1.00  0.00    -0.240 NA
HETATM   20  C   UNL     1       9.457  30.788  60.610  1.00  0.00     0.155 A 
ENDBRANCH   8  11
ENDBRANCH   1   7
BRANCH   4  21
HETATM   21  N   UNL     1       5.941  26.611  53.914  1.00  0.00    -0.309 N 
HETATM   22  C   UNL     1       6.288  25.454  53.288  1.00  0.00     0.320 C 
HETATM   23  N   UNL     1       7.525  24.948  53.520  1.00  0.00    -0.339 N 
HETATM   24  O   UNL     1       5.489  24.956  52.497  1.00  0.00    -0.247 OA
HETATM   25  H   UNL     1       8.221  25.609  53.826  1.00  0.00     0.164 HD
HETATM   26  H   UNL     1       5.089  26.978  53.506  1.00  0.00     0.170 HD
BRANCH  23  27
HETATM   27  C   UNL     1       8.016  23.791  52.810  1.00  0.00     0.150 C 
BRANCH  27  28
HETATM   28  C   UNL     1       7.787  22.535  53.597  1.00  0.00    -0.018 C 
HETATM   29  C   UNL     1       7.945  21.268  53.186  1.00  0.00     0.008 C 
ENDBRANCH  27  28
ENDBRANCH  23  27
ENDBRANCH   4  21
TORSDOF 5
ENDMDL
MODEL 7
REMARK VINA RESULT:      -8.5      2.385     10.293
REMARK  5 active torsions:
REMARK  status: ('A' for Active; 'I' for Inactive)
REMARK    1  A    between atoms: C_8  and  C_9 
REMARK       I    between atoms: C_9  and  N_10 
REMARK    2  A    between atoms: N_10  and  C_11 
REMARK    3  A    between atoms: C_14  and  N_15 
REMARK       I    between atoms: N_15  and  C_16 
REMARK       I    between atoms: C_16  and  N_17 
REMARK    4  A    between atoms: N_17  and  C_18 
REMARK    5  A    between atoms: C_18  and  C_19 
ROOT
HETATM    1  C   UNL     1       7.611  30.153  58.424  1.00  0.00     0.035 A 
HETATM    2  C   UNL     1       8.761  29.533  57.936  1.00  0.00     0.032 A 
HETATM    3  C   UNL     1       8.779  28.966  56.649  1.00  0.00     0.032 A 
HETATM    4  C   UNL     1       7.654  29.024  55.829  1.00  0.00     0.036 A 
HETATM    5  C   UNL     1       6.489  29.609  56.337  1.00  0.00     0.032 A 
HETATM    6  C   UNL     1       6.470  30.173  57.618  1.00  0.00     0.032 A 
ENDROOT
BRANCH   1   7
HETATM    7  N   UNL     1       7.502  30.759  59.694  1.00  0.00    -0.322 N 
HETATM    8  C   UNL     1       8.085  31.935  60.137  1.00  0.00     0.274 C 
HETATM    9  O   UNL     1       8.782  32.664  59.442  1.00  0.00    -0.266 OA
HETATM   10  H   UNL     1       6.862  30.305  60.330  1.00  0.00     0.169 HD
BRANCH   8  11
HETATM   11  C   UNL     1       7.764  32.255  61.514  1.00  0.00     0.126 A 
HETATM   12  N   UNL     1       6.549  32.743  61.978  1.00  0.00    -0.300 N 
HETATM   13  C   UNL     1       5.363  33.044  61.299  1.00  0.00     0.106 A 
HETATM   14  C   UNL     1       6.675  32.882  63.360  1.00  0.00     0.134 A 
HETATM   15  C   UNL     1       4.289  33.488  61.982  1.00  0.00    -0.046 A 
HETATM   16  C   UNL     1       2.984  33.843  61.339  1.00  0.00     0.049 C 
HETATM   17  C   UNL     1       4.400  33.634  63.430  1.00  0.00     0.012 A 
HETATM   18  C   UNL     1       5.540  33.344  64.083  1.00  0.00     0.051 A 
HETATM   19  N   UNL     1       7.874  32.549  63.780  1.00  0.00    -0.240 NA
HETATM   20  C   UNL     1       8.552  32.182  62.652  1.00  0.00     0.155 A 
ENDBRANCH   8  11
ENDBRANCH   1   7
BRANCH   4  21
HETATM   21  N   UNL     1       7.569  28.494  54.531  1.00  0.00    -0.309 N 
HETATM   22  C   UNL     1       7.058  27.346  54.011  1.00  0.00     0.320 C 
HETATM   23  N   UNL     1       6.737  26.344  54.867  1.00  0.00    -0.339 N 
HETATM   24  O   UNL     1       6.966  27.248  52.788  1.00  0.00    -0.247 OA
HETATM   25  H   UNL     1       7.216  26.351  55.752  1.00  0.00     0.164 HD
HETATM   26  H   UNL     1       7.947  29.067  53.785  1.00  0.00     0.170 HD
BRANCH  23  27
HETATM   27  C   UNL     1       6.297  25.053  54.392  1.00  0.00     0.150 C 
BRANCH  27  28
HETATM   28  C   UNL     1       7.426  24.066  54.378  1.00  0.00    -0.018 C 
HETATM   29  C   UNL     1       7.453  22.841  54.923  1.00  0.00     0.008 C 
ENDBRANCH  27  28
ENDBRANCH  23  27
ENDBRANCH   4  21
TORSDOF 5
ENDMDL
MODEL 8
REMARK VINA RESULT:      -8.4      4.497      7.346
REMARK  5 active torsions:
REMARK  status: ('A' for Active; 'I' for Inactive)
REMARK    1  A    between atoms: C_8  and  C_9 
REMARK       I    between atoms: C_9  and  N_10 
REMARK    2  A    between atoms: N_10  and  C_11 
REMARK    3  A    between atoms: C_14  and  N_15 
REMARK       I    between atoms: N_15  and  C_16 
REMARK       I    between atoms: C_16  and  N_17 
REMARK    4  A    between atoms: N_17  and  C_18 
REMARK    5  A    between atoms: C_18  and  C_19 
ROOT
HETATM    1  C   UNL     1       7.534  31.690  61.611  1.00  0.00     0.035 A 
HETATM    2  C   UNL     1       8.370  32.076  62.658  1.00  0.00     0.032 A 
HETATM    3  C   UNL     1       7.850  32.725  63.791  1.00  0.00     0.032 A 
HETATM    4  C   UNL     1       6.485  32.985  63.899  1.00  0.00     0.036 A 
HETATM    5  C   UNL     1       5.654  32.636  62.829  1.00  0.00     0.032 A 
HETATM    6  C   UNL     1       6.171  31.990  61.701  1.00  0.00     0.032 A 
ENDROOT
BRANCH   1   7
HETATM    7  N   UNL     1       7.962  31.025  60.443  1.00  0.00    -0.322 N 
HETATM    8  C   UNL     1       8.707  31.532  59.390  1.00  0.00     0.274 C 
HETATM    9  O   UNL     1       9.148  32.674  59.344  1.00  0.00    -0.266 OA
HETATM   10  H   UNL     1       7.750  30.038  60.411  1.00  0.00     0.169 HD
BRANCH   8  11
HETATM   11  C   UNL     1       8.957  30.564  58.341  1.00  0.00     0.126 A 
HETATM   12  N   UNL     1       7.995  29.958  57.543  1.00  0.00    -0.300 N 
HETATM   13  C   UNL     1       6.602  30.097  57.519  1.00  0.00     0.106 A 
HETATM   14  C   UNL     1       8.677  29.123  56.657  1.00  0.00     0.134 A 
HETATM   15  C   UNL     1       5.870  29.411  56.619  1.00  0.00    -0.046 A 
HETATM   16  C   UNL     1       4.378  29.492  56.527  1.00  0.00     0.049 C 
HETATM   17  C   UNL     1       6.568  28.537  55.680  1.00  0.00     0.012 A 
HETATM   18  C   UNL     1       7.906  28.403  55.702  1.00  0.00     0.051 A 
HETATM   19  N   UNL     1       9.974  29.143  56.864  1.00  0.00    -0.240 NA
HETATM   20  C   UNL     1      10.151  30.008  57.906  1.00  0.00     0.155 A 
ENDBRANCH   8  11
ENDBRANCH   1   7
BRANCH   4  21
HETATM   21  N   UNL     1       5.865  33.623  64.986  1.00  0.00    -0.309 N 
HETATM   22  C   UNL     1       5.342  34.863  65.181  1.00  0.00     0.320 C 
HETATM   23  N   UNL     1       5.626  35.827  64.270  1.00  0.00    -0.339 N 
HETATM   24  O   UNL     1       4.688  35.068  66.203  1.00  0.00    -0.247 OA
HETATM   25  H   UNL     1       6.465  35.690  63.731  1.00  0.00     0.164 HD
HETATM   26  H   UNL     1       5.747  33.067  65.826  1.00  0.00     0.170 HD
BRANCH  23  27
HETATM   27  C   UNL     1       5.208  37.196  64.459  1.00  0.00     0.150 C 
BRANCH  27  28
HETATM   28  C   UNL     1       5.879  38.109  63.476  1.00  0.00    -0.018 C 
HETATM   29  C   UNL     1       6.600  39.209  63.737  1.00  0.00     0.008 C 
ENDBRANCH  27  28
ENDBRANCH  23  27
ENDBRANCH   4  21
TORSDOF 5
ENDMDL
MODEL 9
REMARK VINA RESULT:      -8.4      4.484      7.831
REMARK  5 active torsions:
REMARK  status: ('A' for Active; 'I' for Inactive)
REMARK    1  A    between atoms: C_8  and  C_9 
REMARK       I    between atoms: C_9  and  N_10 
REMARK    2  A    between atoms: N_10  and  C_11 
REMARK    3  A    between atoms: C_14  and  N_15 
REMARK       I    between atoms: N_15  and  C_16 
REMARK       I    between atoms: C_16  and  N_17 
REMARK    4  A    between atoms: N_17  and  C_18 
REMARK    5  A    between atoms: C_18  and  C_19 
ROOT
HETATM    1  C   UNL     1       6.847  32.766  62.008  1.00  0.00     0.035 A 
HETATM    2  C   UNL     1       6.665  34.120  62.287  1.00  0.00     0.032 A 
HETATM    3  C   UNL     1       5.784  34.532  63.301  1.00  0.00     0.032 A 
HETATM    4  C   UNL     1       5.084  33.596  64.060  1.00  0.00     0.036 A 
HETATM    5  C   UNL     1       5.236  32.240  63.750  1.00  0.00     0.032 A 
HETATM    6  C   UNL     1       6.113  31.829  62.740  1.00  0.00     0.032 A 
ENDROOT
BRANCH   1   7
HETATM    7  N   UNL     1       7.716  32.258  61.019  1.00  0.00    -0.322 N 
HETATM    8  C   UNL     1       7.447  32.015  59.682  1.00  0.00     0.274 C 
HETATM    9  O   UNL     1       6.374  32.252  59.140  1.00  0.00    -0.266 OA
HETATM   10  H   UNL     1       8.671  32.121  61.319  1.00  0.00     0.169 HD
BRANCH   8  11
HETATM   11  C   UNL     1       8.579  31.477  58.954  1.00  0.00     0.126 A 
HETATM   12  N   UNL     1       8.616  30.260  58.284  1.00  0.00    -0.300 N 
HETATM   13  C   UNL     1       7.639  29.270  58.127  1.00  0.00     0.106 A 
HETATM   14  C   UNL     1       9.882  30.158  57.708  1.00  0.00     0.134 A 
HETATM   15  C   UNL     1       7.906  28.168  57.398  1.00  0.00    -0.046 A 
HETATM   16  C   UNL     1       6.927  27.056  57.183  1.00  0.00     0.049 C 
HETATM   17  C   UNL     1       9.224  28.047  56.781  1.00  0.00     0.012 A 
HETATM   18  C   UNL     1      10.163  28.999  56.932  1.00  0.00     0.051 A 
HETATM   19  N   UNL     1      10.635  31.196  57.991  1.00  0.00    -0.240 NA
HETATM   20  C   UNL     1       9.850  31.999  58.770  1.00  0.00     0.155 A 
ENDBRANCH   8  11
ENDBRANCH   1   7
BRANCH   4  21
HETATM   21  N   UNL     1       4.185  33.901  65.096  1.00  0.00    -0.309 N 
HETATM   22  C   UNL     1       4.331  34.239  66.405  1.00  0.00     0.320 C 
HETATM   23  N   UNL     1       5.547  34.057  66.979  1.00  0.00    -0.339 N 
HETATM   24  O   UNL     1       3.344  34.635  67.021  1.00  0.00    -0.247 OA
HETATM   25  H   UNL     1       6.141  33.371  66.545  1.00  0.00     0.164 HD
HETATM   26  H   UNL     1       3.201  33.895  64.853  1.00  0.00     0.170 HD
BRANCH  23  27
HETATM   27  C   UNL     1       5.760  34.281  68.390  1.00  0.00     0.150 C 
BRANCH  27  28
HETATM   28  C   UNL     1       7.176  34.690  68.666  1.00  0.00    -0.018 C 
HETATM   29  C   UNL     1       7.654  35.309  69.756  1.00  0.00     0.008 C 
ENDBRANCH  27  28
ENDBRANCH  23  27
ENDBRANCH   4  21
TORSDOF 5
ENDMDL
MODEL 10
REMARK VINA RESULT:      -8.3      2.528      9.623
REMARK  5 active torsions:
REMARK  status: ('A' for Active; 'I' for Inactive)
REMARK    1  A    between atoms: C_8  and  C_9 
REMARK       I    between atoms: C_9  and  N_10 
REMARK    2  A    between atoms: N_10  and  C_11 
REMARK    3  A    between atoms: C_14  and  N_15 
REMARK       I    between atoms: N_15  and  C_16 
REMARK       I    between atoms: C_16  and  N_17 
REMARK    4  A    between atoms: N_17  and  C_18 
REMARK    5  A    between atoms: C_18  and  C_19 
ROOT
HETATM    1  C   UNL     1       6.101  28.389  56.900  1.00  0.00     0.035 A 
HETATM    2  C   UNL     1       7.330  28.256  56.255  1.00  0.00     0.032 A 
HETATM    3  C   UNL     1       7.569  27.181  55.380  1.00  0.00     0.032 A 
HETATM    4  C   UNL     1       6.578  26.234  55.128  1.00  0.00     0.036 A 
HETATM    5  C   UNL     1       5.361  26.347  55.809  1.00  0.00     0.032 A 
HETATM    6  C   UNL     1       5.122  27.416  56.680  1.00  0.00     0.032 A 
ENDROOT
BRANCH   1   7
HETATM    7  N   UNL     1       5.765  29.437  57.784  1.00  0.00    -0.322 N 
HETATM    8  C   UNL     1       5.553  30.774  57.488  1.00  0.00     0.274 C 
HETATM    9  O   UNL     1       5.596  31.246  56.358  1.00  0.00    -0.266 OA
HETATM   10  H   UNL     1       5.596  29.154  58.738  1.00  0.00     0.169 HD
BRANCH   8  11
HETATM   11  C   UNL     1       5.235  31.579  58.651  1.00  0.00     0.126 A 
HETATM   12  N   UNL     1       6.126  31.972  59.641  1.00  0.00    -0.300 N 
HETATM   13  C   UNL     1       7.496  31.725  59.793  1.00  0.00     0.106 A 
HETATM   14  C   UNL     1       5.403  32.749  60.546  1.00  0.00     0.134 A 
HETATM   15  C   UNL     1       8.163  32.244  60.843  1.00  0.00    -0.046 A 
HETATM   16  C   UNL     1       9.623  32.025  61.089  1.00  0.00     0.049 C 
HETATM   17  C   UNL     1       7.423  33.065  61.797  1.00  0.00     0.012 A 
HETATM   18  C   UNL     1       6.107  33.304  61.651  1.00  0.00     0.051 A 
HETATM   19  N   UNL     1       4.136  32.842  60.210  1.00  0.00    -0.240 NA
HETATM   20  C   UNL     1       4.022  32.112  59.061  1.00  0.00     0.155 A 
ENDBRANCH   8  11
ENDBRANCH   1   7
BRANCH   4  21
HETATM   21  N   UNL     1       6.712  25.129  54.271  1.00  0.00    -0.309 N 
HETATM   22  C   UNL     1       7.349  23.931  54.368  1.00  0.00     0.320 C 
HETATM   23  N   UNL     1       8.247  23.764  55.371  1.00  0.00    -0.339 N 
HETATM   24  O   UNL     1       7.125  23.080  53.510  1.00  0.00    -0.247 OA
HETATM   25  H   UNL     1       8.655  24.606  55.742  1.00  0.00     0.164 HD
HETATM   26  H   UNL     1       6.233  25.190  53.381  1.00  0.00     0.170 HD
BRANCH  23  27
HETATM   27  C   UNL     1       9.050  22.568  55.478  1.00  0.00     0.150 C 
BRANCH  27  28
HETATM   28  C   UNL     1       8.421  21.576  56.410  1.00  0.00    -0.018 C 
HETATM   29  C   UNL     1       7.834  20.412  56.096  1.00  0.00     0.008 C 
ENDBRANCH  27  28
ENDBRANCH  23  27
ENDBRANCH   4  21
TORSDOF 5
ENDMDL
