MODEL 1
REMARK VINA RESULT:      -7.0      0.000      0.000
REMARK  4 active torsions:
REMARK  status: ('A' for Active; 'I' for Inactive)
REMARK    1  A    between atoms: O_2  and  C_3 
REMARK    2  A    between atoms: C_4  and  O_5 
REMARK    3  A    between atoms: C_6  and  C_7 
REMARK    4  A    between atoms: C_7  and  N_8 
ROOT
HETATM    1  N   UNL     1       7.815  26.135  57.111  1.00  0.00    -0.066 N 
HETATM    2  H   UNL     1       7.992  26.578  58.032  1.00  0.00     0.280 HD
HETATM    3  C   UNL     1       6.367  25.696  57.188  1.00  0.00     0.246 C 
HETATM    4  C   UNL     1       6.015  24.568  56.201  1.00  0.00     0.062 C 
HETATM    5  C   UNL     1       6.966  23.395  56.407  1.00  0.00     0.020 C 
HETATM    6  C   UNL     1       8.368  23.878  56.064  1.00  0.00     0.031 C 
HETATM    7  C   UNL     1       8.420  24.256  54.581  1.00  0.00     0.138 C 
HETATM    8  N   UNL     1       7.248  24.954  54.049  1.00  0.00    -0.317 N 
HETATM    9  C   UNL     1       6.054  25.052  54.767  1.00  0.00     0.020 A 
HETATM   10  C   UNL     1       4.967  25.593  54.188  1.00  0.00     0.026 A 
HETATM   11  C   UNL     1       7.365  25.414  52.728  1.00  0.00     0.247 A 
HETATM   12  O   UNL     1       8.407  25.374  52.083  1.00  0.00    -0.268 OA
HETATM   13  C   UNL     1       6.149  26.011  52.126  1.00  0.00     0.074 A 
HETATM   14  C   UNL     1       5.018  26.084  52.835  1.00  0.00     0.007 A 
HETATM   15  C   UNL     1       8.804  25.008  57.007  1.00  0.00     0.241 C 
ENDROOT
BRANCH   1  16
HETATM   16  C   UNL     1       8.115  27.316  56.205  1.00  0.00     0.276 C 
BRANCH  16  17
HETATM   17  C   UNL     1       7.204  28.496  56.405  1.00  0.00     0.005 A 
HETATM   18  C   UNL     1       7.304  29.310  57.537  1.00  0.00     0.107 A 
HETATM   19  C   UNL     1       6.486  30.433  57.726  1.00  0.00     0.103 A 
HETATM   20  C   UNL     1       5.539  30.748  56.755  1.00  0.00     0.058 A 
HETATM   21  C   UNL     1       5.427  29.946  55.617  1.00  0.00     0.014 A 
HETATM   22  C   UNL     1       6.252  28.832  55.433  1.00  0.00     0.030 A 
HETATM   23 BR   UNL     1       4.137  30.367  54.300  1.00  0.00    -0.051 Br
BRANCH  18  24
HETATM   24  O   UNL     1       8.223  28.975  58.506  1.00  0.00    -0.357 OA
HETATM   25  H   UNL     1       9.076  29.324  58.158  1.00  0.00     0.218 HD
ENDBRANCH  18  24
BRANCH  19  26
HETATM   26  O   UNL     1       6.713  31.112  58.893  1.00  0.00    -0.353 OA
HETATM   27  C   UNL     1       5.970  32.314  59.087  1.00  0.00     0.210 C 
ENDBRANCH  19  26
ENDBRANCH  16  17
ENDBRANCH   1  16
TORSDOF 4
ENDMDL
MODEL 2
REMARK VINA RESULT:      -7.0      3.176      6.949
REMARK  4 active torsions:
REMARK  status: ('A' for Active; 'I' for Inactive)
REMARK    1  A    between atoms: O_2  and  C_3 
REMARK    2  A    between atoms: C_4  and  O_5 
REMARK    3  A    between atoms: C_6  and  C_7 
REMARK    4  A    between atoms: C_7  and  N_8 
ROOT
HETATM    1  N   UNL     1       5.816  25.649  55.086  1.00  0.00    -0.066 N 
HETATM    2  H   UNL     1       5.401  24.702  55.012  1.00  0.00     0.280 HD
HETATM    3  C   UNL     1       5.201  26.222  56.345  1.00  0.00     0.246 C 
HETATM    4  C   UNL     1       5.223  27.761  56.394  1.00  0.00     0.062 C 
HETATM    5  C   UNL     1       4.557  28.320  55.143  1.00  0.00     0.020 C 
HETATM    6  C   UNL     1       5.396  27.891  53.948  1.00  0.00     0.031 C 
HETATM    7  C   UNL     1       6.784  28.529  54.054  1.00  0.00     0.138 C 
HETATM    8  N   UNL     1       7.376  28.577  55.393  1.00  0.00    -0.317 N 
HETATM    9  C   UNL     1       6.633  28.291  56.542  1.00  0.00     0.020 A 
HETATM   10  C   UNL     1       7.184  28.469  57.756  1.00  0.00     0.026 A 
HETATM   11  C   UNL     1       8.699  29.039  55.455  1.00  0.00     0.247 A 
HETATM   12  O   UNL     1       9.389  29.265  54.466  1.00  0.00    -0.268 OA
HETATM   13  C   UNL     1       9.276  29.215  56.810  1.00  0.00     0.074 A 
HETATM   14  C   UNL     1       8.537  28.942  57.891  1.00  0.00     0.007 A 
HETATM   15  C   UNL     1       5.427  26.362  53.821  1.00  0.00     0.241 C 
ENDROOT
BRANCH   1  16
HETATM   16  C   UNL     1       7.286  25.273  55.164  1.00  0.00     0.276 C 
BRANCH  16  17
HETATM   17  C   UNL     1       7.538  23.805  55.378  1.00  0.00     0.005 A 
HETATM   18  C   UNL     1       7.434  22.888  54.328  1.00  0.00     0.107 A 
HETATM   19  C   UNL     1       7.697  21.521  54.500  1.00  0.00     0.103 A 
HETATM   20  C   UNL     1       8.070  21.060  55.759  1.00  0.00     0.058 A 
HETATM   21  C   UNL     1       8.179  21.964  56.818  1.00  0.00     0.014 A 
HETATM   22  C   UNL     1       7.923  23.326  56.636  1.00  0.00     0.030 A 
HETATM   23 BR   UNL     1       8.680  21.339  58.532  1.00  0.00    -0.051 Br
BRANCH  18  24
HETATM   24  O   UNL     1       7.036  23.348  53.093  1.00  0.00    -0.357 OA
HETATM   25  H   UNL     1       6.464  24.124  53.299  1.00  0.00     0.218 HD
ENDBRANCH  18  24
BRANCH  19  26
HETATM   26  O   UNL     1       7.540  20.766  53.369  1.00  0.00    -0.353 OA
HETATM   27  C   UNL     1       8.734  20.329  52.722  1.00  0.00     0.210 C 
ENDBRANCH  19  26
ENDBRANCH  16  17
ENDBRANCH   1  16
TORSDOF 4
ENDMDL
MODEL 3
REMARK VINA RESULT:      -6.9      2.172      5.825
REMARK  4 active torsions:
REMARK  status: ('A' for Active; 'I' for Inactive)
REMARK    1  A    between atoms: O_2  and  C_3 
REMARK    2  A    between atoms: C_4  and  O_5 
REMARK    3  A    between atoms: C_6  and  C_7 
REMARK    4  A    between atoms: C_7  and  N_8 
ROOT
HETATM    1  N   UNL     1       6.864  25.639  54.234  1.00  0.00    -0.066 N 
HETATM    2  H   UNL     1       7.007  24.987  53.440  1.00  0.00     0.280 HD
HETATM    3  C   UNL     1       7.859  25.171  55.275  1.00  0.00     0.246 C 
HETATM    4  C   UNL     1       7.496  25.601  56.708  1.00  0.00     0.062 C 
HETATM    5  C   UNL     1       6.083  25.137  57.038  1.00  0.00     0.020 C 
HETATM    6  C   UNL     1       5.133  25.857  56.092  1.00  0.00     0.031 C 
HETATM    7  C   UNL     1       5.197  27.362  56.366  1.00  0.00     0.138 C 
HETATM    8  N   UNL     1       6.525  27.915  56.642  1.00  0.00    -0.317 N 
HETATM    9  C   UNL     1       7.631  27.099  56.889  1.00  0.00     0.020 A 
HETATM   10  C   UNL     1       8.801  27.651  57.259  1.00  0.00     0.026 A 
HETATM   11  C   UNL     1       6.588  29.313  56.756  1.00  0.00     0.247 A 
HETATM   12  O   UNL     1       5.646  30.059  56.513  1.00  0.00    -0.268 OA
HETATM   13  C   UNL     1       7.895  29.885  57.159  1.00  0.00     0.074 A 
HETATM   14  C   UNL     1       8.934  29.077  57.397  1.00  0.00     0.007 A 
HETATM   15  C   UNL     1       5.423  25.481  54.633  1.00  0.00     0.241 C 
ENDROOT
BRANCH   1  16
HETATM   16  C   UNL     1       7.181  26.952  53.540  1.00  0.00     0.276 C 
BRANCH  16  17
HETATM   17  C   UNL     1       6.122  27.415  52.578  1.00  0.00     0.005 A 
HETATM   18  C   UNL     1       5.815  26.685  51.426  1.00  0.00     0.107 A 
HETATM   19  C   UNL     1       4.809  27.082  50.533  1.00  0.00     0.103 A 
HETATM   20  C   UNL     1       4.093  28.245  50.801  1.00  0.00     0.058 A 
HETATM   21  C   UNL     1       4.385  28.986  51.948  1.00  0.00     0.014 A 
HETATM   22  C   UNL     1       5.385  28.577  52.837  1.00  0.00     0.030 A 
HETATM   23 BR   UNL     1       3.418  30.570  52.311  1.00  0.00    -0.051 Br
BRANCH  18  24
HETATM   24  O   UNL     1       6.548  25.552  51.153  1.00  0.00    -0.357 OA
HETATM   25  H   UNL     1       6.338  24.944  51.901  1.00  0.00     0.218 HD
ENDBRANCH  18  24
BRANCH  19  26
HETATM   26  O   UNL     1       4.648  26.255  49.454  1.00  0.00    -0.353 OA
HETATM   27  C   UNL     1       4.692  26.870  48.167  1.00  0.00     0.210 C 
ENDBRANCH  19  26
ENDBRANCH  16  17
ENDBRANCH   1  16
TORSDOF 4
ENDMDL
MODEL 4
REMARK VINA RESULT:      -6.8      3.247      5.484
REMARK  4 active torsions:
REMARK  status: ('A' for Active; 'I' for Inactive)
REMARK    1  A    between atoms: O_2  and  C_3 
REMARK    2  A    between atoms: C_4  and  O_5 
REMARK    3  A    between atoms: C_6  and  C_7 
REMARK    4  A    between atoms: C_7  and  N_8 
ROOT
HETATM    1  N   UNL     1       4.942  27.574  54.741  1.00  0.00    -0.066 N 
HETATM    2  H   UNL     1       4.069  28.097  54.937  1.00  0.00     0.280 HD
HETATM    3  C   UNL     1       5.162  26.748  55.990  1.00  0.00     0.246 C 
HETATM    4  C   UNL     1       6.625  26.306  56.184  1.00  0.00     0.062 C 
HETATM    5  C   UNL     1       7.535  27.528  56.155  1.00  0.00     0.020 C 
HETATM    6  C   UNL     1       7.426  28.145  54.768  1.00  0.00     0.031 C 
HETATM    7  C   UNL     1       7.959  27.151  53.732  1.00  0.00     0.138 C 
HETATM    8  N   UNL     1       7.610  25.745  53.944  1.00  0.00    -0.317 N 
HETATM    9  C   UNL     1       7.042  25.294  55.138  1.00  0.00     0.020 A 
HETATM   10  C   UNL     1       6.854  23.976  55.334  1.00  0.00     0.026 A 
HETATM   11  C   UNL     1       7.988  24.865  52.918  1.00  0.00     0.247 A 
HETATM   12  O   UNL     1       8.455  25.231  51.845  1.00  0.00    -0.268 OA
HETATM   13  C   UNL     1       7.757  23.421  53.166  1.00  0.00     0.074 A 
HETATM   14  C   UNL     1       7.220  23.019  54.323  1.00  0.00     0.007 A 
HETATM   15  C   UNL     1       5.993  28.620  54.490  1.00  0.00     0.241 C 
ENDROOT
BRANCH   1  16
HETATM   16  C   UNL     1       4.506  26.816  53.499  1.00  0.00     0.276 C 
BRANCH  16  17
HETATM   17  C   UNL     1       4.351  27.674  52.273  1.00  0.00     0.005 A 
HETATM   18  C   UNL     1       4.941  27.317  51.057  1.00  0.00     0.107 A 
HETATM   19  C   UNL     1       4.782  28.086  49.895  1.00  0.00     0.103 A 
HETATM   20  C   UNL     1       4.013  29.245  49.953  1.00  0.00     0.058 A 
HETATM   21  C   UNL     1       3.416  29.614  51.161  1.00  0.00     0.014 A 
HETATM   22  C   UNL     1       3.573  28.838  52.313  1.00  0.00     0.030 A 
HETATM   23 BR   UNL     1       2.376  31.192  51.246  1.00  0.00    -0.051 Br
BRANCH  18  24
HETATM   24  O   UNL     1       5.724  26.186  51.014  1.00  0.00    -0.357 OA
HETATM   25  H   UNL     1       5.624  25.791  51.912  1.00  0.00     0.218 HD
ENDBRANCH  18  24
BRANCH  19  26
HETATM   26  O   UNL     1       5.434  27.596  48.795  1.00  0.00    -0.353 OA
HETATM   27  C   UNL     1       4.616  27.106  47.733  1.00  0.00     0.210 C 
ENDBRANCH  19  26
ENDBRANCH  16  17
ENDBRANCH   1  16
TORSDOF 4
ENDMDL
MODEL 5
REMARK VINA RESULT:      -6.8      4.357      6.797
REMARK  4 active torsions:
REMARK  status: ('A' for Active; 'I' for Inactive)
REMARK    1  A    between atoms: O_2  and  C_3 
REMARK    2  A    between atoms: C_4  and  O_5 
REMARK    3  A    between atoms: C_6  and  C_7 
REMARK    4  A    between atoms: C_7  and  N_8 
ROOT
HETATM    1  N   UNL     1       4.678  28.323  52.445  1.00  0.00    -0.066 N 
HETATM    2  H   UNL     1       5.078  28.272  53.400  1.00  0.00     0.280 HD
HETATM    3  C   UNL     1       5.708  29.109  51.659  1.00  0.00     0.246 C 
HETATM    4  C   UNL     1       5.136  29.777  50.395  1.00  0.00     0.062 C 
HETATM    5  C   UNL     1       3.941  30.643  50.772  1.00  0.00     0.020 C 
HETATM    6  C   UNL     1       2.864  29.721  51.326  1.00  0.00     0.031 C 
HETATM    7  C   UNL     1       2.407  28.764  50.221  1.00  0.00     0.138 C 
HETATM    8  N   UNL     1       3.455  28.234  49.347  1.00  0.00    -0.317 N 
HETATM    9  C   UNL     1       4.754  28.751  49.350  1.00  0.00     0.020 A 
HETATM   10  C   UNL     1       5.648  28.317  48.443  1.00  0.00     0.026 A 
HETATM   11  C   UNL     1       3.043  27.256  48.429  1.00  0.00     0.247 A 
HETATM   12  O   UNL     1       1.923  26.757  48.423  1.00  0.00    -0.268 OA
HETATM   13  C   UNL     1       4.058  26.797  47.451  1.00  0.00     0.074 A 
HETATM   14  C   UNL     1       5.290  27.316  47.472  1.00  0.00     0.007 A 
HETATM   15  C   UNL     1       3.350  29.012  52.597  1.00  0.00     0.241 C 
ENDROOT
BRANCH   1  16
HETATM   16  C   UNL     1       4.581  26.840  52.134  1.00  0.00     0.276 C 
BRANCH  16  17
HETATM   17  C   UNL     1       5.338  25.957  53.089  1.00  0.00     0.005 A 
HETATM   18  C   UNL     1       5.252  26.138  54.472  1.00  0.00     0.107 A 
HETATM   19  C   UNL     1       5.924  25.307  55.379  1.00  0.00     0.103 A 
HETATM   20  C   UNL     1       6.707  24.266  54.886  1.00  0.00     0.058 A 
HETATM   21  C   UNL     1       6.802  24.070  53.507  1.00  0.00     0.014 A 
HETATM   22  C   UNL     1       6.123  24.900  52.610  1.00  0.00     0.030 A 
HETATM   23 BR   UNL     1       7.870  22.662  52.834  1.00  0.00    -0.051 Br
BRANCH  18  24
HETATM   24  O   UNL     1       4.500  27.188  54.950  1.00  0.00    -0.357 OA
HETATM   25  H   UNL     1       3.589  26.817  55.021  1.00  0.00     0.218 HD
ENDBRANCH  18  24
BRANCH  19  26
HETATM   26  O   UNL     1       5.735  25.631  56.696  1.00  0.00    -0.353 OA
HETATM   27  C   UNL     1       6.904  25.700  57.510  1.00  0.00     0.210 C 
ENDBRANCH  19  26
ENDBRANCH  16  17
ENDBRANCH   1  16
TORSDOF 4
ENDMDL
MODEL 6
REMARK VINA RESULT:      -6.8      3.043      5.060
REMARK  4 active torsions:
REMARK  status: ('A' for Active; 'I' for Inactive)
REMARK    1  A    between atoms: O_2  and  C_3 
REMARK    2  A    between atoms: C_4  and  O_5 
REMARK    3  A    between atoms: C_6  and  C_7 
REMARK    4  A    between atoms: C_7  and  N_8 
ROOT
HETATM    1  N   UNL     1       5.125  26.231  52.471  1.00  0.00    -0.066 N 
HETATM    2  H   UNL     1       4.543  26.411  51.632  1.00  0.00     0.280 HD
HETATM    3  C   UNL     1       6.394  27.014  52.210  1.00  0.00     0.246 C 
HETATM    4  C   UNL     1       7.606  26.505  53.013  1.00  0.00     0.062 C 
HETATM    5  C   UNL     1       7.803  25.017  52.750  1.00  0.00     0.020 C 
HETATM    6  C   UNL     1       6.572  24.293  53.275  1.00  0.00     0.031 C 
HETATM    7  C   UNL     1       6.486  24.483  54.792  1.00  0.00     0.138 C 
HETATM    8  N   UNL     1       6.834  25.812  55.300  1.00  0.00    -0.317 N 
HETATM    9  C   UNL     1       7.444  26.777  54.494  1.00  0.00     0.020 A 
HETATM   10  C   UNL     1       7.858  27.936  55.036  1.00  0.00     0.026 A 
HETATM   11  C   UNL     1       6.621  26.011  56.673  1.00  0.00     0.247 A 
HETATM   12  O   UNL     1       6.058  25.200  57.399  1.00  0.00    -0.268 OA
HETATM   13  C   UNL     1       7.083  27.305  57.232  1.00  0.00     0.074 A 
HETATM   14  C   UNL     1       7.672  28.205  56.438  1.00  0.00     0.007 A 
HETATM   15  C   UNL     1       5.311  24.740  52.524  1.00  0.00     0.241 C 
ENDROOT
BRANCH   1  16
HETATM   16  C   UNL     1       4.200  26.784  53.541  1.00  0.00     0.276 C 
BRANCH  16  17
HETATM   17  C   UNL     1       4.056  28.281  53.522  1.00  0.00     0.005 A 
HETATM   18  C   UNL     1       3.488  28.944  52.430  1.00  0.00     0.107 A 
HETATM   19  C   UNL     1       3.316  30.336  52.406  1.00  0.00     0.103 A 
HETATM   20  C   UNL     1       3.728  31.084  53.505  1.00  0.00     0.058 A 
HETATM   21  C   UNL     1       4.296  30.437  54.605  1.00  0.00     0.014 A 
HETATM   22  C   UNL     1       4.456  29.048  54.623  1.00  0.00     0.030 A 
HETATM   23 BR   UNL     1       4.862  31.451  56.097  1.00  0.00    -0.051 Br
BRANCH  18  24
HETATM   24  O   UNL     1       3.111  28.200  51.335  1.00  0.00    -0.357 OA
HETATM   25  H   UNL     1       2.128  28.161  51.398  1.00  0.00     0.218 HD
ENDBRANCH  18  24
BRANCH  19  26
HETATM   26  O   UNL     1       2.751  30.819  51.257  1.00  0.00    -0.353 OA
HETATM   27  C   UNL     1       3.587  31.619  50.423  1.00  0.00     0.210 C 
ENDBRANCH  19  26
ENDBRANCH  16  17
ENDBRANCH   1  16
TORSDOF 4
ENDMDL
MODEL 7
REMARK VINA RESULT:      -6.7      4.561      7.415
REMARK  4 active torsions:
REMARK  status: ('A' for Active; 'I' for Inactive)
REMARK    1  A    between atoms: O_2  and  C_3 
REMARK    2  A    between atoms: C_4  and  O_5 
REMARK    3  A    between atoms: C_6  and  C_7 
REMARK    4  A    between atoms: C_7  and  N_8 
ROOT
HETATM    1  N   UNL     1       4.360  29.687  51.497  1.00  0.00    -0.066 N 
HETATM    2  H   UNL     1       4.766  29.997  52.400  1.00  0.00     0.280 HD
HETATM    3  C   UNL     1       5.569  29.438  50.619  1.00  0.00     0.246 C 
HETATM    4  C   UNL     1       5.254  29.491  49.113  1.00  0.00     0.062 C 
HETATM    5  C   UNL     1       4.585  30.819  48.778  1.00  0.00     0.020 C 
HETATM    6  C   UNL     1       3.258  30.861  49.522  1.00  0.00     0.031 C 
HETATM    7  C   UNL     1       2.351  29.745  48.996  1.00  0.00     0.138 C 
HETATM    8  N   UNL     1       2.999  28.462  48.714  1.00  0.00    -0.317 N 
HETATM    9  C   UNL     1       4.390  28.325  48.685  1.00  0.00     0.020 A 
HETATM   10  C   UNL     1       4.938  27.158  48.300  1.00  0.00     0.026 A 
HETATM   11  C   UNL     1       2.137  27.411  48.364  1.00  0.00     0.247 A 
HETATM   12  O   UNL     1       0.915  27.489  48.414  1.00  0.00    -0.268 OA
HETATM   13  C   UNL     1       2.779  26.139  47.953  1.00  0.00     0.074 A 
HETATM   14  C   UNL     1       4.112  26.040  47.926  1.00  0.00     0.007 A 
HETATM   15  C   UNL     1       3.478  30.815  51.040  1.00  0.00     0.241 C 
ENDROOT
BRANCH   1  16
HETATM   16  C   UNL     1       3.607  28.457  51.972  1.00  0.00     0.276 C 
BRANCH  16  17
HETATM   17  C   UNL     1       4.313  27.674  53.045  1.00  0.00     0.005 A 
HETATM   18  C   UNL     1       4.822  26.396  52.797  1.00  0.00     0.107 A 
HETATM   19  C   UNL     1       5.512  25.664  53.774  1.00  0.00     0.103 A 
HETATM   20  C   UNL     1       5.693  26.225  55.035  1.00  0.00     0.058 A 
HETATM   21  C   UNL     1       5.192  27.502  55.298  1.00  0.00     0.014 A 
HETATM   22  C   UNL     1       4.512  28.229  54.315  1.00  0.00     0.030 A 
HETATM   23 BR   UNL     1       5.430  28.266  57.011  1.00  0.00    -0.051 Br
BRANCH  18  24
HETATM   24  O   UNL     1       4.613  25.836  51.557  1.00  0.00    -0.357 OA
HETATM   25  H   UNL     1       4.131  24.998  51.751  1.00  0.00     0.218 HD
ENDBRANCH  18  24
BRANCH  19  26
HETATM   26  O   UNL     1       5.935  24.428  53.364  1.00  0.00    -0.353 OA
HETATM   27  C   UNL     1       6.878  23.765  54.205  1.00  0.00     0.210 C 
ENDBRANCH  19  26
ENDBRANCH  16  17
ENDBRANCH   1  16
TORSDOF 4
ENDMDL
MODEL 8
REMARK VINA RESULT:      -6.7      9.970     12.493
REMARK  4 active torsions:
REMARK  status: ('A' for Active; 'I' for Inactive)
REMARK    1  A    between atoms: O_2  and  C_3 
REMARK    2  A    between atoms: C_4  and  O_5 
REMARK    3  A    between atoms: C_6  and  C_7 
REMARK    4  A    between atoms: C_7  and  N_8 
ROOT
HETATM    1  N   UNL     1       4.432  36.230  62.158  1.00  0.00    -0.066 N 
HETATM    2  H   UNL     1       4.113  37.067  61.635  1.00  0.00     0.280 HD
HETATM    3  C   UNL     1       4.459  35.135  61.113  1.00  0.00     0.246 C 
HETATM    4  C   UNL     1       4.375  33.717  61.708  1.00  0.00     0.062 C 
HETATM    5  C   UNL     1       3.143  33.610  62.599  1.00  0.00     0.020 C 
HETATM    6  C   UNL     1       3.331  34.579  63.756  1.00  0.00     0.031 C 
HETATM    7  C   UNL     1       4.539  34.139  64.589  1.00  0.00     0.138 C 
HETATM    8  N   UNL     1       5.698  33.649  63.841  1.00  0.00    -0.317 N 
HETATM    9  C   UNL     1       5.632  33.362  62.475  1.00  0.00     0.020 A 
HETATM   10  C   UNL     1       6.685  32.797  61.858  1.00  0.00     0.026 A 
HETATM   11  C   UNL     1       6.844  33.379  64.605  1.00  0.00     0.247 A 
HETATM   12  O   UNL     1       6.947  33.651  65.796  1.00  0.00    -0.268 OA
HETATM   13  C   UNL     1       7.987  32.764  63.889  1.00  0.00     0.074 A 
HETATM   14  C   UNL     1       7.890  32.492  62.583  1.00  0.00     0.007 A 
HETATM   15  C   UNL     1       3.422  36.025  63.251  1.00  0.00     0.241 C 
ENDROOT
BRANCH   1  16
HETATM   16  C   UNL     1       5.781  36.736  62.639  1.00  0.00     0.276 C 
BRANCH  16  17
HETATM   17  C   UNL     1       5.846  38.225  62.844  1.00  0.00     0.005 A 
HETATM   18  C   UNL     1       5.763  39.112  61.767  1.00  0.00     0.107 A 
HETATM   19  C   UNL     1       5.789  40.504  61.941  1.00  0.00     0.103 A 
HETATM   20  C   UNL     1       5.906  41.020  63.228  1.00  0.00     0.058 A 
HETATM   21  C   UNL     1       5.989  40.147  64.315  1.00  0.00     0.014 A 
HETATM   22  C   UNL     1       5.954  38.761  64.133  1.00  0.00     0.030 A 
HETATM   23 BR   UNL     1       6.154  40.845  66.065  1.00  0.00    -0.051 Br
BRANCH  18  24
HETATM   24  O   UNL     1       5.678  38.594  60.495  1.00  0.00    -0.357 OA
HETATM   25  H   UNL     1       5.091  39.226  60.017  1.00  0.00     0.218 HD
ENDBRANCH  18  24
BRANCH  19  26
HETATM   26  O   UNL     1       5.705  41.223  60.779  1.00  0.00    -0.353 OA
HETATM   27  C   UNL     1       6.883  41.916  60.370  1.00  0.00     0.210 C 
ENDBRANCH  19  26
ENDBRANCH  16  17
ENDBRANCH   1  16
TORSDOF 4
ENDMDL
MODEL 9
REMARK VINA RESULT:      -6.7     10.536     12.496
REMARK  4 active torsions:
REMARK  status: ('A' for Active; 'I' for Inactive)
REMARK    1  A    between atoms: O_2  and  C_3 
REMARK    2  A    between atoms: C_4  and  O_5 
REMARK    3  A    between atoms: C_6  and  C_7 
REMARK    4  A    between atoms: C_7  and  N_8 
ROOT
HETATM    1  N   UNL     1       4.087  36.076  61.996  1.00  0.00    -0.066 N 
HETATM    2  H   UNL     1       3.904  36.785  61.261  1.00  0.00     0.280 HD
HETATM    3  C   UNL     1       4.837  34.980  61.268  1.00  0.00     0.246 C 
HETATM    4  C   UNL     1       4.757  33.612  61.971  1.00  0.00     0.062 C 
HETATM    5  C   UNL     1       3.297  33.238  62.194  1.00  0.00     0.020 C 
HETATM    6  C   UNL     1       2.700  34.270  63.139  1.00  0.00     0.031 C 
HETATM    7  C   UNL     1       3.409  34.180  64.494  1.00  0.00     0.138 C 
HETATM    8  N   UNL     1       4.857  33.964  64.455  1.00  0.00    -0.317 N 
HETATM    9  C   UNL     1       5.522  33.613  63.277  1.00  0.00     0.020 A 
HETATM   10  C   UNL     1       6.831  33.304  63.315  1.00  0.00     0.026 A 
HETATM   11  C   UNL     1       5.512  34.020  65.695  1.00  0.00     0.247 A 
HETATM   12  O   UNL     1       4.965  34.359  66.739  1.00  0.00    -0.268 OA
HETATM   13  C   UNL     1       6.955  33.681  65.696  1.00  0.00     0.074 A 
HETATM   14  C   UNL     1       7.563  33.340  64.554  1.00  0.00     0.007 A 
HETATM   15  C   UNL     1       2.736  35.671  62.514  1.00  0.00     0.241 C 
ENDROOT
BRANCH   1  16
HETATM   16  C   UNL     1       4.900  36.922  62.961  1.00  0.00     0.276 C 
BRANCH  16  17
HETATM   17  C   UNL     1       5.612  38.081  62.320  1.00  0.00     0.005 A 
HETATM   18  C   UNL     1       6.496  38.885  63.046  1.00  0.00     0.107 A 
HETATM   19  C   UNL     1       7.194  39.949  62.459  1.00  0.00     0.103 A 
HETATM   20  C   UNL     1       6.999  40.219  61.107  1.00  0.00     0.058 A 
HETATM   21  C   UNL     1       6.121  39.425  60.367  1.00  0.00     0.014 A 
HETATM   22  C   UNL     1       5.435  38.360  60.959  1.00  0.00     0.030 A 
HETATM   23 BR   UNL     1       5.849  39.792  58.532  1.00  0.00    -0.051 Br
BRANCH  18  24
HETATM   24  O   UNL     1       6.661  38.630  64.389  1.00  0.00    -0.357 OA
HETATM   25  H   UNL     1       5.832  38.162  64.648  1.00  0.00     0.218 HD
ENDBRANCH  18  24
BRANCH  19  26
HETATM   26  O   UNL     1       8.011  40.635  63.317  1.00  0.00    -0.353 OA
HETATM   27  C   UNL     1       7.630  41.975  63.627  1.00  0.00     0.210 C 
ENDBRANCH  19  26
ENDBRANCH  16  17
ENDBRANCH   1  16
TORSDOF 4
ENDMDL
MODEL 10
REMARK VINA RESULT:      -6.7      2.327      3.480
REMARK  4 active torsions:
REMARK  status: ('A' for Active; 'I' for Inactive)
REMARK    1  A    between atoms: O_2  and  C_3 
REMARK    2  A    between atoms: C_4  and  O_5 
REMARK    3  A    between atoms: C_6  and  C_7 
REMARK    4  A    between atoms: C_7  and  N_8 
ROOT
HETATM    1  N   UNL     1       6.085  28.356  57.105  1.00  0.00    -0.066 N 
HETATM    2  H   UNL     1       5.602  28.832  57.890  1.00  0.00     0.280 HD
HETATM    3  C   UNL     1       6.860  27.242  57.775  1.00  0.00     0.246 C 
HETATM    4  C   UNL     1       8.052  26.735  56.941  1.00  0.00     0.062 C 
HETATM    5  C   UNL     1       8.956  27.907  56.581  1.00  0.00     0.020 C 
HETATM    6  C   UNL     1       8.152  28.851  55.699  1.00  0.00     0.031 C 
HETATM    7  C   UNL     1       7.789  28.135  54.396  1.00  0.00     0.138 C 
HETATM    8  N   UNL     1       7.403  26.727  54.516  1.00  0.00    -0.317 N 
HETATM    9  C   UNL     1       7.588  26.006  55.698  1.00  0.00     0.020 A 
HETATM   10  C   UNL     1       7.334  24.685  55.723  1.00  0.00     0.026 A 
HETATM   11  C   UNL     1       6.943  26.122  53.336  1.00  0.00     0.247 A 
HETATM   12  O   UNL     1       6.736  26.733  52.293  1.00  0.00    -0.268 OA
HETATM   13  C   UNL     1       6.665  24.667  53.404  1.00  0.00     0.074 A 
HETATM   14  C   UNL     1       6.861  24.001  54.547  1.00  0.00     0.007 A 
HETATM   15  C   UNL     1       6.940  29.409  56.457  1.00  0.00     0.241 C 
ENDROOT
BRANCH   1  16
HETATM   16  C   UNL     1       4.877  27.939  56.285  1.00  0.00     0.276 C 
BRANCH  16  17
HETATM   17  C   UNL     1       4.232  29.061  55.518  1.00  0.00     0.005 A 
HETATM   18  C   UNL     1       3.585  30.113  56.173  1.00  0.00     0.107 A 
HETATM   19  C   UNL     1       3.006  31.184  55.477  1.00  0.00     0.103 A 
HETATM   20  C   UNL     1       3.075  31.200  54.087  1.00  0.00     0.058 A 
HETATM   21  C   UNL     1       3.719  30.157  53.417  1.00  0.00     0.014 A 
HETATM   22  C   UNL     1       4.300  29.097  54.120  1.00  0.00     0.030 A 
HETATM   23 BR   UNL     1       3.808  30.172  51.528  1.00  0.00    -0.051 Br
BRANCH  18  24
HETATM   24  O   UNL     1       3.496  30.075  57.546  1.00  0.00    -0.357 OA
HETATM   25  H   UNL     1       3.052  30.923  57.781  1.00  0.00     0.218 HD
ENDBRANCH  18  24
BRANCH  19  26
HETATM   26  O   UNL     1       2.408  32.123  56.274  1.00  0.00    -0.353 OA
HETATM   27  C   UNL     1       3.009  33.416  56.299  1.00  0.00     0.210 C 
ENDBRANCH  19  26
ENDBRANCH  16  17
ENDBRANCH   1  16
TORSDOF 4
ENDMDL
