MODEL 1
REMARK VINA RESULT:      -9.8      0.000      0.000
REMARK  6 active torsions:
REMARK  status: ('A' for Active; 'I' for Inactive)
REMARK    1  A    between atoms: N_6  and  C_7 
REMARK    2  A    between atoms: C_8  and  N_9 
REMARK    3  A    between atoms: N_9  and  C_10 
REMARK    4  A    between atoms: C_10  and  N_11 
REMARK       I    between atoms: N_11  and  C_12 
REMARK    5  A    between atoms: C_12  and  C_13 
REMARK    6  A    between atoms: C_14  and  O_15 
ROOT
HETATM    1  C   UNL     1       5.775  28.001  53.684  1.00  0.00     0.179 C 
HETATM    2  S   UNL     1       4.101  28.161  53.681  1.00  0.00    -0.040 SA
ENDROOT
BRANCH   1   3
HETATM    3  N   UNL     1       6.655  28.932  54.238  1.00  0.00    -0.331 N 
HETATM    4  H   UNL     1       6.751  29.798  53.715  1.00  0.00     0.168 HD
BRANCH   3   5
HETATM    5  C   UNL     1       6.995  29.037  55.610  1.00  0.00     0.061 A 
HETATM    6  C   UNL     1       6.275  29.919  56.459  1.00  0.00     0.057 A 
HETATM    7  C   UNL     1       6.860  30.171  57.717  1.00  0.00     0.031 A 
HETATM    8  C   UNL     1       8.013  29.506  58.156  1.00  0.00     0.002 A 
HETATM    9  C   UNL     1       8.642  28.585  57.336  1.00  0.00     0.002 A 
HETATM   10  C   UNL     1       8.148  28.367  56.056  1.00  0.00     0.032 A 
BRANCH   6  11
HETATM   11  N   UNL     1       5.036  30.495  56.072  1.00  0.00    -0.376 N 
HETATM   12  C   UNL     1       4.991  31.946  55.756  1.00  0.00     0.150 C 
HETATM   13  C   UNL     1       4.871  32.826  57.030  1.00  0.00     0.254 C 
HETATM   14  N   UNL     1       3.707  32.377  57.913  1.00  0.00    -0.072 N 
HETATM   15  C   UNL     1       3.621  33.171  59.181  1.00  0.00     0.269 C 
HETATM   16  H   UNL     1       2.842  32.542  57.383  1.00  0.00     0.279 HD
HETATM   17  C   UNL     1       3.774  30.876  58.203  1.00  0.00     0.254 C 
HETATM   18  C   UNL     1       3.852  30.087  56.883  1.00  0.00     0.150 C 
ENDBRANCH   6  11
ENDBRANCH   3   5
ENDBRANCH   1   3
BRANCH   1  19
HETATM   19  N   UNL     1       6.488  26.967  53.081  1.00  0.00    -0.299 N 
HETATM   20  C   UNL     1       5.996  25.679  52.976  1.00  0.00     0.260 C 
HETATM   21  O   UNL     1       5.047  25.397  52.250  1.00  0.00    -0.267 OA
HETATM   22  H   UNL     1       7.471  27.010  53.320  1.00  0.00     0.171 HD
BRANCH  20  23
HETATM   23  C   UNL     1       6.696  24.603  53.741  1.00  0.00     0.068 C 
HETATM   24  C   UNL     1       6.971  24.636  55.117  1.00  0.00     0.102 C 
HETATM   25  C   UNL     1       7.723  23.585  55.692  1.00  0.00     0.056 C 
HETATM   26 BR   UNL     1       8.395  23.771  57.481  1.00  0.00    -0.047 Br
HETATM   27  C   UNL     1       8.063  22.418  54.941  1.00  0.00    -0.006 A 
HETATM   28  C   UNL     1       7.702  22.378  53.575  1.00  0.00    -0.024 A 
HETATM   29  C   UNL     1       8.736  21.279  55.459  1.00  0.00     0.014 A 
HETATM   30  C   UNL     1       7.059  23.474  52.991  1.00  0.00     0.032 C 
HETATM   31  C   UNL     1       7.992  21.249  52.791  1.00  0.00     0.012 A 
HETATM   32  C   UNL     1       8.639  20.143  53.336  1.00  0.00     0.001 A 
HETATM   33  C   UNL     1       9.014  20.159  54.670  1.00  0.00     0.001 A 
BRANCH  24  34
HETATM   34  O   UNL     1       6.555  25.737  55.832  1.00  0.00    -0.353 OA
HETATM   35  C   UNL     1       5.334  25.515  56.554  1.00  0.00     0.210 C 
ENDBRANCH  24  34
ENDBRANCH  20  23
ENDBRANCH   1  19
TORSDOF 6
ENDMDL
MODEL 2
REMARK VINA RESULT:      -9.8      5.506     10.910
REMARK  6 active torsions:
REMARK  status: ('A' for Active; 'I' for Inactive)
REMARK    1  A    between atoms: N_6  and  C_7 
REMARK    2  A    between atoms: C_8  and  N_9 
REMARK    3  A    between atoms: N_9  and  C_10 
REMARK    4  A    between atoms: C_10  and  N_11 
REMARK       I    between atoms: N_11  and  C_12 
REMARK    5  A    between atoms: C_12  and  C_13 
REMARK    6  A    between atoms: C_14  and  O_15 
ROOT
HETATM    1  C   UNL     1       6.963  31.911  59.667  1.00  0.00     0.179 C 
HETATM    2  S   UNL     1       5.718  32.403  58.648  1.00  0.00    -0.040 SA
ENDROOT
BRANCH   1   3
HETATM    3  N   UNL     1       7.648  30.701  59.547  1.00  0.00    -0.331 N 
HETATM    4  H   UNL     1       7.168  29.894  59.936  1.00  0.00     0.168 HD
BRANCH   3   5
HETATM    5  C   UNL     1       8.607  30.386  58.551  1.00  0.00     0.061 A 
HETATM    6  C   UNL     1       8.474  29.200  57.780  1.00  0.00     0.057 A 
HETATM    7  C   UNL     1       9.608  28.827  57.031  1.00  0.00     0.031 A 
HETATM    8  C   UNL     1      10.754  29.632  56.951  1.00  0.00     0.002 A 
HETATM    9  C   UNL     1      10.817  30.827  57.647  1.00  0.00     0.002 A 
HETATM   10  C   UNL     1       9.755  31.193  58.464  1.00  0.00     0.032 A 
BRANCH   6  11
HETATM   11  N   UNL     1       7.269  28.450  57.752  1.00  0.00    -0.376 N 
HETATM   12  C   UNL     1       7.352  26.971  57.637  1.00  0.00     0.150 C 
HETATM   13  C   UNL     1       7.542  26.502  56.169  1.00  0.00     0.254 C 
HETATM   14  N   UNL     1       6.487  27.110  55.244  1.00  0.00    -0.072 N 
HETATM   15  C   UNL     1       6.701  26.723  53.812  1.00  0.00     0.269 C 
HETATM   16  H   UNL     1       5.576  26.734  55.536  1.00  0.00     0.279 HD
HETATM   17  C   UNL     1       6.417  28.630  55.403  1.00  0.00     0.254 C 
HETATM   18  C   UNL     1       6.187  28.995  56.881  1.00  0.00     0.150 C 
ENDBRANCH   6  11
ENDBRANCH   3   5
ENDBRANCH   1   3
BRANCH   1  19
HETATM   19  N   UNL     1       7.414  32.608  60.785  1.00  0.00    -0.299 N 
HETATM   20  C   UNL     1       7.370  32.085  62.064  1.00  0.00     0.260 C 
HETATM   21  O   UNL     1       8.078  31.144  62.412  1.00  0.00    -0.267 OA
HETATM   22  H   UNL     1       7.158  33.587  60.737  1.00  0.00     0.171 HD
BRANCH  20  23
HETATM   23  C   UNL     1       6.459  32.739  63.052  1.00  0.00     0.068 C 
HETATM   24  C   UNL     1       5.095  32.999  62.848  1.00  0.00     0.102 C 
HETATM   25  C   UNL     1       4.376  33.708  63.838  1.00  0.00     0.056 C 
HETATM   26 BR   UNL     1       2.615  34.363  63.440  1.00  0.00    -0.047 Br
HETATM   27  C   UNL     1       4.962  34.017  65.103  1.00  0.00    -0.006 A 
HETATM   28  C   UNL     1       6.317  33.672  65.310  1.00  0.00    -0.024 A 
HETATM   29  C   UNL     1       4.288  34.645  66.185  1.00  0.00     0.014 A 
HETATM   30  C   UNL     1       7.049  33.073  64.281  1.00  0.00     0.032 C 
HETATM   31  C   UNL     1       6.942  33.933  66.541  1.00  0.00     0.012 A 
HETATM   32  C   UNL     1       6.246  34.535  67.587  1.00  0.00     0.001 A 
HETATM   33  C   UNL     1       4.919  34.895  67.407  1.00  0.00     0.001 A 
BRANCH  24  34
HETATM   34  O   UNL     1       4.537  32.611  61.650  1.00  0.00    -0.353 OA
HETATM   35  C   UNL     1       3.722  31.434  61.759  1.00  0.00     0.210 C 
ENDBRANCH  24  34
ENDBRANCH  20  23
ENDBRANCH   1  19
TORSDOF 6
ENDMDL
MODEL 3
REMARK VINA RESULT:      -9.7      2.356      3.490
REMARK  6 active torsions:
REMARK  status: ('A' for Active; 'I' for Inactive)
REMARK    1  A    between atoms: N_6  and  C_7 
REMARK    2  A    between atoms: C_8  and  N_9 
REMARK    3  A    between atoms: N_9  and  C_10 
REMARK    4  A    between atoms: C_10  and  N_11 
REMARK       I    between atoms: N_11  and  C_12 
REMARK    5  A    between atoms: C_12  and  C_13 
REMARK    6  A    between atoms: C_14  and  O_15 
ROOT
HETATM    1  C   UNL     1       7.669  29.261  56.729  1.00  0.00     0.179 C 
HETATM    2  S   UNL     1       9.236  29.328  56.121  1.00  0.00    -0.040 SA
ENDROOT
BRANCH   1   3
HETATM    3  N   UNL     1       7.000  30.343  57.303  1.00  0.00    -0.331 N 
HETATM    4  H   UNL     1       6.097  30.559  56.890  1.00  0.00     0.168 HD
BRANCH   3   5
HETATM    5  C   UNL     1       7.157  30.803  58.635  1.00  0.00     0.061 A 
HETATM    6  C   UNL     1       6.331  31.846  59.133  1.00  0.00     0.057 A 
HETATM    7  C   UNL     1       6.746  32.429  60.348  1.00  0.00     0.031 A 
HETATM    8  C   UNL     1       7.834  31.937  61.083  1.00  0.00     0.002 A 
HETATM    9  C   UNL     1       8.567  30.862  60.611  1.00  0.00     0.002 A 
HETATM   10  C   UNL     1       8.244  30.310  59.378  1.00  0.00     0.032 A 
BRANCH   6  11
HETATM   11  N   UNL     1       5.151  32.260  58.460  1.00  0.00    -0.376 N 
HETATM   12  C   UNL     1       4.889  33.715  58.309  1.00  0.00     0.150 C 
HETATM   13  C   UNL     1       4.244  34.334  59.578  1.00  0.00     0.254 C 
HETATM   14  N   UNL     1       3.006  33.553  60.017  1.00  0.00    -0.072 N 
HETATM   15  C   UNL     1       2.413  34.097  61.282  1.00  0.00     0.269 C 
HETATM   16  H   UNL     1       2.303  33.656  59.274  1.00  0.00     0.279 HD
HETATM   17  C   UNL     1       3.307  32.058  60.144  1.00  0.00     0.254 C 
HETATM   18  C   UNL     1       3.905  31.527  58.828  1.00  0.00     0.150 C 
ENDBRANCH   6  11
ENDBRANCH   3   5
ENDBRANCH   1   3
BRANCH   1  19
HETATM   19  N   UNL     1       6.878  28.116  56.797  1.00  0.00    -0.299 N 
HETATM   20  C   UNL     1       7.400  26.857  57.030  1.00  0.00     0.260 C 
HETATM   21  O   UNL     1       7.887  26.539  58.111  1.00  0.00    -0.267 OA
HETATM   22  H   UNL     1       6.147  28.132  56.096  1.00  0.00     0.171 HD
BRANCH  20  23
HETATM   23  C   UNL     1       7.307  25.852  55.928  1.00  0.00     0.068 C 
HETATM   24  C   UNL     1       6.506  25.977  54.782  1.00  0.00     0.102 C 
HETATM   25  C   UNL     1       6.448  24.903  53.864  1.00  0.00     0.056 C 
HETATM   26 BR   UNL     1       5.117  24.914  52.480  1.00  0.00    -0.047 Br
HETATM   27  C   UNL     1       7.307  23.769  53.992  1.00  0.00    -0.006 A 
HETATM   28  C   UNL     1       8.162  23.707  55.117  1.00  0.00    -0.024 A 
HETATM   29  C   UNL     1       7.379  22.690  53.072  1.00  0.00     0.014 A 
HETATM   30  C   UNL     1       8.126  24.723  56.077  1.00  0.00     0.032 C 
HETATM   31  C   UNL     1       9.043  22.626  55.286  1.00  0.00     0.012 A 
HETATM   32  C   UNL     1       9.100  21.592  54.355  1.00  0.00     0.001 A 
HETATM   33  C   UNL     1       8.264  21.622  53.248  1.00  0.00     0.001 A 
BRANCH  24  34
HETATM   34  O   UNL     1       5.753  27.122  54.645  1.00  0.00    -0.353 OA
HETATM   35  C   UNL     1       6.213  27.980  53.589  1.00  0.00     0.210 C 
ENDBRANCH  24  34
ENDBRANCH  20  23
ENDBRANCH   1  19
TORSDOF 6
ENDMDL
MODEL 4
REMARK VINA RESULT:      -9.4      3.703      5.658
REMARK  6 active torsions:
REMARK  status: ('A' for Active; 'I' for Inactive)
REMARK    1  A    between atoms: N_6  and  C_7 
REMARK    2  A    between atoms: C_8  and  N_9 
REMARK    3  A    between atoms: N_9  and  C_10 
REMARK    4  A    between atoms: C_10  and  N_11 
REMARK       I    between atoms: N_11  and  C_12 
REMARK    5  A    between atoms: C_12  and  C_13 
REMARK    6  A    between atoms: C_14  and  O_15 
ROOT
HETATM    1  C   UNL     1       5.715  27.324  52.227  1.00  0.00     0.179 C 
HETATM    2  S   UNL     1       6.312  28.500  53.271  1.00  0.00    -0.040 SA
ENDROOT
BRANCH   1   3
HETATM    3  N   UNL     1       4.526  27.439  51.507  1.00  0.00    -0.331 N 
HETATM    4  H   UNL     1       3.739  27.811  52.031  1.00  0.00     0.168 HD
BRANCH   3   5
HETATM    5  C   UNL     1       4.420  27.599  50.102  1.00  0.00     0.061 A 
HETATM    6  C   UNL     1       4.078  28.863  49.550  1.00  0.00     0.057 A 
HETATM    7  C   UNL     1       3.716  28.859  48.188  1.00  0.00     0.031 A 
HETATM    8  C   UNL     1       3.800  27.707  47.392  1.00  0.00     0.002 A 
HETATM    9  C   UNL     1       4.220  26.508  47.942  1.00  0.00     0.002 A 
HETATM   10  C   UNL     1       4.509  26.448  49.299  1.00  0.00     0.032 A 
BRANCH   6  11
HETATM   11  N   UNL     1       4.120  30.056  50.318  1.00  0.00    -0.376 N 
HETATM   12  C   UNL     1       3.043  31.063  50.130  1.00  0.00     0.150 C 
HETATM   13  C   UNL     1       3.297  31.980  48.903  1.00  0.00     0.254 C 
HETATM   14  N   UNL     1       4.691  32.607  48.951  1.00  0.00    -0.072 N 
HETATM   15  C   UNL     1       4.978  33.438  47.738  1.00  0.00     0.269 C 
HETATM   16  H   UNL     1       4.716  33.229  49.769  1.00  0.00     0.279 HD
HETATM   17  C   UNL     1       5.771  31.545  49.164  1.00  0.00     0.254 C 
HETATM   18  C   UNL     1       5.455  30.715  50.421  1.00  0.00     0.150 C 
ENDBRANCH   6  11
ENDBRANCH   3   5
ENDBRANCH   1   3
BRANCH   1  19
HETATM   19  N   UNL     1       6.291  26.074  52.006  1.00  0.00    -0.299 N 
HETATM   20  C   UNL     1       5.769  24.905  52.529  1.00  0.00     0.260 C 
HETATM   21  O   UNL     1       4.699  24.438  52.150  1.00  0.00    -0.267 OA
HETATM   22  H   UNL     1       7.302  26.123  52.045  1.00  0.00     0.171 HD
BRANCH  20  23
HETATM   23  C   UNL     1       6.581  24.178  53.552  1.00  0.00     0.068 C 
HETATM   24  C   UNL     1       6.907  24.668  54.826  1.00  0.00     0.102 C 
HETATM   25  C   UNL     1       7.761  23.906  55.657  1.00  0.00     0.056 C 
HETATM   26 BR   UNL     1       8.485  24.699  57.249  1.00  0.00    -0.047 Br
HETATM   27  C   UNL     1       8.163  22.584  55.296  1.00  0.00    -0.006 A 
HETATM   28  C   UNL     1       7.753  22.085  54.038  1.00  0.00    -0.024 A 
HETATM   29  C   UNL     1       8.943  21.716  56.106  1.00  0.00     0.014 A 
HETATM   30  C   UNL     1       7.003  22.893  53.178  1.00  0.00     0.032 C 
HETATM   31  C   UNL     1       8.100  20.784  53.637  1.00  0.00     0.012 A 
HETATM   32  C   UNL     1       8.853  19.954  54.463  1.00  0.00     0.001 A 
HETATM   33  C   UNL     1       9.278  20.421  55.698  1.00  0.00     0.001 A 
BRANCH  24  34
HETATM   34  O   UNL     1       6.433  25.912  55.178  1.00  0.00    -0.353 OA
HETATM   35  C   UNL     1       5.318  25.859  56.082  1.00  0.00     0.210 C 
ENDBRANCH  24  34
ENDBRANCH  20  23
ENDBRANCH   1  19
TORSDOF 6
ENDMDL
MODEL 5
REMARK VINA RESULT:      -9.4      3.221      5.806
REMARK  6 active torsions:
REMARK  status: ('A' for Active; 'I' for Inactive)
REMARK    1  A    between atoms: N_6  and  C_7 
REMARK    2  A    between atoms: C_8  and  N_9 
REMARK    3  A    between atoms: N_9  and  C_10 
REMARK    4  A    between atoms: C_10  and  N_11 
REMARK       I    between atoms: N_11  and  C_12 
REMARK    5  A    between atoms: C_12  and  C_13 
REMARK    6  A    between atoms: C_14  and  O_15 
ROOT
HETATM    1  C   UNL     1       6.455  28.083  53.274  1.00  0.00     0.179 C 
HETATM    2  S   UNL     1       6.638  28.527  54.886  1.00  0.00    -0.040 SA
ENDROOT
BRANCH   1   3
HETATM    3  N   UNL     1       6.150  28.970  52.241  1.00  0.00    -0.331 N 
HETATM    4  H   UNL     1       6.883  29.094  51.549  1.00  0.00     0.168 HD
BRANCH   3   5
HETATM    5  C   UNL     1       4.848  29.283  51.775  1.00  0.00     0.061 A 
HETATM    6  C   UNL     1       4.468  28.961  50.444  1.00  0.00     0.057 A 
HETATM    7  C   UNL     1       3.278  29.560  49.984  1.00  0.00     0.031 A 
HETATM    8  C   UNL     1       2.455  30.330  50.818  1.00  0.00     0.002 A 
HETATM    9  C   UNL     1       2.811  30.554  52.137  1.00  0.00     0.002 A 
HETATM   10  C   UNL     1       4.016  30.050  52.609  1.00  0.00     0.032 A 
BRANCH   6  11
HETATM   11  N   UNL     1       5.230  28.074  49.637  1.00  0.00    -0.376 N 
HETATM   12  C   UNL     1       5.386  28.382  48.192  1.00  0.00     0.150 C 
HETATM   13  C   UNL     1       4.166  27.915  47.352  1.00  0.00     0.254 C 
HETATM   14  N   UNL     1       3.836  26.445  47.612  1.00  0.00    -0.072 N 
HETATM   15  C   UNL     1       2.617  25.999  46.862  1.00  0.00     0.269 C 
HETATM   16  H   UNL     1       4.632  25.891  47.271  1.00  0.00     0.279 HD
HETATM   17  C   UNL     1       3.701  26.161  49.108  1.00  0.00     0.254 C 
HETATM   18  C   UNL     1       4.970  26.620  49.849  1.00  0.00     0.150 C 
ENDBRANCH   6  11
ENDBRANCH   3   5
ENDBRANCH   1   3
BRANCH   1  19
HETATM   19  N   UNL     1       6.517  26.780  52.784  1.00  0.00    -0.299 N 
HETATM   20  C   UNL     1       5.797  25.736  53.336  1.00  0.00     0.260 C 
HETATM   21  O   UNL     1       4.574  25.669  53.255  1.00  0.00    -0.267 OA
HETATM   22  H   UNL     1       7.463  26.529  52.523  1.00  0.00     0.171 HD
BRANCH  20  23
HETATM   23  C   UNL     1       6.563  24.639  54.002  1.00  0.00     0.068 C 
HETATM   24  C   UNL     1       6.904  24.600  55.363  1.00  0.00     0.102 C 
HETATM   25  C   UNL     1       7.711  23.540  55.838  1.00  0.00     0.056 C 
HETATM   26 BR   UNL     1       8.463  23.643  57.603  1.00  0.00    -0.047 Br
HETATM   27  C   UNL     1       8.048  22.431  55.004  1.00  0.00    -0.006 A 
HETATM   28  C   UNL     1       7.622  22.460  53.656  1.00  0.00    -0.024 A 
HETATM   29  C   UNL     1       8.776  21.285  55.421  1.00  0.00     0.014 A 
HETATM   30  C   UNL     1       6.921  23.568  53.170  1.00  0.00     0.032 C 
HETATM   31  C   UNL     1       7.905  21.388  52.793  1.00  0.00     0.012 A 
HETATM   32  C   UNL     1       8.608  20.272  53.240  1.00  0.00     0.001 A 
HETATM   33  C   UNL     1       9.047  20.222  54.554  1.00  0.00     0.001 A 
BRANCH  24  34
HETATM   34  O   UNL     1       6.491  25.644  56.161  1.00  0.00    -0.353 OA
HETATM   35  C   UNL     1       5.287  25.358  56.890  1.00  0.00     0.210 C 
ENDBRANCH  24  34
ENDBRANCH  20  23
ENDBRANCH   1  19
TORSDOF 6
ENDMDL
MODEL 6
REMARK VINA RESULT:      -9.3      4.069      9.275
REMARK  6 active torsions:
REMARK  status: ('A' for Active; 'I' for Inactive)
REMARK    1  A    between atoms: N_6  and  C_7 
REMARK    2  A    between atoms: C_8  and  N_9 
REMARK    3  A    between atoms: N_9  and  C_10 
REMARK    4  A    between atoms: C_10  and  N_11 
REMARK       I    between atoms: N_11  and  C_12 
REMARK    5  A    between atoms: C_12  and  C_13 
REMARK    6  A    between atoms: C_14  and  O_15 
ROOT
HETATM    1  C   UNL     1       4.295  30.561  56.891  1.00  0.00     0.179 C 
HETATM    2  S   UNL     1       3.871  30.241  55.295  1.00  0.00    -0.040 SA
ENDROOT
BRANCH   1   3
HETATM    3  N   UNL     1       5.072  29.716  57.685  1.00  0.00    -0.331 N 
HETATM    4  H   UNL     1       4.547  29.086  58.286  1.00  0.00     0.168 HD
BRANCH   3   5
HETATM    5  C   UNL     1       6.388  29.279  57.390  1.00  0.00     0.061 A 
HETATM    6  C   UNL     1       6.611  27.968  56.890  1.00  0.00     0.057 A 
HETATM    7  C   UNL     1       7.950  27.528  56.902  1.00  0.00     0.031 A 
HETATM    8  C   UNL     1       9.013  28.366  57.268  1.00  0.00     0.002 A 
HETATM    9  C   UNL     1       8.768  29.669  57.668  1.00  0.00     0.002 A 
HETATM   10  C   UNL     1       7.457  30.118  57.750  1.00  0.00     0.032 A 
BRANCH   6  11
HETATM   11  N   UNL     1       5.554  27.161  56.393  1.00  0.00    -0.376 N 
HETATM   12  C   UNL     1       5.293  25.849  57.041  1.00  0.00     0.150 C 
HETATM   13  C   UNL     1       6.237  24.733  56.518  1.00  0.00     0.254 C 
HETATM   14  N   UNL     1       6.220  24.653  54.992  1.00  0.00    -0.072 N 
HETATM   15  C   UNL     1       7.180  23.627  54.469  1.00  0.00     0.269 C 
HETATM   16  H   UNL     1       5.274  24.363  54.713  1.00  0.00     0.279 HD
HETATM   17  C   UNL     1       6.474  26.022  54.359  1.00  0.00     0.254 C 
HETATM   18  C   UNL     1       5.467  27.051  54.908  1.00  0.00     0.150 C 
ENDBRANCH   6  11
ENDBRANCH   3   5
ENDBRANCH   1   3
BRANCH   1  19
HETATM   19  N   UNL     1       3.873  31.662  57.634  1.00  0.00    -0.299 N 
HETATM   20  C   UNL     1       4.736  32.653  58.061  1.00  0.00     0.260 C 
HETATM   21  O   UNL     1       5.275  33.433  57.281  1.00  0.00    -0.267 OA
HETATM   22  H   UNL     1       3.183  31.396  58.326  1.00  0.00     0.171 HD
BRANCH  20  23
HETATM   23  C   UNL     1       4.962  32.793  59.532  1.00  0.00     0.068 C 
HETATM   24  C   UNL     1       3.972  33.099  60.478  1.00  0.00     0.102 C 
HETATM   25  C   UNL     1       4.348  33.289  61.828  1.00  0.00     0.056 C 
HETATM   26 BR   UNL     1       3.081  34.031  63.066  1.00  0.00    -0.047 Br
HETATM   27  C   UNL     1       5.677  33.016  62.275  1.00  0.00    -0.006 A 
HETATM   28  C   UNL     1       6.636  32.631  61.310  1.00  0.00    -0.024 A 
HETATM   29  C   UNL     1       6.118  33.093  63.622  1.00  0.00     0.014 A 
HETATM   30  C   UNL     1       6.277  32.558  59.960  1.00  0.00     0.032 C 
HETATM   31  C   UNL     1       7.954  32.330  61.692  1.00  0.00     0.012 A 
HETATM   32  C   UNL     1       8.349  32.401  63.026  1.00  0.00     0.001 A 
HETATM   33  C   UNL     1       7.432  32.786  63.991  1.00  0.00     0.001 A 
BRANCH  24  34
HETATM   34  O   UNL     1       2.682  33.272  60.028  1.00  0.00    -0.353 OA
HETATM   35  C   UNL     1       2.406  34.616  59.602  1.00  0.00     0.210 C 
ENDBRANCH  24  34
ENDBRANCH  20  23
ENDBRANCH   1  19
TORSDOF 6
ENDMDL
MODEL 7
REMARK VINA RESULT:      -9.2      2.346      3.830
REMARK  6 active torsions:
REMARK  status: ('A' for Active; 'I' for Inactive)
REMARK    1  A    between atoms: N_6  and  C_7 
REMARK    2  A    between atoms: C_8  and  N_9 
REMARK    3  A    between atoms: N_9  and  C_10 
REMARK    4  A    between atoms: C_10  and  N_11 
REMARK       I    between atoms: N_11  and  C_12 
REMARK    5  A    between atoms: C_12  and  C_13 
REMARK    6  A    between atoms: C_14  and  O_15 
ROOT
HETATM    1  C   UNL     1       5.974  28.387  57.403  1.00  0.00     0.179 C 
HETATM    2  S   UNL     1       7.378  29.315  57.405  1.00  0.00    -0.040 SA
ENDROOT
BRANCH   1   3
HETATM    3  N   UNL     1       4.682  28.911  57.466  1.00  0.00    -0.331 N 
HETATM    4  H   UNL     1       4.181  28.718  58.329  1.00  0.00     0.168 HD
BRANCH   3   5
HETATM    5  C   UNL     1       4.213  30.047  56.760  1.00  0.00     0.061 A 
HETATM    6  C   UNL     1       3.942  31.258  57.452  1.00  0.00     0.057 A 
HETATM    7  C   UNL     1       3.215  32.226  56.730  1.00  0.00     0.031 A 
HETATM    8  C   UNL     1       2.881  32.061  55.379  1.00  0.00     0.002 A 
HETATM    9  C   UNL     1       3.237  30.903  54.708  1.00  0.00     0.002 A 
HETATM   10  C   UNL     1       3.882  29.888  55.403  1.00  0.00     0.032 A 
BRANCH   6  11
HETATM   11  N   UNL     1       4.393  31.485  58.779  1.00  0.00    -0.376 N 
HETATM   12  C   UNL     1       3.385  31.730  59.843  1.00  0.00     0.150 C 
HETATM   13  C   UNL     1       2.907  33.207  59.876  1.00  0.00     0.254 C 
HETATM   14  N   UNL     1       4.086  34.177  59.944  1.00  0.00    -0.072 N 
HETATM   15  C   UNL     1       3.643  35.609  59.905  1.00  0.00     0.269 C 
HETATM   16  H   UNL     1       4.556  34.021  60.845  1.00  0.00     0.279 HD
HETATM   17  C   UNL     1       5.112  33.884  58.847  1.00  0.00     0.254 C 
HETATM   18  C   UNL     1       5.554  32.411  58.919  1.00  0.00     0.150 C 
ENDBRANCH   6  11
ENDBRANCH   3   5
ENDBRANCH   1   3
BRANCH   1  19
HETATM   19  N   UNL     1       5.928  26.995  57.407  1.00  0.00    -0.299 N 
HETATM   20  C   UNL     1       7.057  26.206  57.291  1.00  0.00     0.260 C 
HETATM   21  O   UNL     1       7.906  26.143  58.176  1.00  0.00    -0.267 OA
HETATM   22  H   UNL     1       5.135  26.652  56.878  1.00  0.00     0.171 HD
BRANCH  20  23
HETATM   23  C   UNL     1       7.199  25.372  56.059  1.00  0.00     0.068 C 
HETATM   24  C   UNL     1       7.082  25.844  54.743  1.00  0.00     0.102 C 
HETATM   25  C   UNL     1       7.150  24.921  53.673  1.00  0.00     0.056 C 
HETATM   26 BR   UNL     1       6.661  25.486  51.904  1.00  0.00    -0.047 Br
HETATM   27  C   UNL     1       7.499  23.554  53.894  1.00  0.00    -0.006 A 
HETATM   28  C   UNL     1       7.690  23.123  55.227  1.00  0.00    -0.024 A 
HETATM   29  C   UNL     1       7.678  22.581  52.874  1.00  0.00     0.014 A 
HETATM   30  C   UNL     1       7.507  24.022  56.283  1.00  0.00     0.032 C 
HETATM   31  C   UNL     1       8.054  21.795  55.504  1.00  0.00     0.012 A 
HETATM   32  C   UNL     1       8.237  20.871  54.479  1.00  0.00     0.001 A 
HETATM   33  C   UNL     1       8.045  21.263  53.163  1.00  0.00     0.001 A 
BRANCH  24  34
HETATM   34  O   UNL     1       6.830  27.186  54.559  1.00  0.00    -0.353 OA
HETATM   35  C   UNL     1       7.969  27.915  54.077  1.00  0.00     0.210 C 
ENDBRANCH  24  34
ENDBRANCH  20  23
ENDBRANCH   1  19
TORSDOF 6
ENDMDL
MODEL 8
REMARK VINA RESULT:      -9.2      2.565      4.593
REMARK  6 active torsions:
REMARK  status: ('A' for Active; 'I' for Inactive)
REMARK    1  A    between atoms: N_6  and  C_7 
REMARK    2  A    between atoms: C_8  and  N_9 
REMARK    3  A    between atoms: N_9  and  C_10 
REMARK    4  A    between atoms: C_10  and  N_11 
REMARK       I    between atoms: N_11  and  C_12 
REMARK    5  A    between atoms: C_12  and  C_13 
REMARK    6  A    between atoms: C_14  and  O_15 
ROOT
HETATM    1  C   UNL     1       5.375  28.102  56.935  1.00  0.00     0.179 C 
HETATM    2  S   UNL     1       6.510  29.228  57.458  1.00  0.00    -0.040 SA
ENDROOT
BRANCH   1   3
HETATM    3  N   UNL     1       4.144  28.430  56.364  1.00  0.00    -0.331 N 
HETATM    4  H   UNL     1       3.355  27.885  56.699  1.00  0.00     0.168 HD
BRANCH   3   5
HETATM    5  C   UNL     1       3.794  29.689  55.815  1.00  0.00     0.061 A 
HETATM    6  C   UNL     1       4.089  29.985  54.457  1.00  0.00     0.057 A 
HETATM    7  C   UNL     1       3.972  31.339  54.085  1.00  0.00     0.031 A 
HETATM    8  C   UNL     1       3.481  32.318  54.961  1.00  0.00     0.002 A 
HETATM    9  C   UNL     1       3.120  31.980  56.254  1.00  0.00     0.002 A 
HETATM   10  C   UNL     1       3.297  30.673  56.688  1.00  0.00     0.032 A 
BRANCH   6  11
HETATM   11  N   UNL     1       4.459  28.975  53.529  1.00  0.00    -0.376 N 
HETATM   12  C   UNL     1       5.482  29.293  52.499  1.00  0.00     0.150 C 
HETATM   13  C   UNL     1       4.878  30.036  51.276  1.00  0.00     0.254 C 
HETATM   14  N   UNL     1       3.675  29.287  50.703  1.00  0.00    -0.072 N 
HETATM   15  C   UNL     1       3.038  30.027  49.566  1.00  0.00     0.269 C 
HETATM   16  H   UNL     1       4.021  28.391  50.337  1.00  0.00     0.279 HD
HETATM   17  C   UNL     1       2.653  28.960  51.793  1.00  0.00     0.254 C 
HETATM   18  C   UNL     1       3.333  28.192  52.941  1.00  0.00     0.150 C 
ENDBRANCH   6  11
ENDBRANCH   3   5
ENDBRANCH   1   3
BRANCH   1  19
HETATM   19  N   UNL     1       5.488  26.720  57.068  1.00  0.00    -0.299 N 
HETATM   20  C   UNL     1       6.706  26.065  57.083  1.00  0.00     0.260 C 
HETATM   21  O   UNL     1       7.502  26.182  58.010  1.00  0.00    -0.267 OA
HETATM   22  H   UNL     1       4.774  26.239  56.535  1.00  0.00     0.171 HD
BRANCH  20  23
HETATM   23  C   UNL     1       7.017  25.150  55.943  1.00  0.00     0.068 C 
HETATM   24  C   UNL     1       7.134  25.538  54.600  1.00  0.00     0.102 C 
HETATM   25  C   UNL     1       7.343  24.547  53.614  1.00  0.00     0.056 C 
HETATM   26 BR   UNL     1       7.171  25.008  51.758  1.00  0.00    -0.047 Br
HETATM   27  C   UNL     1       7.601  23.188  53.970  1.00  0.00    -0.006 A 
HETATM   28  C   UNL     1       7.555  22.839  55.339  1.00  0.00    -0.024 A 
HETATM   29  C   UNL     1       7.908  22.147  53.054  1.00  0.00     0.014 A 
HETATM   30  C   UNL     1       7.235  23.809  56.295  1.00  0.00     0.032 C 
HETATM   31  C   UNL     1       7.820  21.523  55.752  1.00  0.00     0.012 A 
HETATM   32  C   UNL     1       8.134  20.530  54.828  1.00  0.00     0.001 A 
HETATM   33  C   UNL     1       8.175  20.841  53.477  1.00  0.00     0.001 A 
BRANCH  24  34
HETATM   34  O   UNL     1       6.965  26.872  54.298  1.00  0.00    -0.353 OA
HETATM   35  C   UNL     1       8.197  27.609  54.277  1.00  0.00     0.210 C 
ENDBRANCH  24  34
ENDBRANCH  20  23
ENDBRANCH   1  19
TORSDOF 6
ENDMDL
MODEL 9
REMARK VINA RESULT:      -9.1      2.511      3.925
REMARK  6 active torsions:
REMARK  status: ('A' for Active; 'I' for Inactive)
REMARK    1  A    between atoms: N_6  and  C_7 
REMARK    2  A    between atoms: C_8  and  N_9 
REMARK    3  A    between atoms: N_9  and  C_10 
REMARK    4  A    between atoms: C_10  and  N_11 
REMARK       I    between atoms: N_11  and  C_12 
REMARK    5  A    between atoms: C_12  and  C_13 
REMARK    6  A    between atoms: C_14  and  O_15 
ROOT
HETATM    1  C   UNL     1       5.007  27.917  56.647  1.00  0.00     0.179 C 
HETATM    2  S   UNL     1       6.019  29.036  57.390  1.00  0.00    -0.040 SA
ENDROOT
BRANCH   1   3
HETATM    3  N   UNL     1       3.894  28.251  55.874  1.00  0.00    -0.331 N 
HETATM    4  H   UNL     1       3.063  28.502  56.403  1.00  0.00     0.168 HD
BRANCH   3   5
HETATM    5  C   UNL     1       3.926  28.769  54.555  1.00  0.00     0.061 A 
HETATM    6  C   UNL     1       3.667  30.146  54.321  1.00  0.00     0.057 A 
HETATM    7  C   UNL     1       3.436  30.506  52.978  1.00  0.00     0.031 A 
HETATM    8  C   UNL     1       3.570  29.593  51.922  1.00  0.00     0.002 A 
HETATM    9  C   UNL     1       3.909  28.276  52.178  1.00  0.00     0.002 A 
HETATM   10  C   UNL     1       4.066  27.858  53.493  1.00  0.00     0.032 A 
BRANCH   6  11
HETATM   11  N   UNL     1       3.661  31.101  55.372  1.00  0.00    -0.376 N 
HETATM   12  C   UNL     1       2.381  31.774  55.717  1.00  0.00     0.150 C 
HETATM   13  C   UNL     1       2.072  32.972  54.780  1.00  0.00     0.254 C 
HETATM   14  N   UNL     1       3.249  33.944  54.705  1.00  0.00    -0.072 N 
HETATM   15  C   UNL     1       2.992  35.070  53.749  1.00  0.00     0.269 C 
HETATM   16  H   UNL     1       3.367  34.352  55.641  1.00  0.00     0.279 HD
HETATM   17  C   UNL     1       4.551  33.216  54.366  1.00  0.00     0.254 C 
HETATM   18  C   UNL     1       4.792  32.073  55.369  1.00  0.00     0.150 C 
ENDBRANCH   6  11
ENDBRANCH   3   5
ENDBRANCH   1   3
BRANCH   1  19
HETATM   19  N   UNL     1       5.111  26.532  56.764  1.00  0.00    -0.299 N 
HETATM   20  C   UNL     1       6.321  25.881  56.919  1.00  0.00     0.260 C 
HETATM   21  O   UNL     1       6.992  25.980  57.942  1.00  0.00    -0.267 OA
HETATM   22  H   UNL     1       4.472  26.061  56.135  1.00  0.00     0.171 HD
BRANCH  20  23
HETATM   23  C   UNL     1       6.779  24.991  55.809  1.00  0.00     0.068 C 
HETATM   24  C   UNL     1       7.007  25.398  54.486  1.00  0.00     0.102 C 
HETATM   25  C   UNL     1       7.352  24.427  53.518  1.00  0.00     0.056 C 
HETATM   26 BR   UNL     1       7.338  24.899  51.657  1.00  0.00    -0.047 Br
HETATM   27  C   UNL     1       7.633  23.076  53.889  1.00  0.00    -0.006 A 
HETATM   28  C   UNL     1       7.472  22.712  55.245  1.00  0.00    -0.024 A 
HETATM   29  C   UNL     1       8.072  22.059  53.000  1.00  0.00     0.014 A 
HETATM   30  C   UNL     1       7.020  23.658  56.172  1.00  0.00     0.032 C 
HETATM   31  C   UNL     1       7.753  21.404  55.674  1.00  0.00     0.012 A 
HETATM   32  C   UNL     1       8.197  20.435  54.778  1.00  0.00     0.001 A 
HETATM   33  C   UNL     1       8.353  20.761  53.439  1.00  0.00     0.001 A 
BRANCH  24  34
HETATM   34  O   UNL     1       6.809  26.726  54.177  1.00  0.00    -0.353 OA
HETATM   35  C   UNL     1       8.000  27.520  54.301  1.00  0.00     0.210 C 
ENDBRANCH  24  34
ENDBRANCH  20  23
ENDBRANCH   1  19
TORSDOF 6
ENDMDL
MODEL 10
REMARK VINA RESULT:      -8.8      1.992      2.778
REMARK  6 active torsions:
REMARK  status: ('A' for Active; 'I' for Inactive)
REMARK    1  A    between atoms: N_6  and  C_7 
REMARK    2  A    between atoms: C_8  and  N_9 
REMARK    3  A    between atoms: N_9  and  C_10 
REMARK    4  A    between atoms: C_10  and  N_11 
REMARK       I    between atoms: N_11  and  C_12 
REMARK    5  A    between atoms: C_12  and  C_13 
REMARK    6  A    between atoms: C_14  and  O_15 
ROOT
HETATM    1  C   UNL     1       4.706  27.861  56.283  1.00  0.00     0.179 C 
HETATM    2  S   UNL     1       4.514  28.740  54.861  1.00  0.00    -0.040 SA
ENDROOT
BRANCH   1   3
HETATM    3  N   UNL     1       4.904  28.431  57.541  1.00  0.00    -0.331 N 
HETATM    4  H   UNL     1       4.528  27.897  58.320  1.00  0.00     0.168 HD
BRANCH   3   5
HETATM    5  C   UNL     1       5.951  29.319  57.894  1.00  0.00     0.061 A 
HETATM    6  C   UNL     1       5.675  30.691  58.136  1.00  0.00     0.057 A 
HETATM    7  C   UNL     1       6.798  31.541  58.193  1.00  0.00     0.031 A 
HETATM    8  C   UNL     1       8.111  31.055  58.136  1.00  0.00     0.002 A 
HETATM    9  C   UNL     1       8.348  29.699  57.986  1.00  0.00     0.002 A 
HETATM   10  C   UNL     1       7.271  28.834  57.843  1.00  0.00     0.032 A 
BRANCH   6  11
HETATM   11  N   UNL     1       4.352  31.171  58.328  1.00  0.00    -0.376 N 
HETATM   12  C   UNL     1       3.601  31.681  57.152  1.00  0.00     0.150 C 
HETATM   13  C   UNL     1       3.962  33.152  56.812  1.00  0.00     0.254 C 
HETATM   14  N   UNL     1       3.832  34.059  58.035  1.00  0.00    -0.072 N 
HETATM   15  C   UNL     1       4.246  35.469  57.740  1.00  0.00     0.269 C 
HETATM   16  H   UNL     1       2.838  34.075  58.298  1.00  0.00     0.279 HD
HETATM   17  C   UNL     1       4.602  33.495  59.231  1.00  0.00     0.254 C 
HETATM   18  C   UNL     1       4.149  32.051  59.516  1.00  0.00     0.150 C 
ENDBRANCH   6  11
ENDBRANCH   3   5
ENDBRANCH   1   3
BRANCH   1  19
HETATM   19  N   UNL     1       4.759  26.472  56.372  1.00  0.00    -0.299 N 
HETATM   20  C   UNL     1       5.908  25.787  56.722  1.00  0.00     0.260 C 
HETATM   21  O   UNL     1       6.384  25.840  57.853  1.00  0.00    -0.267 OA
HETATM   22  H   UNL     1       4.237  26.035  55.623  1.00  0.00     0.171 HD
BRANCH  20  23
HETATM   23  C   UNL     1       6.543  24.917  55.685  1.00  0.00     0.068 C 
HETATM   24  C   UNL     1       6.911  25.331  54.396  1.00  0.00     0.102 C 
HETATM   25  C   UNL     1       7.420  24.374  53.487  1.00  0.00     0.056 C 
HETATM   26 BR   UNL     1       7.613  24.840  51.634  1.00  0.00    -0.047 Br
HETATM   27  C   UNL     1       7.720  23.041  53.903  1.00  0.00    -0.006 A 
HETATM   28  C   UNL     1       7.411  22.674  55.233  1.00  0.00    -0.024 A 
HETATM   29  C   UNL     1       8.314  22.043  53.085  1.00  0.00     0.014 A 
HETATM   30  C   UNL     1       6.802  23.598  56.088  1.00  0.00     0.032 C 
HETATM   31  C   UNL     1       7.701  21.383  55.705  1.00  0.00     0.012 A 
HETATM   32  C   UNL     1       8.299  20.434  54.879  1.00  0.00     0.001 A 
HETATM   33  C   UNL     1       8.602  20.763  53.567  1.00  0.00     0.001 A 
BRANCH  24  34
HETATM   34  O   UNL     1       6.688  26.646  54.053  1.00  0.00    -0.353 OA
HETATM   35  C   UNL     1       7.853  27.474  54.194  1.00  0.00     0.210 C 
ENDBRANCH  24  34
ENDBRANCH  20  23
ENDBRANCH   1  19
TORSDOF 6
ENDMDL
