MODEL 1
REMARK VINA RESULT:     -10.8      0.000      0.000
REMARK  6 active torsions:
REMARK  status: ('A' for Active; 'I' for Inactive)
REMARK    1  A    between atoms: C_4  and  N_5 
REMARK    2  A    between atoms: N_8  and  C_10 
REMARK    3  A    between atoms: C_10  and  C_11 
REMARK    4  A    between atoms: C_14  and  C_15 
REMARK    5  A    between atoms: C_15  and  N_16 
REMARK       I    between atoms: N_16  and  C_17 
REMARK    6  A    between atoms: C_17  and  C_18 
ROOT
HETATM    1  C   UNL     1       5.042  28.678  55.766  1.00  0.00     0.041 C 
HETATM    2  C   UNL     1       4.753  30.155  55.380  1.00  0.00    -0.004 C 
HETATM    3  C   UNL     1       5.747  31.105  56.089  1.00  0.00     0.040 C 
HETATM    4  C   UNL     1       5.638  30.977  57.628  1.00  0.00     0.206 C 
HETATM    5  N   UNL     1       4.584  29.906  57.881  1.00  0.00    -0.065 N 
HETATM    6  H   UNL     1       4.544  29.769  58.918  1.00  0.00     0.280 HD
HETATM    7  C   UNL     1       4.905  28.552  57.304  1.00  0.00     0.242 C 
HETATM    8  C   UNL     1       3.329  30.516  55.878  1.00  0.00     0.032 C 
HETATM    9  C   UNL     1       3.231  30.378  57.400  1.00  0.00     0.236 C 
ENDROOT
BRANCH   1  10
HETATM   10  C   UNL     1       6.402  28.075  55.348  1.00  0.00     0.241 C 
BRANCH  10  11
HETATM   11  N   UNL     1       6.337  27.131  54.167  1.00  0.00    -0.068 N 
HETATM   12  C   UNL     1       7.708  26.558  53.742  1.00  0.00     0.254 C 
HETATM   13  C   UNL     1       7.551  25.563  52.574  1.00  0.00     0.150 C 
HETATM   14  N   UNL     1       6.650  24.466  52.972  1.00  0.00    -0.378 N 
HETATM   15  C   UNL     1       5.303  24.925  53.343  1.00  0.00     0.150 C 
HETATM   16  C   UNL     1       5.367  25.952  54.491  1.00  0.00     0.254 C 
HETATM   17  H   UNL     1       5.931  27.596  53.343  1.00  0.00     0.280 HD
BRANCH  14  18
HETATM   18  C   UNL     1       7.237  23.373  53.623  1.00  0.00     0.030 A 
HETATM   19  C   UNL     1       7.190  23.182  55.015  1.00  0.00     0.029 A 
HETATM   20  C   UNL     1       7.809  22.086  55.631  1.00  0.00     0.002 A 
HETATM   21  C   UNL     1       8.473  21.134  54.867  1.00  0.00     0.000 A 
HETATM   22  C   UNL     1       8.500  21.270  53.487  1.00  0.00     0.002 A 
HETATM   23  C   UNL     1       7.884  22.370  52.879  1.00  0.00     0.029 A 
ENDBRANCH  14  18
ENDBRANCH  10  11
ENDBRANCH   1  10
BRANCH   4  24
HETATM   24  C   UNL     1       7.016  30.678  58.280  1.00  0.00     0.156 C 
BRANCH  24  25
HETATM   25  N   UNL     1       7.183  30.933  59.706  1.00  0.00    -0.355 N 
HETATM   26  C   UNL     1       7.828  32.045  60.211  1.00  0.00     0.251 C 
HETATM   27  O   UNL     1       8.617  32.692  59.527  1.00  0.00    -0.268 OA
HETATM   28  H   UNL     1       6.455  30.539  60.293  1.00  0.00     0.162 HD
BRANCH  26  29
HETATM   29  C   UNL     1       7.466  32.499  61.582  1.00  0.00     0.034 A 
HETATM   30  C   UNL     1       6.134  32.891  61.793  1.00  0.00     0.056 A 
HETATM   31  C   UNL     1       5.753  33.229  63.073  1.00  0.00     0.106 A 
HETATM   32  C   UNL     1       6.638  33.202  64.123  1.00  0.00     0.105 A 
HETATM   33  O   UNL     1       4.503  33.600  63.454  1.00  0.00    -0.323 OA
HETATM   34  O   UNL     1       6.055  33.553  65.298  1.00  0.00    -0.323 OA
HETATM   35  C   UNL     1       7.958  32.849  63.949  1.00  0.00     0.041 A 
HETATM   36  C   UNL     1       4.701  33.817  64.870  1.00  0.00     0.352 A 
HETATM   37  C   UNL     1       8.380  32.498  62.659  1.00  0.00     0.020 A 
ENDBRANCH  26  29
ENDBRANCH  24  25
ENDBRANCH   4  24
TORSDOF 6
ENDMDL
MODEL 2
REMARK VINA RESULT:     -10.3      4.834      9.260
REMARK  6 active torsions:
REMARK  status: ('A' for Active; 'I' for Inactive)
REMARK    1  A    between atoms: C_4  and  N_5 
REMARK    2  A    between atoms: N_8  and  C_10 
REMARK    3  A    between atoms: C_10  and  C_11 
REMARK    4  A    between atoms: C_14  and  C_15 
REMARK    5  A    between atoms: C_15  and  N_16 
REMARK       I    between atoms: N_16  and  C_17 
REMARK    6  A    between atoms: C_17  and  C_18 
ROOT
HETATM    1  C   UNL     1       4.842  28.545  54.952  1.00  0.00     0.041 C 
HETATM    2  C   UNL     1       6.317  28.936  55.241  1.00  0.00    -0.004 C 
HETATM    3  C   UNL     1       7.041  27.801  56.004  1.00  0.00     0.040 C 
HETATM    4  C   UNL     1       6.345  27.507  57.355  1.00  0.00     0.206 C 
HETATM    5  N   UNL     1       5.150  28.451  57.420  1.00  0.00    -0.065 N 
HETATM    6  H   UNL     1       4.638  28.220  58.303  1.00  0.00     0.280 HD
HETATM    7  C   UNL     1       4.146  28.278  56.311  1.00  0.00     0.242 C 
HETATM    8  C   UNL     1       6.316  30.186  56.160  1.00  0.00     0.032 C 
HETATM    9  C   UNL     1       5.618  29.886  57.490  1.00  0.00     0.236 C 
ENDROOT
BRANCH   1  10
HETATM   10  C   UNL     1       4.583  27.334  54.027  1.00  0.00     0.241 C 
BRANCH  10  11
HETATM   11  N   UNL     1       5.196  27.451  52.649  1.00  0.00    -0.068 N 
HETATM   12  C   UNL     1       4.985  26.207  51.758  1.00  0.00     0.254 C 
HETATM   13  C   UNL     1       5.585  26.426  50.354  1.00  0.00     0.150 C 
HETATM   14  N   UNL     1       4.962  27.605  49.725  1.00  0.00    -0.378 N 
HETATM   15  C   UNL     1       5.163  28.846  50.488  1.00  0.00     0.150 C 
HETATM   16  C   UNL     1       4.616  28.705  51.923  1.00  0.00     0.254 C 
HETATM   17  H   UNL     1       6.210  27.617  52.707  1.00  0.00     0.280 HD
BRANCH  14  18
HETATM   18  C   UNL     1       3.774  27.387  49.016  1.00  0.00     0.030 A 
HETATM   19  C   UNL     1       2.609  28.152  49.199  1.00  0.00     0.029 A 
HETATM   20  C   UNL     1       1.433  27.888  48.485  1.00  0.00     0.002 A 
HETATM   21  C   UNL     1       1.396  26.865  47.546  1.00  0.00     0.000 A 
HETATM   22  C   UNL     1       2.542  26.120  47.309  1.00  0.00     0.002 A 
HETATM   23  C   UNL     1       3.712  26.386  48.029  1.00  0.00     0.029 A 
ENDBRANCH  14  18
ENDBRANCH  10  11
ENDBRANCH   1  10
BRANCH   4  24
HETATM   24  C   UNL     1       5.975  26.005  57.499  1.00  0.00     0.156 C 
BRANCH  24  25
HETATM   25  N   UNL     1       6.594  25.045  56.592  1.00  0.00    -0.355 N 
HETATM   26  C   UNL     1       7.745  24.344  56.893  1.00  0.00     0.251 C 
HETATM   27  O   UNL     1       8.525  24.737  57.757  1.00  0.00    -0.268 OA
HETATM   28  H   UNL     1       5.946  24.583  55.962  1.00  0.00     0.162 HD
BRANCH  26  29
HETATM   29  C   UNL     1       7.969  23.041  56.208  1.00  0.00     0.034 A 
HETATM   30  C   UNL     1       7.795  23.017  54.814  1.00  0.00     0.056 A 
HETATM   31  C   UNL     1       8.083  21.846  54.146  1.00  0.00     0.106 A 
HETATM   32  C   UNL     1       8.516  20.723  54.807  1.00  0.00     0.105 A 
HETATM   33  O   UNL     1       7.999  21.661  52.803  1.00  0.00    -0.323 OA
HETATM   34  O   UNL     1       8.760  19.689  53.961  1.00  0.00    -0.323 OA
HETATM   35  C   UNL     1       8.672  20.703  56.175  1.00  0.00     0.041 A 
HETATM   36  C   UNL     1       8.419  20.283  52.690  1.00  0.00     0.352 A 
HETATM   37  C   UNL     1       8.388  21.876  56.888  1.00  0.00     0.020 A 
ENDBRANCH  26  29
ENDBRANCH  24  25
ENDBRANCH   4  24
TORSDOF 6
ENDMDL
MODEL 3
REMARK VINA RESULT:     -10.1      1.163      1.779
REMARK  6 active torsions:
REMARK  status: ('A' for Active; 'I' for Inactive)
REMARK    1  A    between atoms: C_4  and  N_5 
REMARK    2  A    between atoms: N_8  and  C_10 
REMARK    3  A    between atoms: C_10  and  C_11 
REMARK    4  A    between atoms: C_14  and  C_15 
REMARK    5  A    between atoms: C_15  and  N_16 
REMARK       I    between atoms: N_16  and  C_17 
REMARK    6  A    between atoms: C_17  and  C_18 
ROOT
HETATM    1  C   UNL     1       4.806  29.054  55.914  1.00  0.00     0.041 C 
HETATM    2  C   UNL     1       4.664  30.542  55.490  1.00  0.00    -0.004 C 
HETATM    3  C   UNL     1       5.724  31.413  56.205  1.00  0.00     0.040 C 
HETATM    4  C   UNL     1       5.567  31.332  57.743  1.00  0.00     0.206 C 
HETATM    5  N   UNL     1       4.413  30.368  57.990  1.00  0.00    -0.065 N 
HETATM    6  H   UNL     1       4.336  30.259  59.029  1.00  0.00     0.280 HD
HETATM    7  C   UNL     1       4.621  28.977  57.450  1.00  0.00     0.242 C 
HETATM    8  C   UNL     1       3.268  31.044  55.943  1.00  0.00     0.032 C 
HETATM    9  C   UNL     1       3.121  30.950  57.466  1.00  0.00     0.236 C 
ENDROOT
BRANCH   1  10
HETATM   10  C   UNL     1       6.114  28.319  55.544  1.00  0.00     0.241 C 
BRANCH  10  11
HETATM   11  N   UNL     1       6.374  27.057  56.335  1.00  0.00    -0.068 N 
HETATM   12  C   UNL     1       5.477  25.865  55.934  1.00  0.00     0.254 C 
HETATM   13  C   UNL     1       5.843  24.603  56.742  1.00  0.00     0.150 C 
HETATM   14  N   UNL     1       7.260  24.261  56.520  1.00  0.00    -0.378 N 
HETATM   15  C   UNL     1       8.186  25.329  56.926  1.00  0.00     0.150 C 
HETATM   16  C   UNL     1       7.872  26.644  56.185  1.00  0.00     0.254 C 
HETATM   17  H   UNL     1       6.238  27.217  57.343  1.00  0.00     0.280 HD
BRANCH  14  18
HETATM   18  C   UNL     1       7.546  23.451  55.414  1.00  0.00     0.030 A 
HETATM   19  C   UNL     1       7.386  23.868  54.082  1.00  0.00     0.029 A 
HETATM   20  C   UNL     1       7.663  23.018  53.003  1.00  0.00     0.002 A 
HETATM   21  C   UNL     1       8.135  21.731  53.227  1.00  0.00     0.000 A 
HETATM   22  C   UNL     1       8.347  21.303  54.529  1.00  0.00     0.002 A 
HETATM   23  C   UNL     1       8.063  22.156  55.602  1.00  0.00     0.029 A 
ENDBRANCH  14  18
ENDBRANCH  10  11
ENDBRANCH   1  10
BRANCH   4  24
HETATM   24  C   UNL     1       6.895  30.922  58.437  1.00  0.00     0.156 C 
BRANCH  24  25
HETATM   25  N   UNL     1       7.017  31.110  59.877  1.00  0.00    -0.355 N 
HETATM   26  C   UNL     1       7.727  32.144  60.454  1.00  0.00     0.251 C 
HETATM   27  O   UNL     1       8.599  32.747  59.831  1.00  0.00    -0.268 OA
HETATM   28  H   UNL     1       6.232  30.758  60.416  1.00  0.00     0.162 HD
BRANCH  26  29
HETATM   29  C   UNL     1       7.341  32.577  61.825  1.00  0.00     0.034 A 
HETATM   30  C   UNL     1       5.983  32.859  62.046  1.00  0.00     0.056 A 
HETATM   31  C   UNL     1       5.587  33.174  63.328  1.00  0.00     0.106 A 
HETATM   32  C   UNL     1       6.480  33.228  64.369  1.00  0.00     0.105 A 
HETATM   33  O   UNL     1       4.314  33.443  63.718  1.00  0.00    -0.323 OA
HETATM   34  O   UNL     1       5.880  33.538  65.547  1.00  0.00    -0.323 OA
HETATM   35  C   UNL     1       7.823  32.984  64.185  1.00  0.00     0.041 A 
HETATM   36  C   UNL     1       4.506  33.687  65.130  1.00  0.00     0.352 A 
HETATM   37  C   UNL     1       8.262  32.660  62.894  1.00  0.00     0.020 A 
ENDBRANCH  26  29
ENDBRANCH  24  25
ENDBRANCH   4  24
TORSDOF 6
ENDMDL
MODEL 4
REMARK VINA RESULT:     -10.0      4.497      7.368
REMARK  6 active torsions:
REMARK  status: ('A' for Active; 'I' for Inactive)
REMARK    1  A    between atoms: C_4  and  N_5 
REMARK    2  A    between atoms: N_8  and  C_10 
REMARK    3  A    between atoms: C_10  and  C_11 
REMARK    4  A    between atoms: C_14  and  C_15 
REMARK    5  A    between atoms: C_15  and  N_16 
REMARK       I    between atoms: N_16  and  C_17 
REMARK    6  A    between atoms: C_17  and  C_18 
ROOT
HETATM    1  C   UNL     1       6.431  25.543  51.946  1.00  0.00     0.041 C 
HETATM    2  C   UNL     1       5.768  24.473  52.857  1.00  0.00    -0.004 C 
HETATM    3  C   UNL     1       5.331  25.099  54.202  1.00  0.00     0.040 C 
HETATM    4  C   UNL     1       6.543  25.694  54.959  1.00  0.00     0.206 C 
HETATM    5  N   UNL     1       7.748  25.465  54.056  1.00  0.00    -0.065 N 
HETATM    6  H   UNL     1       8.565  25.916  54.531  1.00  0.00     0.280 HD
HETATM    7  C   UNL     1       7.657  26.115  52.700  1.00  0.00     0.242 C 
HETATM    8  C   UNL     1       6.827  23.384  53.174  1.00  0.00     0.032 C 
HETATM    9  C   UNL     1       8.025  23.986  53.915  1.00  0.00     0.236 C 
ENDROOT
BRANCH   1  10
HETATM   10  C   UNL     1       5.558  26.726  51.470  1.00  0.00     0.241 C 
BRANCH  10  11
HETATM   11  N   UNL     1       5.622  26.999  49.984  1.00  0.00    -0.068 N 
HETATM   12  C   UNL     1       4.669  26.124  49.140  1.00  0.00     0.254 C 
HETATM   13  C   UNL     1       4.750  26.502  47.646  1.00  0.00     0.150 C 
HETATM   14  N   UNL     1       4.409  27.925  47.473  1.00  0.00    -0.378 N 
HETATM   15  C   UNL     1       5.305  28.832  48.207  1.00  0.00     0.150 C 
HETATM   16  C   UNL     1       5.309  28.504  49.713  1.00  0.00     0.254 C 
HETATM   17  H   UNL     1       6.574  26.851  49.621  1.00  0.00     0.280 HD
BRANCH  14  18
HETATM   18  C   UNL     1       3.051  28.234  47.320  1.00  0.00     0.030 A 
HETATM   19  C   UNL     1       2.032  27.266  47.302  1.00  0.00     0.029 A 
HETATM   20  C   UNL     1       0.686  27.614  47.125  1.00  0.00     0.002 A 
HETATM   21  C   UNL     1       0.318  28.946  46.987  1.00  0.00     0.000 A 
HETATM   22  C   UNL     1       1.294  29.930  47.046  1.00  0.00     0.002 A 
HETATM   23  C   UNL     1       2.637  29.574  47.218  1.00  0.00     0.029 A 
ENDBRANCH  14  18
ENDBRANCH  10  11
ENDBRANCH   1  10
BRANCH   4  24
HETATM   24  C   UNL     1       6.310  27.183  55.340  1.00  0.00     0.156 C 
BRANCH  24  25
HETATM   25  N   UNL     1       7.256  27.828  56.241  1.00  0.00    -0.355 N 
HETATM   26  C   UNL     1       8.275  28.656  55.812  1.00  0.00     0.251 C 
HETATM   27  O   UNL     1       8.689  28.613  54.655  1.00  0.00    -0.268 OA
HETATM   28  H   UNL     1       6.892  28.020  57.169  1.00  0.00     0.162 HD
BRANCH  26  29
HETATM   29  C   UNL     1       8.797  29.674  56.766  1.00  0.00     0.034 A 
HETATM   30  C   UNL     1       7.899  30.164  57.727  1.00  0.00     0.056 A 
HETATM   31  C   UNL     1       8.381  31.040  58.677  1.00  0.00     0.106 A 
HETATM   32  C   UNL     1       9.694  31.441  58.691  1.00  0.00     0.105 A 
HETATM   33  O   UNL     1       7.659  31.583  59.691  1.00  0.00    -0.323 OA
HETATM   34  O   UNL     1       9.963  32.288  59.717  1.00  0.00    -0.323 OA
HETATM   35  C   UNL     1      10.596  31.001  57.747  1.00  0.00     0.041 A 
HETATM   36  C   UNL     1       8.666  32.387  60.344  1.00  0.00     0.352 A 
HETATM   37  C   UNL     1      10.141  30.110  56.767  1.00  0.00     0.020 A 
ENDBRANCH  26  29
ENDBRANCH  24  25
ENDBRANCH   4  24
TORSDOF 6
ENDMDL
MODEL 5
REMARK VINA RESULT:      -9.9      4.633      9.610
REMARK  6 active torsions:
REMARK  status: ('A' for Active; 'I' for Inactive)
REMARK    1  A    between atoms: C_4  and  N_5 
REMARK    2  A    between atoms: N_8  and  C_10 
REMARK    3  A    between atoms: C_10  and  C_11 
REMARK    4  A    between atoms: C_14  and  C_15 
REMARK    5  A    between atoms: C_15  and  N_16 
REMARK       I    between atoms: N_16  and  C_17 
REMARK    6  A    between atoms: C_17  and  C_18 
ROOT
HETATM    1  C   UNL     1       5.479  28.877  53.171  1.00  0.00     0.041 C 
HETATM    2  C   UNL     1       4.176  28.064  53.399  1.00  0.00    -0.004 C 
HETATM    3  C   UNL     1       4.319  26.636  52.821  1.00  0.00     0.040 C 
HETATM    4  C   UNL     1       4.604  26.677  51.300  1.00  0.00     0.206 C 
HETATM    5  N   UNL     1       4.673  28.154  50.931  1.00  0.00    -0.065 N 
HETATM    6  H   UNL     1       4.924  28.194  49.915  1.00  0.00     0.280 HD
HETATM    7  C   UNL     1       5.744  28.936  51.646  1.00  0.00     0.242 C 
HETATM    8  C   UNL     1       3.026  28.764  52.627  1.00  0.00     0.032 C 
HETATM    9  C   UNL     1       3.324  28.807  51.125  1.00  0.00     0.236 C 
ENDROOT
BRANCH   1  10
HETATM   10  C   UNL     1       6.768  28.387  53.870  1.00  0.00     0.241 C 
BRANCH  10  11
HETATM   11  N   UNL     1       6.644  28.205  55.366  1.00  0.00    -0.068 N 
HETATM   12  C   UNL     1       7.976  27.865  56.072  1.00  0.00     0.254 C 
HETATM   13  C   UNL     1       7.778  27.754  57.598  1.00  0.00     0.150 C 
HETATM   14  N   UNL     1       7.240  29.021  58.125  1.00  0.00    -0.378 N 
HETATM   15  C   UNL     1       5.943  29.391  57.538  1.00  0.00     0.150 C 
HETATM   16  C   UNL     1       6.042  29.496  56.003  1.00  0.00     0.254 C 
HETATM   17  H   UNL     1       5.977  27.455  55.594  1.00  0.00     0.280 HD
BRANCH  14  18
HETATM   18  C   UNL     1       8.174  30.006  58.471  1.00  0.00     0.030 A 
HETATM   19  C   UNL     1       9.406  30.173  57.816  1.00  0.00     0.029 A 
HETATM   20  C   UNL     1      10.323  31.158  58.207  1.00  0.00     0.002 A 
HETATM   21  C   UNL     1      10.021  32.023  59.252  1.00  0.00     0.000 A 
HETATM   22  C   UNL     1       8.795  31.913  59.890  1.00  0.00     0.002 A 
HETATM   23  C   UNL     1       7.886  30.924  59.497  1.00  0.00     0.029 A 
ENDBRANCH  14  18
ENDBRANCH  10  11
ENDBRANCH   1  10
BRANCH   4  24
HETATM   24  C   UNL     1       5.880  25.871  50.931  1.00  0.00     0.156 C 
BRANCH  24  25
HETATM   25  N   UNL     1       6.301  24.789  51.813  1.00  0.00    -0.355 N 
HETATM   26  C   UNL     1       7.528  24.753  52.445  1.00  0.00     0.251 C 
HETATM   27  O   UNL     1       8.479  25.413  52.032  1.00  0.00    -0.268 OA
HETATM   28  H   UNL     1       5.541  24.318  52.294  1.00  0.00     0.162 HD
BRANCH  26  29
HETATM   29  C   UNL     1       7.643  23.966  53.703  1.00  0.00     0.034 A 
HETATM   30  C   UNL     1       8.217  22.688  53.605  1.00  0.00     0.056 A 
HETATM   31  C   UNL     1       8.416  21.976  54.768  1.00  0.00     0.106 A 
HETATM   32  C   UNL     1       8.059  22.479  55.995  1.00  0.00     0.105 A 
HETATM   33  O   UNL     1       8.984  20.745  54.854  1.00  0.00    -0.323 OA
HETATM   34  O   UNL     1       8.359  21.627  57.009  1.00  0.00    -0.323 OA
HETATM   35  C   UNL     1       7.469  23.717  56.127  1.00  0.00     0.041 A 
HETATM   36  C   UNL     1       8.935  20.520  56.281  1.00  0.00     0.352 A 
HETATM   37  C   UNL     1       7.252  24.469  54.964  1.00  0.00     0.020 A 
ENDBRANCH  26  29
ENDBRANCH  24  25
ENDBRANCH   4  24
TORSDOF 6
ENDMDL
MODEL 6
REMARK VINA RESULT:      -9.8      1.540      1.968
REMARK  6 active torsions:
REMARK  status: ('A' for Active; 'I' for Inactive)
REMARK    1  A    between atoms: C_4  and  N_5 
REMARK    2  A    between atoms: N_8  and  C_10 
REMARK    3  A    between atoms: C_10  and  C_11 
REMARK    4  A    between atoms: C_14  and  C_15 
REMARK    5  A    between atoms: C_15  and  N_16 
REMARK       I    between atoms: N_16  and  C_17 
REMARK    6  A    between atoms: C_17  and  C_18 
ROOT
HETATM    1  C   UNL     1       4.735  28.010  56.179  1.00  0.00     0.041 C 
HETATM    2  C   UNL     1       5.565  28.768  55.106  1.00  0.00    -0.004 C 
HETATM    3  C   UNL     1       7.015  28.989  55.597  1.00  0.00     0.040 C 
HETATM    4  C   UNL     1       7.040  29.820  56.903  1.00  0.00     0.206 C 
HETATM    5  N   UNL     1       5.581  30.092  57.248  1.00  0.00    -0.065 N 
HETATM    6  H   UNL     1       5.584  30.603  58.162  1.00  0.00     0.280 HD
HETATM    7  C   UNL     1       4.743  28.861  57.474  1.00  0.00     0.242 C 
HETATM    8  C   UNL     1       4.927  30.167  54.898  1.00  0.00     0.032 C 
HETATM    9  C   UNL     1       4.949  30.976  56.198  1.00  0.00     0.236 C 
ENDROOT
BRANCH   1  10
HETATM   10  C   UNL     1       5.165  26.570  56.540  1.00  0.00     0.241 C 
BRANCH  10  11
HETATM   11  N   UNL     1       6.536  26.176  56.037  1.00  0.00    -0.068 N 
HETATM   12  C   UNL     1       7.369  25.363  57.052  1.00  0.00     0.254 C 
HETATM   13  C   UNL     1       8.726  24.949  56.446  1.00  0.00     0.150 C 
HETATM   14  N   UNL     1       8.505  24.152  55.226  1.00  0.00    -0.378 N 
HETATM   15  C   UNL     1       7.760  24.877  54.185  1.00  0.00     0.150 C 
HETATM   16  C   UNL     1       6.394  25.355  54.717  1.00  0.00     0.254 C 
HETATM   17  H   UNL     1       7.089  27.005  55.782  1.00  0.00     0.280 HD
BRANCH  14  18
HETATM   18  C   UNL     1       8.334  22.773  55.397  1.00  0.00     0.030 A 
HETATM   19  C   UNL     1       8.453  22.123  56.638  1.00  0.00     0.029 A 
HETATM   20  C   UNL     1       8.296  20.736  56.763  1.00  0.00     0.002 A 
HETATM   21  C   UNL     1       7.988  19.961  55.652  1.00  0.00     0.000 A 
HETATM   22  C   UNL     1       7.819  20.577  54.421  1.00  0.00     0.002 A 
HETATM   23  C   UNL     1       7.983  21.962  54.302  1.00  0.00     0.029 A 
ENDBRANCH  14  18
ENDBRANCH  10  11
ENDBRANCH   1  10
BRANCH   4  24
HETATM   24  C   UNL     1       7.835  29.101  58.028  1.00  0.00     0.156 C 
BRANCH  24  25
HETATM   25  N   UNL     1       7.921  29.737  59.337  1.00  0.00    -0.355 N 
HETATM   26  C   UNL     1       8.563  30.939  59.561  1.00  0.00     0.251 C 
HETATM   27  O   UNL     1       9.411  31.365  58.781  1.00  0.00    -0.268 OA
HETATM   28  H   UNL     1       7.147  29.526  59.959  1.00  0.00     0.162 HD
BRANCH  26  29
HETATM   29  C   UNL     1       8.129  31.756  60.728  1.00  0.00     0.034 A 
HETATM   30  C   UNL     1       7.009  32.583  60.546  1.00  0.00     0.056 A 
HETATM   31  C   UNL     1       6.534  33.280  61.636  1.00  0.00     0.106 A 
HETATM   32  C   UNL     1       7.132  33.191  62.868  1.00  0.00     0.105 A 
HETATM   33  O   UNL     1       5.449  34.097  61.640  1.00  0.00    -0.323 OA
HETATM   34  O   UNL     1       6.497  33.941  63.805  1.00  0.00    -0.323 OA
HETATM   35  C   UNL     1       8.248  32.410  63.078  1.00  0.00     0.041 A 
HETATM   36  C   UNL     1       5.435  34.526  63.020  1.00  0.00     0.352 A 
HETATM   37  C   UNL     1       8.758  31.687  61.992  1.00  0.00     0.020 A 
ENDBRANCH  26  29
ENDBRANCH  24  25
ENDBRANCH   4  24
TORSDOF 6
ENDMDL
MODEL 7
REMARK VINA RESULT:      -9.4      3.476     10.534
REMARK  6 active torsions:
REMARK  status: ('A' for Active; 'I' for Inactive)
REMARK    1  A    between atoms: C_4  and  N_5 
REMARK    2  A    between atoms: N_8  and  C_10 
REMARK    3  A    between atoms: C_10  and  C_11 
REMARK    4  A    between atoms: C_14  and  C_15 
REMARK    5  A    between atoms: C_15  and  N_16 
REMARK       I    between atoms: N_16  and  C_17 
REMARK    6  A    between atoms: C_17  and  C_18 
ROOT
HETATM    1  C   UNL     1       3.805  31.951  57.414  1.00  0.00     0.041 C 
HETATM    2  C   UNL     1       3.104  30.809  56.627  1.00  0.00    -0.004 C 
HETATM    3  C   UNL     1       4.069  29.617  56.424  1.00  0.00     0.040 C 
HETATM    4  C   UNL     1       5.328  30.048  55.633  1.00  0.00     0.206 C 
HETATM    5  N   UNL     1       5.160  31.539  55.368  1.00  0.00    -0.065 N 
HETATM    6  H   UNL     1       6.034  31.854  54.884  1.00  0.00     0.280 HD
HETATM    7  C   UNL     1       5.049  32.394  56.603  1.00  0.00     0.242 C 
HETATM    8  C   UNL     1       2.731  31.349  55.220  1.00  0.00     0.032 C 
HETATM    9  C   UNL     1       3.984  31.780  54.451  1.00  0.00     0.236 C 
ENDROOT
BRANCH   1  10
HETATM   10  C   UNL     1       4.249  31.660  58.865  1.00  0.00     0.241 C 
BRANCH  10  11
HETATM   11  N   UNL     1       3.823  32.701  59.876  1.00  0.00    -0.068 N 
HETATM   12  C   UNL     1       3.540  32.133  61.285  1.00  0.00     0.254 C 
HETATM   13  C   UNL     1       3.170  33.262  62.270  1.00  0.00     0.150 C 
HETATM   14  N   UNL     1       4.266  34.245  62.336  1.00  0.00    -0.378 N 
HETATM   15  C   UNL     1       4.564  34.872  61.039  1.00  0.00     0.150 C 
HETATM   16  C   UNL     1       4.918  33.809  59.980  1.00  0.00     0.254 C 
HETATM   17  H   UNL     1       2.972  33.191  59.567  1.00  0.00     0.280 HD
BRANCH  14  18
HETATM   18  C   UNL     1       5.290  33.986  63.256  1.00  0.00     0.030 A 
HETATM   19  C   UNL     1       6.538  33.447  62.898  1.00  0.00     0.029 A 
HETATM   20  C   UNL     1       7.530  33.182  63.852  1.00  0.00     0.002 A 
HETATM   21  C   UNL     1       7.310  33.474  65.192  1.00  0.00     0.000 A 
HETATM   22  C   UNL     1       6.106  34.048  65.573  1.00  0.00     0.002 A 
HETATM   23  C   UNL     1       5.118  34.305  64.615  1.00  0.00     0.029 A 
ENDBRANCH  14  18
ENDBRANCH  10  11
ENDBRANCH   1  10
BRANCH   4  24
HETATM   24  C   UNL     1       6.636  29.681  56.387  1.00  0.00     0.156 C 
BRANCH  24  25
HETATM   25  N   UNL     1       7.298  28.423  56.064  1.00  0.00    -0.355 N 
HETATM   26  C   UNL     1       7.724  27.518  57.016  1.00  0.00     0.251 C 
HETATM   27  O   UNL     1       7.917  27.860  58.181  1.00  0.00    -0.268 OA
HETATM   28  H   UNL     1       7.041  28.030  55.164  1.00  0.00     0.162 HD
BRANCH  26  29
HETATM   29  C   UNL     1       7.851  26.090  56.615  1.00  0.00     0.034 A 
HETATM   30  C   UNL     1       7.387  25.744  55.336  1.00  0.00     0.056 A 
HETATM   31  C   UNL     1       7.574  24.448  54.907  1.00  0.00     0.106 A 
HETATM   32  C   UNL     1       8.184  23.505  55.698  1.00  0.00     0.105 A 
HETATM   33  O   UNL     1       7.215  23.957  53.693  1.00  0.00    -0.323 OA
HETATM   34  O   UNL     1       8.285  22.300  55.079  1.00  0.00    -0.323 OA
HETATM   35  C   UNL     1       8.627  23.801  56.968  1.00  0.00     0.041 A 
HETATM   36  C   UNL     1       7.657  22.586  53.810  1.00  0.00     0.352 A 
HETATM   37  C   UNL     1       8.453  25.111  57.437  1.00  0.00     0.020 A 
ENDBRANCH  26  29
ENDBRANCH  24  25
ENDBRANCH   4  24
TORSDOF 6
ENDMDL
MODEL 8
REMARK VINA RESULT:      -9.4      2.968      5.253
REMARK  6 active torsions:
REMARK  status: ('A' for Active; 'I' for Inactive)
REMARK    1  A    between atoms: C_4  and  N_5 
REMARK    2  A    between atoms: N_8  and  C_10 
REMARK    3  A    between atoms: C_10  and  C_11 
REMARK    4  A    between atoms: C_14  and  C_15 
REMARK    5  A    between atoms: C_15  and  N_16 
REMARK       I    between atoms: N_16  and  C_17 
REMARK    6  A    between atoms: C_17  and  C_18 
ROOT
HETATM    1  C   UNL     1       4.570  27.446  50.475  1.00  0.00     0.041 C 
HETATM    2  C   UNL     1       5.744  28.462  50.522  1.00  0.00    -0.004 C 
HETATM    3  C   UNL     1       5.758  29.214  51.874  1.00  0.00     0.040 C 
HETATM    4  C   UNL     1       4.438  29.992  52.093  1.00  0.00     0.206 C 
HETATM    5  N   UNL     1       3.574  29.692  50.873  1.00  0.00    -0.065 N 
HETATM    6  H   UNL     1       2.655  30.166  51.038  1.00  0.00     0.280 HD
HETATM    7  C   UNL     1       3.250  28.236  50.668  1.00  0.00     0.242 C 
HETATM    8  C   UNL     1       5.518  29.517  49.407  1.00  0.00     0.032 C 
HETATM    9  C   UNL     1       4.205  30.273  49.629  1.00  0.00     0.236 C 
ENDROOT
BRANCH   1  10
HETATM   10  C   UNL     1       4.587  26.275  51.482  1.00  0.00     0.241 C 
BRANCH  10  11
HETATM   11  N   UNL     1       5.809  26.226  52.372  1.00  0.00    -0.068 N 
HETATM   12  C   UNL     1       5.553  25.601  53.762  1.00  0.00     0.254 C 
HETATM   13  C   UNL     1       6.856  25.534  54.585  1.00  0.00     0.150 C 
HETATM   14  N   UNL     1       7.865  24.742  53.858  1.00  0.00    -0.378 N 
HETATM   15  C   UNL     1       8.204  25.302  52.540  1.00  0.00     0.150 C 
HETATM   16  C   UNL     1       6.948  25.433  51.656  1.00  0.00     0.254 C 
HETATM   17  H   UNL     1       6.193  27.168  52.527  1.00  0.00     0.280 HD
BRANCH  14  18
HETATM   18  C   UNL     1       7.844  23.356  54.061  1.00  0.00     0.030 A 
HETATM   19  C   UNL     1       7.969  22.417  53.023  1.00  0.00     0.029 A 
HETATM   20  C   UNL     1       7.922  21.037  53.266  1.00  0.00     0.002 A 
HETATM   21  C   UNL     1       7.774  20.557  54.561  1.00  0.00     0.000 A 
HETATM   22  C   UNL     1       7.693  21.457  55.613  1.00  0.00     0.002 A 
HETATM   23  C   UNL     1       7.736  22.834  55.363  1.00  0.00     0.029 A 
ENDBRANCH  14  18
ENDBRANCH  10  11
ENDBRANCH   1  10
BRANCH   4  24
HETATM   24  C   UNL     1       3.770  29.625  53.447  1.00  0.00     0.156 C 
BRANCH  24  25
HETATM   25  N   UNL     1       4.456  29.984  54.683  1.00  0.00    -0.355 N 
HETATM   26  C   UNL     1       4.677  29.098  55.719  1.00  0.00     0.251 C 
HETATM   27  O   UNL     1       4.002  28.077  55.841  1.00  0.00    -0.268 OA
HETATM   28  H   UNL     1       5.140  30.728  54.584  1.00  0.00     0.162 HD
BRANCH  26  29
HETATM   29  C   UNL     1       5.821  29.363  56.633  1.00  0.00     0.034 A 
HETATM   30  C   UNL     1       5.929  30.661  57.158  1.00  0.00     0.056 A 
HETATM   31  C   UNL     1       6.927  30.907  58.077  1.00  0.00     0.106 A 
HETATM   32  C   UNL     1       7.807  29.929  58.469  1.00  0.00     0.105 A 
HETATM   33  O   UNL     1       7.152  32.092  58.702  1.00  0.00    -0.323 OA
HETATM   34  O   UNL     1       8.697  30.376  59.393  1.00  0.00    -0.323 OA
HETATM   35  C   UNL     1       7.747  28.652  57.955  1.00  0.00     0.041 A 
HETATM   36  C   UNL     1       8.287  31.754  59.530  1.00  0.00     0.352 A 
HETATM   37  C   UNL     1       6.745  28.366  57.019  1.00  0.00     0.020 A 
ENDBRANCH  26  29
ENDBRANCH  24  25
ENDBRANCH   4  24
TORSDOF 6
ENDMDL
MODEL 9
REMARK VINA RESULT:      -9.3      3.600      6.590
REMARK  6 active torsions:
REMARK  status: ('A' for Active; 'I' for Inactive)
REMARK    1  A    between atoms: C_4  and  N_5 
REMARK    2  A    between atoms: N_8  and  C_10 
REMARK    3  A    between atoms: C_10  and  C_11 
REMARK    4  A    between atoms: C_14  and  C_15 
REMARK    5  A    between atoms: C_15  and  N_16 
REMARK       I    between atoms: N_16  and  C_17 
REMARK    6  A    between atoms: C_17  and  C_18 
ROOT
HETATM    1  C   UNL     1       6.150  26.534  53.180  1.00  0.00     0.041 C 
HETATM    2  C   UNL     1       5.423  25.277  53.732  1.00  0.00    -0.004 C 
HETATM    3  C   UNL     1       5.667  25.131  55.252  1.00  0.00     0.040 C 
HETATM    4  C   UNL     1       7.177  24.991  55.563  1.00  0.00     0.206 C 
HETATM    5  N   UNL     1       7.887  25.084  54.217  1.00  0.00    -0.065 N 
HETATM    6  H   UNL     1       8.913  25.050  54.421  1.00  0.00     0.280 HD
HETATM    7  C   UNL     1       7.664  26.374  53.472  1.00  0.00     0.242 C 
HETATM    8  C   UNL     1       6.028  24.025  53.042  1.00  0.00     0.032 C 
HETATM    9  C   UNL     1       7.524  23.902  53.349  1.00  0.00     0.236 C 
ENDROOT
BRANCH   1  10
HETATM   10  C   UNL     1       5.698  27.916  53.702  1.00  0.00     0.241 C 
BRANCH  10  11
HETATM   11  N   UNL     1       5.055  28.804  52.660  1.00  0.00    -0.068 N 
HETATM   12  C   UNL     1       5.685  28.686  51.255  1.00  0.00     0.254 C 
HETATM   13  C   UNL     1       4.938  29.575  50.239  1.00  0.00     0.150 C 
HETATM   14  N   UNL     1       3.517  29.186  50.186  1.00  0.00    -0.378 N 
HETATM   15  C   UNL     1       2.829  29.321  51.479  1.00  0.00     0.150 C 
HETATM   16  C   UNL     1       3.530  28.483  52.567  1.00  0.00     0.254 C 
HETATM   17  H   UNL     1       5.106  29.795  52.935  1.00  0.00     0.280 HD
BRANCH  14  18
HETATM   18  C   UNL     1       3.179  28.155  49.301  1.00  0.00     0.030 A 
HETATM   19  C   UNL     1       1.884  27.964  48.788  1.00  0.00     0.029 A 
HETATM   20  C   UNL     1       1.581  26.906  47.921  1.00  0.00     0.002 A 
HETATM   21  C   UNL     1       2.574  26.021  47.520  1.00  0.00     0.000 A 
HETATM   22  C   UNL     1       3.872  26.207  47.972  1.00  0.00     0.002 A 
HETATM   23  C   UNL     1       4.166  27.263  48.843  1.00  0.00     0.029 A 
ENDBRANCH  14  18
ENDBRANCH  10  11
ENDBRANCH   1  10
BRANCH   4  24
HETATM   24  C   UNL     1       7.651  26.042  56.604  1.00  0.00     0.156 C 
BRANCH  24  25
HETATM   25  N   UNL     1       6.696  27.038  57.074  1.00  0.00    -0.355 N 
HETATM   26  C   UNL     1       7.066  28.257  57.608  1.00  0.00     0.251 C 
HETATM   27  O   UNL     1       8.191  28.439  58.067  1.00  0.00    -0.268 OA
HETATM   28  H   UNL     1       5.797  27.016  56.602  1.00  0.00     0.162 HD
BRANCH  26  29
HETATM   29  C   UNL     1       6.092  29.380  57.524  1.00  0.00     0.034 A 
HETATM   30  C   UNL     1       6.527  30.635  57.978  1.00  0.00     0.056 A 
HETATM   31  C   UNL     1       5.675  31.709  57.829  1.00  0.00     0.106 A 
HETATM   32  C   UNL     1       4.431  31.573  57.266  1.00  0.00     0.105 A 
HETATM   33  O   UNL     1       5.949  32.991  58.185  1.00  0.00    -0.323 OA
HETATM   34  O   UNL     1       3.764  32.754  57.196  1.00  0.00    -0.323 OA
HETATM   35  C   UNL     1       3.961  30.353  56.833  1.00  0.00     0.041 A 
HETATM   36  C   UNL     1       4.726  33.652  57.793  1.00  0.00     0.352 A 
HETATM   37  C   UNL     1       4.800  29.239  56.970  1.00  0.00     0.020 A 
ENDBRANCH  26  29
ENDBRANCH  24  25
ENDBRANCH   4  24
TORSDOF 6
ENDMDL
MODEL 10
REMARK VINA RESULT:      -9.2      3.716      6.608
REMARK  6 active torsions:
REMARK  status: ('A' for Active; 'I' for Inactive)
REMARK    1  A    between atoms: C_4  and  N_5 
REMARK    2  A    between atoms: N_8  and  C_10 
REMARK    3  A    between atoms: C_10  and  C_11 
REMARK    4  A    between atoms: C_14  and  C_15 
REMARK    5  A    between atoms: C_15  and  N_16 
REMARK       I    between atoms: N_16  and  C_17 
REMARK    6  A    between atoms: C_17  and  C_18 
ROOT
HETATM    1  C   UNL     1       6.308  26.861  52.913  1.00  0.00     0.041 C 
HETATM    2  C   UNL     1       5.651  25.453  52.946  1.00  0.00    -0.004 C 
HETATM    3  C   UNL     1       5.447  24.984  54.406  1.00  0.00     0.040 C 
HETATM    4  C   UNL     1       6.796  24.906  55.160  1.00  0.00     0.206 C 
HETATM    5  N   UNL     1       7.854  25.366  54.165  1.00  0.00    -0.065 N 
HETATM    6  H   UNL     1       8.764  25.374  54.682  1.00  0.00     0.280 HD
HETATM    7  C   UNL     1       7.669  26.768  53.647  1.00  0.00     0.242 C 
HETATM    8  C   UNL     1       6.621  24.450  52.267  1.00  0.00     0.032 C 
HETATM    9  C   UNL     1       7.956  24.388  53.017  1.00  0.00     0.236 C 
ENDROOT
BRANCH   1  10
HETATM   10  C   UNL     1       5.512  28.043  53.511  1.00  0.00     0.241 C 
BRANCH  10  11
HETATM   11  N   UNL     1       4.819  28.917  52.490  1.00  0.00    -0.068 N 
HETATM   12  C   UNL     1       5.450  28.864  51.081  1.00  0.00     0.254 C 
HETATM   13  C   UNL     1       4.653  29.734  50.087  1.00  0.00     0.150 C 
HETATM   14  N   UNL     1       3.255  29.270  50.028  1.00  0.00    -0.378 N 
HETATM   15  C   UNL     1       2.565  29.339  51.325  1.00  0.00     0.150 C 
HETATM   16  C   UNL     1       3.313  28.516  52.393  1.00  0.00     0.254 C 
HETATM   17  H   UNL     1       4.817  29.903  52.787  1.00  0.00     0.280 HD
BRANCH  14  18
HETATM   18  C   UNL     1       2.970  28.241  49.121  1.00  0.00     0.030 A 
HETATM   19  C   UNL     1       3.942  27.363  48.612  1.00  0.00     0.029 A 
HETATM   20  C   UNL     1       3.619  26.359  47.689  1.00  0.00     0.002 A 
HETATM   21  C   UNL     1       2.307  26.189  47.267  1.00  0.00     0.000 A 
HETATM   22  C   UNL     1       1.316  27.011  47.784  1.00  0.00     0.002 A 
HETATM   23  C   UNL     1       1.646  28.015  48.702  1.00  0.00     0.029 A 
ENDBRANCH  14  18
ENDBRANCH  10  11
ENDBRANCH   1  10
BRANCH   4  24
HETATM   24  C   UNL     1       6.767  25.726  56.480  1.00  0.00     0.156 C 
BRANCH  24  25
HETATM   25  N   UNL     1       7.488  26.993  56.529  1.00  0.00    -0.355 N 
HETATM   26  C   UNL     1       6.928  28.172  56.980  1.00  0.00     0.251 C 
HETATM   27  O   UNL     1       5.709  28.328  57.014  1.00  0.00    -0.268 OA
HETATM   28  H   UNL     1       8.491  26.902  56.657  1.00  0.00     0.162 HD
BRANCH  26  29
HETATM   29  C   UNL     1       7.841  29.219  57.516  1.00  0.00     0.034 A 
HETATM   30  C   UNL     1       7.318  30.080  58.494  1.00  0.00     0.056 A 
HETATM   31  C   UNL     1       8.168  30.998  59.070  1.00  0.00     0.106 A 
HETATM   32  C   UNL     1       9.488  31.092  58.703  1.00  0.00     0.105 A 
HETATM   33  O   UNL     1       7.834  31.881  60.047  1.00  0.00    -0.323 OA
HETATM   34  O   UNL     1      10.152  32.047  59.405  1.00  0.00    -0.323 OA
HETATM   35  C   UNL     1      10.029  30.282  57.729  1.00  0.00     0.041 A 
HETATM   36  C   UNL     1       9.096  32.556  60.249  1.00  0.00     0.352 A 
HETATM   37  C   UNL     1       9.192  29.336  57.121  1.00  0.00     0.020 A 
ENDBRANCH  26  29
ENDBRANCH  24  25
ENDBRANCH   4  24
TORSDOF 6
ENDMDL
