MODEL 1
REMARK VINA RESULT:     -10.6      0.000      0.000
REMARK  8 active torsions:
REMARK  status: ('A' for Active; 'I' for Inactive)
REMARK    1  A    between atoms: C_8  and  C_9 
REMARK    2  A    between atoms: N_10  and  C_11 
REMARK    3  A    between atoms: C_11  and  C_12 
REMARK    4  A    between atoms: C_17  and  S_18 
REMARK    5  A    between atoms: S_18  and  C_19 
REMARK    6  A    between atoms: C_19  and  C_20 
REMARK       I    between atoms: C_20  and  N_21 
REMARK    7  A    between atoms: N_21  and  C_22 
REMARK    8  A    between atoms: C_30  and  O_31 
ROOT
HETATM    1  C   UNL     1       7.507  26.602  56.137  1.00  0.00     0.167 A 
HETATM    2  N   UNL     1       6.383  27.333  55.780  1.00  0.00    -0.301 N 
HETATM    3  C   UNL     1       6.688  28.635  56.091  1.00  0.00     0.192 A 
HETATM    4  N   UNL     1       7.889  28.708  56.604  1.00  0.00    -0.122 NA
HETATM    5  N   UNL     1       8.403  27.450  56.623  1.00  0.00    -0.128 NA
ENDROOT
BRANCH   1   6
HETATM    6  C   UNL     1       7.804  25.170  55.967  1.00  0.00     0.046 A 
HETATM    7  C   UNL     1       7.718  24.505  54.736  1.00  0.00     0.030 A 
HETATM    8  C   UNL     1       7.987  23.126  54.617  1.00  0.00    -0.025 A 
HETATM    9  C   UNL     1       7.913  22.468  53.377  1.00  0.00     0.012 A 
HETATM   10  C   UNL     1       8.331  22.380  55.765  1.00  0.00    -0.023 A 
HETATM   11  C   UNL     1       8.167  21.099  53.277  1.00  0.00     0.001 A 
HETATM   12  C   UNL     1       8.498  20.366  54.412  1.00  0.00     0.001 A 
HETATM   13  C   UNL     1       8.580  21.003  55.651  1.00  0.00     0.012 A 
HETATM   14  C   UNL     1       8.403  23.030  57.002  1.00  0.00     0.049 A 
HETATM   15  C   UNL     1       8.135  24.394  57.096  1.00  0.00     0.080 A 
BRANCH  15  16
HETATM   16  O   UNL     1       8.205  24.918  58.365  1.00  0.00    -0.360 OA
HETATM   17  H   UNL     1       8.365  25.882  58.288  1.00  0.00     0.217 HD
ENDBRANCH  15  16
ENDBRANCH   1   6
BRANCH   2  18
HETATM   18  C   UNL     1       5.120  26.855  55.250  1.00  0.00     0.198 C 
BRANCH  18  19
HETATM   19  C   UNL     1       5.207  26.422  53.837  1.00  0.00     0.070 A 
HETATM   20  O   UNL     1       5.917  27.247  53.014  1.00  0.00    -0.325 OA
HETATM   21  C   UNL     1       5.916  26.680  51.782  1.00  0.00     0.142 A 
HETATM   22  C   UNL     1       5.218  25.496  51.800  1.00  0.00     0.027 A 
HETATM   23  C   UNL     1       4.761  25.326  53.129  1.00  0.00     0.036 A 
ENDBRANCH  18  19
ENDBRANCH   2  18
BRANCH   3  24
HETATM   24  S   UNL     1       5.657  30.000  55.846  1.00  0.00    -0.081 SA
BRANCH  24  25
HETATM   25  C   UNL     1       5.205  30.392  57.561  1.00  0.00     0.185 C 
BRANCH  25  26
HETATM   26  C   UNL     1       6.183  31.334  58.244  1.00  0.00     0.227 C 
HETATM   27  N   UNL     1       7.079  30.741  59.104  1.00  0.00    -0.356 N 
HETATM   28  H   UNL     1       7.028  29.730  59.228  1.00  0.00     0.162 HD
HETATM   29  O   UNL     1       6.104  32.552  58.096  1.00  0.00    -0.273 OA
BRANCH  27  30
HETATM   30  C   UNL     1       7.915  31.495  60.009  1.00  0.00     0.084 C 
HETATM   31  C   UNL     1       7.218  31.776  61.335  1.00  0.00     0.025 C 
HETATM   32  C   UNL     1       8.352  32.187  62.265  1.00  0.00     0.002 C 
HETATM   33  C   UNL     1       9.605  31.497  61.726  1.00  0.00     0.002 C 
HETATM   34  C   UNL     1       9.177  30.762  60.457  1.00  0.00     0.025 C 
ENDBRANCH  27  30
ENDBRANCH  25  26
ENDBRANCH  24  25
ENDBRANCH   3  24
TORSDOF 8
ENDMDL
MODEL 2
REMARK VINA RESULT:     -10.6      1.631      2.881
REMARK  8 active torsions:
REMARK  status: ('A' for Active; 'I' for Inactive)
REMARK    1  A    between atoms: C_8  and  C_9 
REMARK    2  A    between atoms: N_10  and  C_11 
REMARK    3  A    between atoms: C_11  and  C_12 
REMARK    4  A    between atoms: C_17  and  S_18 
REMARK    5  A    between atoms: S_18  and  C_19 
REMARK    6  A    between atoms: C_19  and  C_20 
REMARK       I    between atoms: C_20  and  N_21 
REMARK    7  A    between atoms: N_21  and  C_22 
REMARK    8  A    between atoms: C_30  and  O_31 
ROOT
HETATM    1  C   UNL     1       6.124  26.637  55.984  1.00  0.00     0.167 A 
HETATM    2  N   UNL     1       6.477  27.944  55.682  1.00  0.00    -0.301 N 
HETATM    3  C   UNL     1       5.434  28.713  56.134  1.00  0.00     0.192 A 
HETATM    4  N   UNL     1       4.509  27.954  56.663  1.00  0.00    -0.122 NA
HETATM    5  N   UNL     1       4.939  26.667  56.581  1.00  0.00    -0.128 NA
ENDROOT
BRANCH   1   6
HETATM    6  C   UNL     1       6.876  25.383  55.814  1.00  0.00     0.046 A 
HETATM    7  C   UNL     1       6.848  24.620  54.638  1.00  0.00     0.030 A 
HETATM    8  C   UNL     1       7.563  23.410  54.521  1.00  0.00    -0.025 A 
HETATM    9  C   UNL     1       7.542  22.657  53.335  1.00  0.00     0.012 A 
HETATM   10  C   UNL     1       8.313  22.934  55.619  1.00  0.00    -0.023 A 
HETATM   11  C   UNL     1       8.243  21.453  53.239  1.00  0.00     0.001 A 
HETATM   12  C   UNL     1       8.974  20.983  54.326  1.00  0.00     0.001 A 
HETATM   13  C   UNL     1       9.010  21.719  55.510  1.00  0.00     0.012 A 
HETATM   14  C   UNL     1       8.334  23.678  56.803  1.00  0.00     0.049 A 
HETATM   15  C   UNL     1       7.621  24.872  56.895  1.00  0.00     0.080 A 
BRANCH  15  16
HETATM   16  O   UNL     1       7.690  25.502  58.115  1.00  0.00    -0.360 OA
HETATM   17  H   UNL     1       6.783  25.770  58.371  1.00  0.00     0.217 HD
ENDBRANCH  15  16
ENDBRANCH   1   6
BRANCH   2  18
HETATM   18  C   UNL     1       7.655  28.427  54.984  1.00  0.00     0.198 C 
BRANCH  18  19
HETATM   19  C   UNL     1       8.720  28.900  55.897  1.00  0.00     0.070 A 
HETATM   20  O   UNL     1       9.718  29.623  55.309  1.00  0.00    -0.325 OA
HETATM   21  C   UNL     1      10.575  29.994  56.293  1.00  0.00     0.142 A 
HETATM   22  C   UNL     1      10.140  29.525  57.510  1.00  0.00     0.027 A 
HETATM   23  C   UNL     1       8.939  28.820  57.257  1.00  0.00     0.036 A 
ENDBRANCH  18  19
ENDBRANCH   2  18
BRANCH   3  24
HETATM   24  S   UNL     1       5.334  30.435  56.039  1.00  0.00    -0.081 SA
BRANCH  24  25
HETATM   25  C   UNL     1       4.923  30.844  57.761  1.00  0.00     0.185 C 
BRANCH  25  26
HETATM   26  C   UNL     1       5.982  31.687  58.452  1.00  0.00     0.227 C 
HETATM   27  N   UNL     1       6.802  31.012  59.327  1.00  0.00    -0.356 N 
HETATM   28  H   UNL     1       6.648  30.012  59.457  1.00  0.00     0.162 HD
HETATM   29  O   UNL     1       6.029  32.905  58.296  1.00  0.00    -0.273 OA
BRANCH  27  30
HETATM   30  C   UNL     1       7.698  31.683  60.240  1.00  0.00     0.084 C 
HETATM   31  C   UNL     1       7.071  31.890  61.613  1.00  0.00     0.025 C 
HETATM   32  C   UNL     1       8.257  32.211  62.513  1.00  0.00     0.002 C 
HETATM   33  C   UNL     1       9.465  31.530  61.870  1.00  0.00     0.002 C 
HETATM   34  C   UNL     1       8.960  30.893  60.577  1.00  0.00     0.025 C 
ENDBRANCH  27  30
ENDBRANCH  25  26
ENDBRANCH  24  25
ENDBRANCH   3  24
TORSDOF 8
ENDMDL
MODEL 3
REMARK VINA RESULT:     -10.1      1.739      2.318
REMARK  8 active torsions:
REMARK  status: ('A' for Active; 'I' for Inactive)
REMARK    1  A    between atoms: C_8  and  C_9 
REMARK    2  A    between atoms: N_10  and  C_11 
REMARK    3  A    between atoms: C_11  and  C_12 
REMARK    4  A    between atoms: C_17  and  S_18 
REMARK    5  A    between atoms: S_18  and  C_19 
REMARK    6  A    between atoms: C_19  and  C_20 
REMARK       I    between atoms: C_20  and  N_21 
REMARK    7  A    between atoms: N_21  and  C_22 
REMARK    8  A    between atoms: C_30  and  O_31 
ROOT
HETATM    1  C   UNL     1       7.881  26.935  56.980  1.00  0.00     0.167 A 
HETATM    2  N   UNL     1       6.769  27.752  57.117  1.00  0.00    -0.301 N 
HETATM    3  C   UNL     1       7.255  28.948  57.584  1.00  0.00     0.192 A 
HETATM    4  N   UNL     1       8.553  28.879  57.734  1.00  0.00    -0.122 NA
HETATM    5  N   UNL     1       8.945  27.636  57.349  1.00  0.00    -0.128 NA
ENDROOT
BRANCH   1   6
HETATM    6  C   UNL     1       7.999  25.569  56.444  1.00  0.00     0.046 A 
HETATM    7  C   UNL     1       7.708  25.233  55.115  1.00  0.00     0.030 A 
HETATM    8  C   UNL     1       7.809  23.907  54.645  1.00  0.00    -0.025 A 
HETATM    9  C   UNL     1       7.529  23.580  53.307  1.00  0.00     0.012 A 
HETATM   10  C   UNL     1       8.192  22.879  55.533  1.00  0.00    -0.023 A 
HETATM   11  C   UNL     1       7.618  22.260  52.859  1.00  0.00     0.001 A 
HETATM   12  C   UNL     1       7.988  21.249  53.740  1.00  0.00     0.001 A 
HETATM   13  C   UNL     1       8.274  21.556  55.070  1.00  0.00     0.012 A 
HETATM   14  C   UNL     1       8.469  23.200  56.866  1.00  0.00     0.049 A 
HETATM   15  C   UNL     1       8.364  24.517  57.309  1.00  0.00     0.080 A 
BRANCH  15  16
HETATM   16  O   UNL     1       8.628  24.709  58.644  1.00  0.00    -0.360 OA
HETATM   17  H   UNL     1       8.174  24.002  59.149  1.00  0.00     0.217 HD
ENDBRANCH  15  16
ENDBRANCH   1   6
BRANCH   2  18
HETATM   18  C   UNL     1       5.373  27.430  56.886  1.00  0.00     0.198 C 
BRANCH  18  19
HETATM   19  C   UNL     1       4.907  27.795  55.529  1.00  0.00     0.070 A 
HETATM   20  O   UNL     1       4.174  28.944  55.451  1.00  0.00    -0.325 OA
HETATM   21  C   UNL     1       3.866  29.133  54.143  1.00  0.00     0.142 A 
HETATM   22  C   UNL     1       4.394  28.123  53.375  1.00  0.00     0.027 A 
HETATM   23  C   UNL     1       5.071  27.258  54.269  1.00  0.00     0.036 A 
ENDBRANCH  18  19
ENDBRANCH   2  18
BRANCH   3  24
HETATM   24  S   UNL     1       6.315  30.356  57.928  1.00  0.00    -0.081 SA
BRANCH  24  25
HETATM   25  C   UNL     1       7.556  31.397  58.750  1.00  0.00     0.185 C 
BRANCH  25  26
HETATM   26  C   UNL     1       7.621  31.188  60.254  1.00  0.00     0.227 C 
HETATM   27  N   UNL     1       6.661  31.846  60.988  1.00  0.00    -0.356 N 
HETATM   28  H   UNL     1       5.985  32.422  60.488  1.00  0.00     0.162 HD
HETATM   29  O   UNL     1       8.532  30.543  60.770  1.00  0.00    -0.273 OA
BRANCH  27  30
HETATM   30  C   UNL     1       6.710  31.953  62.428  1.00  0.00     0.084 C 
HETATM   31  C   UNL     1       7.889  32.796  62.901  1.00  0.00     0.025 C 
HETATM   32  C   UNL     1       7.544  33.130  64.346  1.00  0.00     0.002 C 
HETATM   33  C   UNL     1       6.018  33.105  64.427  1.00  0.00     0.002 C 
HETATM   34  C   UNL     1       5.522  32.687  63.045  1.00  0.00     0.025 C 
ENDBRANCH  27  30
ENDBRANCH  25  26
ENDBRANCH  24  25
ENDBRANCH   3  24
TORSDOF 8
ENDMDL
MODEL 4
REMARK VINA RESULT:     -10.1      1.442      2.001
REMARK  8 active torsions:
REMARK  status: ('A' for Active; 'I' for Inactive)
REMARK    1  A    between atoms: C_8  and  C_9 
REMARK    2  A    between atoms: N_10  and  C_11 
REMARK    3  A    between atoms: C_11  and  C_12 
REMARK    4  A    between atoms: C_17  and  S_18 
REMARK    5  A    between atoms: S_18  and  C_19 
REMARK    6  A    between atoms: C_19  and  C_20 
REMARK       I    between atoms: C_20  and  N_21 
REMARK    7  A    between atoms: N_21  and  C_22 
REMARK    8  A    between atoms: C_30  and  O_31 
ROOT
HETATM    1  C   UNL     1       7.088  26.632  55.312  1.00  0.00     0.167 A 
HETATM    2  N   UNL     1       6.050  27.510  55.034  1.00  0.00    -0.301 N 
HETATM    3  C   UNL     1       6.341  28.648  55.745  1.00  0.00     0.192 A 
HETATM    4  N   UNL     1       7.455  28.490  56.414  1.00  0.00    -0.122 NA
HETATM    5  N   UNL     1       7.926  27.246  56.138  1.00  0.00    -0.128 NA
ENDROOT
BRANCH   1   6
HETATM    6  C   UNL     1       7.368  25.289  54.778  1.00  0.00     0.046 A 
HETATM    7  C   UNL     1       7.325  24.125  55.558  1.00  0.00     0.030 A 
HETATM    8  C   UNL     1       7.624  22.857  55.016  1.00  0.00    -0.025 A 
HETATM    9  C   UNL     1       7.566  21.692  55.801  1.00  0.00     0.012 A 
HETATM   10  C   UNL     1       7.998  22.749  53.660  1.00  0.00    -0.023 A 
HETATM   11  C   UNL     1       7.880  20.446  55.254  1.00  0.00     0.001 A 
HETATM   12  C   UNL     1       8.256  20.345  53.919  1.00  0.00     0.001 A 
HETATM   13  C   UNL     1       8.315  21.490  53.124  1.00  0.00     0.012 A 
HETATM   14  C   UNL     1       8.060  23.906  52.877  1.00  0.00     0.049 A 
HETATM   15  C   UNL     1       7.759  25.149  53.432  1.00  0.00     0.080 A 
BRANCH  15  16
HETATM   16  O   UNL     1       7.885  26.218  52.578  1.00  0.00    -0.360 OA
HETATM   17  H   UNL     1       7.604  25.928  51.685  1.00  0.00     0.217 HD
ENDBRANCH  15  16
ENDBRANCH   1   6
BRANCH   2  18
HETATM   18  C   UNL     1       4.867  27.289  54.224  1.00  0.00     0.198 C 
BRANCH  18  19
HETATM   19  C   UNL     1       5.056  27.655  52.803  1.00  0.00     0.070 A 
HETATM   20  O   UNL     1       4.912  26.633  51.910  1.00  0.00    -0.325 OA
HETATM   21  C   UNL     1       5.087  27.158  50.671  1.00  0.00     0.142 A 
HETATM   22  C   UNL     1       5.337  28.507  50.752  1.00  0.00     0.027 A 
HETATM   23  C   UNL     1       5.314  28.832  52.130  1.00  0.00     0.036 A 
ENDBRANCH  18  19
ENDBRANCH   2  18
BRANCH   3  24
HETATM   24  S   UNL     1       5.396  30.094  55.768  1.00  0.00    -0.081 SA
BRANCH  24  25
HETATM   25  C   UNL     1       5.142  30.302  57.555  1.00  0.00     0.185 C 
BRANCH  25  26
HETATM   26  C   UNL     1       6.132  31.258  58.200  1.00  0.00     0.227 C 
HETATM   27  N   UNL     1       7.046  30.683  59.052  1.00  0.00    -0.356 N 
HETATM   28  H   UNL     1       7.000  29.675  59.197  1.00  0.00     0.162 HD
HETATM   29  O   UNL     1       6.049  32.473  58.030  1.00  0.00    -0.273 OA
BRANCH  27  30
HETATM   30  C   UNL     1       7.899  31.455  59.925  1.00  0.00     0.084 C 
HETATM   31  C   UNL     1       7.223  31.776  61.253  1.00  0.00     0.025 C 
HETATM   32  C   UNL     1       8.372  32.204  62.156  1.00  0.00     0.002 C 
HETATM   33  C   UNL     1       9.613  31.491  61.618  1.00  0.00     0.002 C 
HETATM   34  C   UNL     1       9.163  30.726  60.376  1.00  0.00     0.025 C 
ENDBRANCH  27  30
ENDBRANCH  25  26
ENDBRANCH  24  25
ENDBRANCH   3  24
TORSDOF 8
ENDMDL
MODEL 5
REMARK VINA RESULT:      -9.6      3.206      7.400
REMARK  8 active torsions:
REMARK  status: ('A' for Active; 'I' for Inactive)
REMARK    1  A    between atoms: C_8  and  C_9 
REMARK    2  A    between atoms: N_10  and  C_11 
REMARK    3  A    between atoms: C_11  and  C_12 
REMARK    4  A    between atoms: C_17  and  S_18 
REMARK    5  A    between atoms: S_18  and  C_19 
REMARK    6  A    between atoms: C_19  and  C_20 
REMARK       I    between atoms: C_20  and  N_21 
REMARK    7  A    between atoms: N_21  and  C_22 
REMARK    8  A    between atoms: C_30  and  O_31 
ROOT
HETATM    1  C   UNL     1       5.859  25.596  53.538  1.00  0.00     0.167 A 
HETATM    2  N   UNL     1       6.274  26.912  53.402  1.00  0.00    -0.301 N 
HETATM    3  C   UNL     1       5.183  27.584  52.909  1.00  0.00     0.192 A 
HETATM    4  N   UNL     1       4.181  26.759  52.744  1.00  0.00    -0.122 NA
HETATM    5  N   UNL     1       4.595  25.528  53.144  1.00  0.00    -0.128 NA
ENDROOT
BRANCH   1   6
HETATM    6  C   UNL     1       6.564  24.428  54.094  1.00  0.00     0.046 A 
HETATM    7  C   UNL     1       7.060  23.380  53.306  1.00  0.00     0.030 A 
HETATM    8  C   UNL     1       7.708  22.265  53.877  1.00  0.00    -0.025 A 
HETATM    9  C   UNL     1       8.216  21.225  53.080  1.00  0.00     0.012 A 
HETATM   10  C   UNL     1       7.846  22.181  55.279  1.00  0.00    -0.023 A 
HETATM   11  C   UNL     1       8.841  20.119  53.660  1.00  0.00     0.001 A 
HETATM   12  C   UNL     1       8.968  20.036  55.043  1.00  0.00     0.001 A 
HETATM   13  C   UNL     1       8.474  21.061  55.849  1.00  0.00     0.012 A 
HETATM   14  C   UNL     1       7.339  23.212  56.076  1.00  0.00     0.049 A 
HETATM   15  C   UNL     1       6.704  24.306  55.490  1.00  0.00     0.080 A 
BRANCH  15  16
HETATM   16  O   UNL     1       6.218  25.242  56.372  1.00  0.00    -0.360 OA
HETATM   17  H   UNL     1       6.979  25.744  56.733  1.00  0.00     0.217 HD
ENDBRANCH  15  16
ENDBRANCH   1   6
BRANCH   2  18
HETATM   18  C   UNL     1       7.585  27.482  53.656  1.00  0.00     0.198 C 
BRANCH  18  19
HETATM   19  C   UNL     1       7.675  28.178  54.959  1.00  0.00     0.070 A 
HETATM   20  O   UNL     1       6.655  27.927  55.830  1.00  0.00    -0.325 OA
HETATM   21  C   UNL     1       6.921  28.617  56.968  1.00  0.00     0.142 A 
HETATM   22  C   UNL     1       8.104  29.307  56.844  1.00  0.00     0.027 A 
HETATM   23  C   UNL     1       8.595  29.022  55.547  1.00  0.00     0.036 A 
ENDBRANCH  18  19
ENDBRANCH   2  18
BRANCH   3  24
HETATM   24  S   UNL     1       5.113  29.274  52.555  1.00  0.00    -0.081 SA
BRANCH  24  25
HETATM   25  C   UNL     1       3.336  29.477  52.236  1.00  0.00     0.185 C 
BRANCH  25  26
HETATM   26  C   UNL     1       2.970  29.376  50.764  1.00  0.00     0.227 C 
HETATM   27  N   UNL     1       2.887  28.099  50.258  1.00  0.00    -0.356 N 
HETATM   28  H   UNL     1       3.076  27.319  50.887  1.00  0.00     0.162 HD
HETATM   29  O   UNL     1       2.849  30.381  50.067  1.00  0.00    -0.273 OA
BRANCH  27  30
HETATM   30  C   UNL     1       2.785  27.820  48.845  1.00  0.00     0.084 C 
HETATM   31  C   UNL     1       3.385  26.467  48.481  1.00  0.00     0.025 C 
HETATM   32  C   UNL     1       2.829  26.180  47.093  1.00  0.00     0.002 C 
HETATM   33  C   UNL     1       1.498  26.928  47.014  1.00  0.00     0.002 C 
HETATM   34  C   UNL     1       1.353  27.685  48.332  1.00  0.00     0.025 C 
ENDBRANCH  27  30
ENDBRANCH  25  26
ENDBRANCH  24  25
ENDBRANCH   3  24
TORSDOF 8
ENDMDL
MODEL 6
REMARK VINA RESULT:      -9.5      2.617      5.845
REMARK  8 active torsions:
REMARK  status: ('A' for Active; 'I' for Inactive)
REMARK    1  A    between atoms: C_8  and  C_9 
REMARK    2  A    between atoms: N_10  and  C_11 
REMARK    3  A    between atoms: C_11  and  C_12 
REMARK    4  A    between atoms: C_17  and  S_18 
REMARK    5  A    between atoms: S_18  and  C_19 
REMARK    6  A    between atoms: C_19  and  C_20 
REMARK       I    between atoms: C_20  and  N_21 
REMARK    7  A    between atoms: N_21  and  C_22 
REMARK    8  A    between atoms: C_30  and  O_31 
ROOT
HETATM    1  C   UNL     1       6.076  26.583  55.961  1.00  0.00     0.167 A 
HETATM    2  N   UNL     1       6.441  27.876  55.613  1.00  0.00    -0.301 N 
HETATM    3  C   UNL     1       5.390  28.665  56.009  1.00  0.00     0.192 A 
HETATM    4  N   UNL     1       4.450  27.930  56.546  1.00  0.00    -0.122 NA
HETATM    5  N   UNL     1       4.879  26.641  56.529  1.00  0.00    -0.128 NA
ENDROOT
BRANCH   1   6
HETATM    6  C   UNL     1       6.829  25.322  55.861  1.00  0.00     0.046 A 
HETATM    7  C   UNL     1       6.842  24.521  54.711  1.00  0.00     0.030 A 
HETATM    8  C   UNL     1       7.556  23.305  54.662  1.00  0.00    -0.025 A 
HETATM    9  C   UNL     1       7.577  22.514  53.500  1.00  0.00     0.012 A 
HETATM   10  C   UNL     1       8.261  22.863  55.802  1.00  0.00    -0.023 A 
HETATM   11  C   UNL     1       8.275  21.305  53.471  1.00  0.00     0.001 A 
HETATM   12  C   UNL     1       8.962  20.869  54.600  1.00  0.00     0.001 A 
HETATM   13  C   UNL     1       8.956  21.644  55.760  1.00  0.00     0.012 A 
HETATM   14  C   UNL     1       8.241  23.646  56.960  1.00  0.00     0.049 A 
HETATM   15  C   UNL     1       7.530  24.845  56.987  1.00  0.00     0.080 A 
BRANCH  15  16
HETATM   16  O   UNL     1       7.555  25.514  58.187  1.00  0.00    -0.360 OA
HETATM   17  H   UNL     1       7.246  26.431  58.031  1.00  0.00     0.217 HD
ENDBRANCH  15  16
ENDBRANCH   1   6
BRANCH   2  18
HETATM   18  C   UNL     1       7.636  28.327  54.925  1.00  0.00     0.198 C 
BRANCH  18  19
HETATM   19  C   UNL     1       8.687  28.822  55.843  1.00  0.00     0.070 A 
HETATM   20  O   UNL     1       9.668  29.571  55.261  1.00  0.00    -0.325 OA
HETATM   21  C   UNL     1      10.513  29.958  56.249  1.00  0.00     0.142 A 
HETATM   22  C   UNL     1      10.087  29.473  57.463  1.00  0.00     0.027 A 
HETATM   23  C   UNL     1       8.904  28.741  57.203  1.00  0.00     0.036 A 
ENDBRANCH  18  19
ENDBRANCH   2  18
BRANCH   3  24
HETATM   24  S   UNL     1       5.297  30.383  55.840  1.00  0.00    -0.081 SA
BRANCH  24  25
HETATM   25  C   UNL     1       4.178  30.519  54.415  1.00  0.00     0.185 C 
BRANCH  25  26
HETATM   26  C   UNL     1       4.273  29.344  53.456  1.00  0.00     0.227 C 
HETATM   27  N   UNL     1       5.346  29.363  52.595  1.00  0.00    -0.356 N 
HETATM   28  H   UNL     1       5.993  30.149  52.651  1.00  0.00     0.162 HD
HETATM   29  O   UNL     1       3.391  28.489  53.406  1.00  0.00    -0.273 OA
BRANCH  27  30
HETATM   30  C   UNL     1       5.466  28.464  51.471  1.00  0.00     0.084 C 
HETATM   31  C   UNL     1       5.561  27.007  51.907  1.00  0.00     0.025 C 
HETATM   32  C   UNL     1       5.267  26.223  50.635  1.00  0.00     0.002 C 
HETATM   33  C   UNL     1       4.385  27.132  49.779  1.00  0.00     0.002 C 
HETATM   34  C   UNL     1       4.251  28.446  50.547  1.00  0.00     0.025 C 
ENDBRANCH  27  30
ENDBRANCH  25  26
ENDBRANCH  24  25
ENDBRANCH   3  24
TORSDOF 8
ENDMDL
MODEL 7
REMARK VINA RESULT:      -9.4      3.828      6.337
REMARK  8 active torsions:
REMARK  status: ('A' for Active; 'I' for Inactive)
REMARK    1  A    between atoms: C_8  and  C_9 
REMARK    2  A    between atoms: N_10  and  C_11 
REMARK    3  A    between atoms: C_11  and  C_12 
REMARK    4  A    between atoms: C_17  and  S_18 
REMARK    5  A    between atoms: S_18  and  C_19 
REMARK    6  A    between atoms: C_19  and  C_20 
REMARK       I    between atoms: C_20  and  N_21 
REMARK    7  A    between atoms: N_21  and  C_22 
REMARK    8  A    between atoms: C_30  and  O_31 
ROOT
HETATM    1  C   UNL     1       6.143  25.704  55.439  1.00  0.00     0.167 A 
HETATM    2  N   UNL     1       6.173  26.795  54.582  1.00  0.00    -0.301 N 
HETATM    3  C   UNL     1       5.318  27.714  55.139  1.00  0.00     0.192 A 
HETATM    4  N   UNL     1       4.796  27.235  56.239  1.00  0.00    -0.122 NA
HETATM    5  N   UNL     1       5.314  25.994  56.433  1.00  0.00    -0.128 NA
ENDROOT
BRANCH   1   6
HETATM    6  C   UNL     1       6.913  24.449  55.410  1.00  0.00     0.046 A 
HETATM    7  C   UNL     1       6.971  23.606  54.292  1.00  0.00     0.030 A 
HETATM    8  C   UNL     1       7.700  22.398  54.310  1.00  0.00    -0.025 A 
HETATM    9  C   UNL     1       7.765  21.564  53.181  1.00  0.00     0.012 A 
HETATM   10  C   UNL     1       8.375  22.008  55.487  1.00  0.00    -0.023 A 
HETATM   11  C   UNL     1       8.478  20.364  53.219  1.00  0.00     0.001 A 
HETATM   12  C   UNL     1       9.135  19.979  54.384  1.00  0.00     0.001 A 
HETATM   13  C   UNL     1       9.084  20.797  55.513  1.00  0.00     0.012 A 
HETATM   14  C   UNL     1       8.309  22.834  56.614  1.00  0.00     0.049 A 
HETATM   15  C   UNL     1       7.584  24.024  56.573  1.00  0.00     0.080 A 
BRANCH  15  16
HETATM   16  O   UNL     1       7.565  24.738  57.747  1.00  0.00    -0.360 OA
HETATM   17  H   UNL     1       6.639  24.772  58.068  1.00  0.00     0.217 HD
ENDBRANCH  15  16
ENDBRANCH   1   6
BRANCH   2  18
HETATM   18  C   UNL     1       6.890  26.946  53.329  1.00  0.00     0.198 C 
BRANCH  18  19
HETATM   19  C   UNL     1       6.048  26.681  52.141  1.00  0.00     0.070 A 
HETATM   20  O   UNL     1       5.907  27.729  51.278  1.00  0.00    -0.325 OA
HETATM   21  C   UNL     1       5.139  27.297  50.246  1.00  0.00     0.142 A 
HETATM   22  C   UNL     1       4.787  25.981  50.429  1.00  0.00     0.027 A 
HETATM   23  C   UNL     1       5.377  25.580  51.652  1.00  0.00     0.036 A 
ENDBRANCH  18  19
ENDBRANCH   2  18
BRANCH   3  24
HETATM   24  S   UNL     1       4.970  29.283  54.505  1.00  0.00    -0.081 SA
BRANCH  24  25
HETATM   25  C   UNL     1       3.364  28.976  53.714  1.00  0.00     0.185 C 
BRANCH  25  26
HETATM   26  C   UNL     1       3.222  29.641  52.354  1.00  0.00     0.227 C 
HETATM   27  N   UNL     1       2.282  29.089  51.516  1.00  0.00    -0.356 N 
HETATM   28  H   UNL     1       1.754  28.283  51.850  1.00  0.00     0.162 HD
HETATM   29  O   UNL     1       3.970  30.555  52.011  1.00  0.00    -0.273 OA
BRANCH  27  30
HETATM   30  C   UNL     1       2.176  29.435  50.118  1.00  0.00     0.084 C 
HETATM   31  C   UNL     1       1.673  28.270  49.273  1.00  0.00     0.025 C 
HETATM   32  C   UNL     1       1.244  28.922  47.966  1.00  0.00     0.002 C 
HETATM   33  C   UNL     1       0.860  30.358  48.323  1.00  0.00     0.002 C 
HETATM   34  C   UNL     1       1.145  30.520  49.814  1.00  0.00     0.025 C 
ENDBRANCH  27  30
ENDBRANCH  25  26
ENDBRANCH  24  25
ENDBRANCH   3  24
TORSDOF 8
ENDMDL
MODEL 8
REMARK VINA RESULT:      -9.3      2.533      4.620
REMARK  8 active torsions:
REMARK  status: ('A' for Active; 'I' for Inactive)
REMARK    1  A    between atoms: C_8  and  C_9 
REMARK    2  A    between atoms: N_10  and  C_11 
REMARK    3  A    between atoms: C_11  and  C_12 
REMARK    4  A    between atoms: C_17  and  S_18 
REMARK    5  A    between atoms: S_18  and  C_19 
REMARK    6  A    between atoms: C_19  and  C_20 
REMARK       I    between atoms: C_20  and  N_21 
REMARK    7  A    between atoms: N_21  and  C_22 
REMARK    8  A    between atoms: C_30  and  O_31 
ROOT
HETATM    1  C   UNL     1       6.277  29.071  55.921  1.00  0.00     0.167 A 
HETATM    2  N   UNL     1       6.722  29.639  57.105  1.00  0.00    -0.301 N 
HETATM    3  C   UNL     1       6.041  30.826  57.214  1.00  0.00     0.192 A 
HETATM    4  N   UNL     1       5.248  30.987  56.186  1.00  0.00    -0.122 NA
HETATM    5  N   UNL     1       5.384  29.895  55.388  1.00  0.00    -0.128 NA
ENDROOT
BRANCH   1   6
HETATM    6  C   UNL     1       6.586  27.765  55.316  1.00  0.00     0.046 A 
HETATM    7  C   UNL     1       6.645  26.571  56.048  1.00  0.00     0.030 A 
HETATM    8  C   UNL     1       6.969  25.341  55.438  1.00  0.00    -0.025 A 
HETATM    9  C   UNL     1       7.012  24.145  56.175  1.00  0.00     0.012 A 
HETATM   10  C   UNL     1       7.265  25.304  54.058  1.00  0.00    -0.023 A 
HETATM   11  C   UNL     1       7.349  22.938  55.560  1.00  0.00     0.001 A 
HETATM   12  C   UNL     1       7.649  22.907  54.201  1.00  0.00     0.001 A 
HETATM   13  C   UNL     1       7.606  24.083  53.453  1.00  0.00     0.012 A 
HETATM   14  C   UNL     1       7.226  26.492  53.321  1.00  0.00     0.049 A 
HETATM   15  C   UNL     1       6.902  27.696  53.945  1.00  0.00     0.080 A 
BRANCH  15  16
HETATM   16  O   UNL     1       6.925  28.802  53.130  1.00  0.00    -0.360 OA
HETATM   17  H   UNL     1       6.414  29.514  53.568  1.00  0.00     0.217 HD
ENDBRANCH  15  16
ENDBRANCH   1   6
BRANCH   2  18
HETATM   18  C   UNL     1       7.733  29.148  58.024  1.00  0.00     0.198 C 
BRANCH  18  19
HETATM   19  C   UNL     1       9.108  29.538  57.641  1.00  0.00     0.070 A 
HETATM   20  O   UNL     1       9.556  30.711  58.178  1.00  0.00    -0.325 OA
HETATM   21  C   UNL     1      10.830  30.887  57.748  1.00  0.00     0.142 A 
HETATM   22  C   UNL     1      11.213  29.840  56.942  1.00  0.00     0.027 A 
HETATM   23  C   UNL     1      10.102  28.965  56.875  1.00  0.00     0.036 A 
ENDBRANCH  18  19
ENDBRANCH   2  18
BRANCH   3  24
HETATM   24  S   UNL     1       6.184  31.958  58.512  1.00  0.00    -0.081 SA
BRANCH  24  25
HETATM   25  C   UNL     1       4.518  31.858  59.230  1.00  0.00     0.185 C 
BRANCH  25  26
HETATM   26  C   UNL     1       4.478  32.186  60.714  1.00  0.00     0.227 C 
HETATM   27  N   UNL     1       5.603  32.797  61.219  1.00  0.00    -0.356 N 
HETATM   28  H   UNL     1       6.376  32.983  60.581  1.00  0.00     0.162 HD
HETATM   29  O   UNL     1       3.532  31.840  61.418  1.00  0.00    -0.273 OA
BRANCH  27  30
HETATM   30  C   UNL     1       5.836  32.966  62.634  1.00  0.00     0.084 C 
HETATM   31  C   UNL     1       7.238  32.529  63.042  1.00  0.00     0.025 C 
HETATM   32  C   UNL     1       7.429  33.150  64.420  1.00  0.00     0.002 C 
HETATM   33  C   UNL     1       6.538  34.391  64.446  1.00  0.00     0.002 C 
HETATM   34  C   UNL     1       5.799  34.417  63.110  1.00  0.00     0.025 C 
ENDBRANCH  27  30
ENDBRANCH  25  26
ENDBRANCH  24  25
ENDBRANCH   3  24
TORSDOF 8
ENDMDL
MODEL 9
REMARK VINA RESULT:      -9.2      2.122      9.620
REMARK  8 active torsions:
REMARK  status: ('A' for Active; 'I' for Inactive)
REMARK    1  A    between atoms: C_8  and  C_9 
REMARK    2  A    between atoms: N_10  and  C_11 
REMARK    3  A    between atoms: C_11  and  C_12 
REMARK    4  A    between atoms: C_17  and  S_18 
REMARK    5  A    between atoms: S_18  and  C_19 
REMARK    6  A    between atoms: C_19  and  C_20 
REMARK       I    between atoms: C_20  and  N_21 
REMARK    7  A    between atoms: N_21  and  C_22 
REMARK    8  A    between atoms: C_30  and  O_31 
ROOT
HETATM    1  C   UNL     1       7.921  30.865  59.220  1.00  0.00     0.167 A 
HETATM    2  N   UNL     1       6.980  30.392  58.318  1.00  0.00    -0.301 N 
HETATM    3  C   UNL     1       7.709  29.848  57.289  1.00  0.00     0.192 A 
HETATM    4  N   UNL     1       8.989  29.980  57.524  1.00  0.00    -0.122 NA
HETATM    5  N   UNL     1       9.123  30.600  58.726  1.00  0.00    -0.128 NA
ENDROOT
BRANCH   1   6
HETATM    6  C   UNL     1       7.745  31.474  60.549  1.00  0.00     0.046 A 
HETATM    7  C   UNL     1       7.015  32.651  60.767  1.00  0.00     0.030 A 
HETATM    8  C   UNL     1       6.888  33.219  62.052  1.00  0.00    -0.025 A 
HETATM    9  C   UNL     1       6.143  34.391  62.266  1.00  0.00     0.012 A 
HETATM   10  C   UNL     1       7.528  32.606  63.151  1.00  0.00    -0.023 A 
HETATM   11  C   UNL     1       6.040  34.950  63.541  1.00  0.00     0.001 A 
HETATM   12  C   UNL     1       6.679  34.348  64.620  1.00  0.00     0.001 A 
HETATM   13  C   UNL     1       7.419  33.181  64.427  1.00  0.00     0.012 A 
HETATM   14  C   UNL     1       8.274  31.442  62.942  1.00  0.00     0.049 A 
HETATM   15  C   UNL     1       8.384  30.897  61.664  1.00  0.00     0.080 A 
BRANCH  15  16
HETATM   16  O   UNL     1       9.166  29.771  61.573  1.00  0.00    -0.360 OA
HETATM   17  H   UNL     1       9.963  29.995  61.048  1.00  0.00     0.217 HD
ENDBRANCH  15  16
ENDBRANCH   1   6
BRANCH   2  18
HETATM   18  C   UNL     1       5.533  30.487  58.383  1.00  0.00     0.198 C 
BRANCH  18  19
HETATM   19  C   UNL     1       5.025  31.848  58.100  1.00  0.00     0.070 A 
HETATM   20  O   UNL     1       4.116  32.332  58.995  1.00  0.00    -0.325 OA
HETATM   21  C   UNL     1       3.792  33.587  58.597  1.00  0.00     0.142 A 
HETATM   22  C   UNL     1       4.484  33.923  57.457  1.00  0.00     0.027 A 
HETATM   23  C   UNL     1       5.285  32.800  57.136  1.00  0.00     0.036 A 
ENDBRANCH  18  19
ENDBRANCH   2  18
BRANCH   3  24
HETATM   24  S   UNL     1       7.056  29.090  55.880  1.00  0.00    -0.081 SA
BRANCH  24  25
HETATM   25  C   UNL     1       6.573  27.477  56.560  1.00  0.00     0.185 C 
BRANCH  25  26
HETATM   26  C   UNL     1       7.531  26.354  56.196  1.00  0.00     0.227 C 
HETATM   27  N   UNL     1       7.230  25.664  55.045  1.00  0.00    -0.356 N 
HETATM   28  H   UNL     1       6.398  25.941  54.522  1.00  0.00     0.162 HD
HETATM   29  O   UNL     1       8.457  26.040  56.941  1.00  0.00    -0.273 OA
BRANCH  27  30
HETATM   30  C   UNL     1       7.884  24.431  54.674  1.00  0.00     0.084 C 
HETATM   31  C   UNL     1       7.205  23.213  55.290  1.00  0.00     0.025 C 
HETATM   32  C   UNL     1       7.750  22.042  54.482  1.00  0.00     0.002 C 
HETATM   33  C   UNL     1       8.107  22.613  53.110  1.00  0.00     0.002 C 
HETATM   34  C   UNL     1       7.827  24.112  53.182  1.00  0.00     0.025 C 
ENDBRANCH  27  30
ENDBRANCH  25  26
ENDBRANCH  24  25
ENDBRANCH   3  24
TORSDOF 8
ENDMDL
MODEL 10
REMARK VINA RESULT:      -9.2      2.128      2.326
REMARK  8 active torsions:
REMARK  status: ('A' for Active; 'I' for Inactive)
REMARK    1  A    between atoms: C_8  and  C_9 
REMARK    2  A    between atoms: N_10  and  C_11 
REMARK    3  A    between atoms: C_11  and  C_12 
REMARK    4  A    between atoms: C_17  and  S_18 
REMARK    5  A    between atoms: S_18  and  C_19 
REMARK    6  A    between atoms: C_19  and  C_20 
REMARK       I    between atoms: C_20  and  N_21 
REMARK    7  A    between atoms: N_21  and  C_22 
REMARK    8  A    between atoms: C_30  and  O_31 
ROOT
HETATM    1  C   UNL     1       7.553  26.576  56.305  1.00  0.00     0.167 A 
HETATM    2  N   UNL     1       6.480  27.372  55.931  1.00  0.00    -0.301 N 
HETATM    3  C   UNL     1       6.793  28.632  56.378  1.00  0.00     0.192 A 
HETATM    4  N   UNL     1       7.953  28.621  56.984  1.00  0.00    -0.122 NA
HETATM    5  N   UNL     1       8.431  27.350  56.930  1.00  0.00    -0.128 NA
ENDROOT
BRANCH   1   6
HETATM    6  C   UNL     1       7.826  25.155  56.032  1.00  0.00     0.046 A 
HETATM    7  C   UNL     1       7.665  24.569  54.769  1.00  0.00     0.030 A 
HETATM    8  C   UNL     1       7.913  23.197  54.551  1.00  0.00    -0.025 A 
HETATM    9  C   UNL     1       7.763  22.618  53.279  1.00  0.00     0.012 A 
HETATM   10  C   UNL     1       8.312  22.380  55.631  1.00  0.00    -0.023 A 
HETATM   11  C   UNL     1       7.997  21.255  53.082  1.00  0.00     0.001 A 
HETATM   12  C   UNL     1       8.383  20.452  54.151  1.00  0.00     0.001 A 
HETATM   13  C   UNL     1       8.540  21.011  55.419  1.00  0.00     0.012 A 
HETATM   14  C   UNL     1       8.459  22.952  56.899  1.00  0.00     0.049 A 
HETATM   15  C   UNL     1       8.210  24.310  57.091  1.00  0.00     0.080 A 
BRANCH  15  16
HETATM   16  O   UNL     1       8.356  24.754  58.383  1.00  0.00    -0.360 OA
HETATM   17  H   UNL     1       7.782  24.208  58.960  1.00  0.00     0.217 HD
ENDBRANCH  15  16
ENDBRANCH   1   6
BRANCH   2  18
HETATM   18  C   UNL     1       5.249  26.983  55.268  1.00  0.00     0.198 C 
BRANCH  18  19
HETATM   19  C   UNL     1       5.381  26.903  53.796  1.00  0.00     0.070 A 
HETATM   20  O   UNL     1       4.888  25.766  53.224  1.00  0.00    -0.325 OA
HETATM   21  C   UNL     1       5.065  25.883  51.884  1.00  0.00     0.142 A 
HETATM   22  C   UNL     1       5.662  27.084  51.582  1.00  0.00     0.027 A 
HETATM   23  C   UNL     1       5.864  27.747  52.817  1.00  0.00     0.036 A 
ENDBRANCH  18  19
ENDBRANCH   2  18
BRANCH   3  24
HETATM   24  S   UNL     1       5.820  30.045  56.178  1.00  0.00    -0.081 SA
BRANCH  24  25
HETATM   25  C   UNL     1       4.549  29.760  57.444  1.00  0.00     0.185 C 
BRANCH  25  26
HETATM   26  C   UNL     1       3.949  31.041  57.999  1.00  0.00     0.227 C 
HETATM   27  N   UNL     1       4.320  31.365  59.284  1.00  0.00    -0.356 N 
HETATM   28  H   UNL     1       4.957  30.736  59.773  1.00  0.00     0.162 HD
HETATM   29  O   UNL     1       3.118  31.685  57.361  1.00  0.00    -0.273 OA
BRANCH  27  30
HETATM   30  C   UNL     1       3.674  32.405  60.050  1.00  0.00     0.084 C 
HETATM   31  C   UNL     1       3.741  32.141  61.549  1.00  0.00     0.025 C 
HETATM   32  C   UNL     1       3.401  33.487  62.175  1.00  0.00     0.002 C 
HETATM   33  C   UNL     1       3.827  34.541  61.153  1.00  0.00     0.002 C 
HETATM   34  C   UNL     1       4.337  33.776  59.934  1.00  0.00     0.025 C 
ENDBRANCH  27  30
ENDBRANCH  25  26
ENDBRANCH  24  25
ENDBRANCH   3  24
TORSDOF 8
ENDMDL
