MODEL 1
REMARK VINA RESULT:     -11.3      0.000      0.000
REMARK  8 active torsions:
REMARK  status: ('A' for Active; 'I' for Inactive)
REMARK    1  A    between atoms: C_2  and  C_3 
REMARK    2  A    between atoms: C_6  and  N_7 
REMARK       I    between atoms: N_7  and  C_8 
REMARK    3  A    between atoms: C_8  and  C_9 
REMARK    4  A    between atoms: C_9  and  S_10 
REMARK    5  A    between atoms: S_10  and  C_11 
REMARK    6  A    between atoms: C_23  and  C_24 
REMARK    7  A    between atoms: C_24  and  C_25 
REMARK       I    between atoms: C_25  and  N_26 
REMARK    8  A    between atoms: N_26  and  C_27 
ROOT
HETATM    1  C   UNL     1       7.446  26.353  56.243  1.00  0.00     0.178 C 
HETATM    2  N   UNL     1       7.063  26.769  54.978  1.00  0.00    -0.241 N 
HETATM    3  C   UNL     1       7.299  26.006  53.881  1.00  0.00     0.147 C 
HETATM    4  N   UNL     1       7.050  26.526  52.718  1.00  0.00    -0.256 NA
HETATM    5  C   UNL     1       7.799  24.647  54.100  1.00  0.00     0.039 A 
HETATM    6  C   UNL     1       8.051  24.273  55.425  1.00  0.00     0.073 A 
HETATM    7  C   UNL     1       7.950  23.747  53.041  1.00  0.00     0.018 A 
HETATM    8  C   UNL     1       8.361  22.443  53.312  1.00  0.00     0.001 A 
HETATM    9  C   UNL     1       8.611  22.051  54.627  1.00  0.00     0.002 A 
HETATM   10  C   UNL     1       8.456  22.962  55.676  1.00  0.00     0.032 A 
HETATM   11  C   UNL     1       6.434  27.917  54.555  1.00  0.00     0.257 C 
HETATM   12  O   UNL     1       5.863  28.770  55.215  1.00  0.00    -0.270 OA
HETATM   13  C   UNL     1       6.485  27.870  53.039  1.00  0.00     0.211 C 
HETATM   14  N   UNL     1       7.922  25.175  56.499  1.00  0.00    -0.223 NA
ENDROOT
BRANCH   1  15
HETATM   15  S   UNL     1       7.391  27.492  57.563  1.00  0.00    -0.082 SA
BRANCH  15  16
HETATM   16  C   UNL     1       8.854  28.480  57.164  1.00  0.00     0.185 C 
BRANCH  16  17
HETATM   17  C   UNL     1       9.046  29.701  58.056  1.00  0.00     0.231 C 
HETATM   18  N   UNL     1       8.275  29.716  59.201  1.00  0.00    -0.327 N 
HETATM   19  H   UNL     1       7.779  28.855  59.423  1.00  0.00     0.169 HD
HETATM   20  O   UNL     1       9.779  30.614  57.676  1.00  0.00    -0.272 OA
BRANCH  18  21
HETATM   21  C   UNL     1       8.024  30.803  60.062  1.00  0.00     0.034 A 
HETATM   22  C   UNL     1       7.048  31.770  59.832  1.00  0.00     0.030 A 
HETATM   23  C   UNL     1       6.763  32.734  60.807  1.00  0.00     0.010 A 
HETATM   24  C   UNL     1       7.455  32.755  62.025  1.00  0.00    -0.055 A 
HETATM   25  C   UNL     1       8.472  31.816  62.226  1.00  0.00     0.010 A 
HETATM   26  C   UNL     1       8.756  30.854  61.251  1.00  0.00     0.030 A 
BRANCH  24  27
HETATM   27  C   UNL     1       7.085  33.716  63.139  1.00  0.00     0.010 C 
HETATM   28  C   UNL     1       7.516  33.145  64.494  1.00  0.00     0.015 C 
HETATM   29  C   UNL     1       5.597  34.076  63.150  1.00  0.00     0.015 C 
ENDBRANCH  24  27
ENDBRANCH  18  21
ENDBRANCH  16  17
ENDBRANCH  15  16
ENDBRANCH   1  15
BRANCH  13  30
HETATM   30  C   UNL     1       5.115  27.999  52.389  1.00  0.00     0.140 C 
BRANCH  30  31
HETATM   31  C   UNL     1       5.117  28.450  50.937  1.00  0.00     0.220 C 
HETATM   32  N   UNL     1       4.491  27.618  50.041  1.00  0.00    -0.356 N 
HETATM   33  H   UNL     1       3.681  27.134  50.416  1.00  0.00     0.162 HD
HETATM   34  O   UNL     1       5.673  29.498  50.616  1.00  0.00    -0.274 OA
BRANCH  32  35
HETATM   35  C   UNL     1       4.462  27.832  48.592  1.00  0.00     0.084 C 
HETATM   36  C   UNL     1       4.573  26.539  47.762  1.00  0.00     0.025 C 
HETATM   37  C   UNL     1       3.373  25.616  47.962  1.00  0.00     0.002 C 
HETATM   38  C   UNL     1       2.062  26.329  47.649  1.00  0.00     0.000 C 
HETATM   39  C   UNL     1       1.927  27.643  48.414  1.00  0.00     0.002 C 
HETATM   40  C   UNL     1       3.150  28.547  48.222  1.00  0.00     0.025 C 
ENDBRANCH  32  35
ENDBRANCH  30  31
ENDBRANCH  13  30
TORSDOF 8
ENDMDL
MODEL 2
REMARK VINA RESULT:     -11.2      3.715     11.750
REMARK  8 active torsions:
REMARK  status: ('A' for Active; 'I' for Inactive)
REMARK    1  A    between atoms: C_2  and  C_3 
REMARK    2  A    between atoms: C_6  and  N_7 
REMARK       I    between atoms: N_7  and  C_8 
REMARK    3  A    between atoms: C_8  and  C_9 
REMARK    4  A    between atoms: C_9  and  S_10 
REMARK    5  A    between atoms: S_10  and  C_11 
REMARK    6  A    between atoms: C_23  and  C_24 
REMARK    7  A    between atoms: C_24  and  C_25 
REMARK       I    between atoms: C_25  and  N_26 
REMARK    8  A    between atoms: N_26  and  C_27 
ROOT
HETATM    1  C   UNL     1       5.956  31.568  58.161  1.00  0.00     0.178 C 
HETATM    2  N   UNL     1       5.028  32.064  59.063  1.00  0.00    -0.241 N 
HETATM    3  C   UNL     1       5.349  32.271  60.365  1.00  0.00     0.147 C 
HETATM    4  N   UNL     1       4.390  32.593  61.179  1.00  0.00    -0.256 NA
HETATM    5  C   UNL     1       6.756  32.134  60.743  1.00  0.00     0.039 A 
HETATM    6  C   UNL     1       7.644  31.736  59.737  1.00  0.00     0.073 A 
HETATM    7  C   UNL     1       7.200  32.450  62.030  1.00  0.00     0.018 A 
HETATM    8  C   UNL     1       8.562  32.370  62.319  1.00  0.00     0.001 A 
HETATM    9  C   UNL     1       9.462  31.982  61.326  1.00  0.00     0.002 A 
HETATM   10  C   UNL     1       9.004  31.667  60.044  1.00  0.00     0.032 A 
HETATM   11  C   UNL     1       3.710  32.423  58.899  1.00  0.00     0.257 C 
HETATM   12  O   UNL     1       3.081  32.593  57.868  1.00  0.00    -0.270 OA
HETATM   13  C   UNL     1       3.188  32.689  60.299  1.00  0.00     0.211 C 
HETATM   14  N   UNL     1       7.210  31.395  58.441  1.00  0.00    -0.223 NA
ENDROOT
BRANCH   1  15
HETATM   15  S   UNL     1       5.413  31.042  56.589  1.00  0.00    -0.082 SA
BRANCH  15  16
HETATM   16  C   UNL     1       4.986  29.328  56.979  1.00  0.00     0.185 C 
BRANCH  16  17
HETATM   17  C   UNL     1       5.784  28.291  56.199  1.00  0.00     0.231 C 
HETATM   18  N   UNL     1       5.156  27.072  56.035  1.00  0.00    -0.327 N 
HETATM   19  H   UNL     1       4.174  27.030  56.302  1.00  0.00     0.169 HD
HETATM   20  O   UNL     1       6.935  28.553  55.852  1.00  0.00    -0.272 OA
BRANCH  18  21
HETATM   21  C   UNL     1       5.725  25.853  55.616  1.00  0.00     0.034 A 
HETATM   22  C   UNL     1       5.714  25.400  54.299  1.00  0.00     0.030 A 
HETATM   23  C   UNL     1       6.427  24.249  53.940  1.00  0.00     0.010 A 
HETATM   24  C   UNL     1       7.157  23.526  54.892  1.00  0.00    -0.055 A 
HETATM   25  C   UNL     1       7.118  23.956  56.223  1.00  0.00     0.010 A 
HETATM   26  C   UNL     1       6.405  25.104  56.580  1.00  0.00     0.030 A 
BRANCH  24  27
HETATM   27  C   UNL     1       8.029  22.346  54.505  1.00  0.00     0.010 C 
HETATM   28  C   UNL     1       7.833  22.009  53.023  1.00  0.00     0.015 C 
HETATM   29  C   UNL     1       7.790  21.112  55.379  1.00  0.00     0.015 C 
ENDBRANCH  24  27
ENDBRANCH  18  21
ENDBRANCH  16  17
ENDBRANCH  15  16
ENDBRANCH   1  15
BRANCH  13  30
HETATM   30  C   UNL     1       2.570  34.071  60.455  1.00  0.00     0.140 C 
BRANCH  30  31
HETATM   31  C   UNL     1       2.397  34.555  61.887  1.00  0.00     0.220 C 
HETATM   32  N   UNL     1       3.528  35.023  62.510  1.00  0.00    -0.356 N 
HETATM   33  H   UNL     1       4.179  35.500  61.894  1.00  0.00     0.162 HD
HETATM   34  O   UNL     1       1.296  34.500  62.429  1.00  0.00    -0.274 OA
BRANCH  32  35
HETATM   35  C   UNL     1       3.585  35.449  63.911  1.00  0.00     0.084 C 
HETATM   36  C   UNL     1       3.654  34.289  64.920  1.00  0.00     0.025 C 
HETATM   37  C   UNL     1       4.944  33.482  64.790  1.00  0.00     0.002 C 
HETATM   38  C   UNL     1       6.175  34.371  64.929  1.00  0.00     0.000 C 
HETATM   39  C   UNL     1       6.130  35.566  63.980  1.00  0.00     0.002 C 
HETATM   40  C   UNL     1       4.818  36.350  64.106  1.00  0.00     0.025 C 
ENDBRANCH  32  35
ENDBRANCH  30  31
ENDBRANCH  13  30
TORSDOF 8
ENDMDL
MODEL 3
REMARK VINA RESULT:     -11.0      3.898     11.303
REMARK  8 active torsions:
REMARK  status: ('A' for Active; 'I' for Inactive)
REMARK    1  A    between atoms: C_2  and  C_3 
REMARK    2  A    between atoms: C_6  and  N_7 
REMARK       I    between atoms: N_7  and  C_8 
REMARK    3  A    between atoms: C_8  and  C_9 
REMARK    4  A    between atoms: C_9  and  S_10 
REMARK    5  A    between atoms: S_10  and  C_11 
REMARK    6  A    between atoms: C_23  and  C_24 
REMARK    7  A    between atoms: C_24  and  C_25 
REMARK       I    between atoms: C_25  and  N_26 
REMARK    8  A    between atoms: N_26  and  C_27 
ROOT
HETATM    1  C   UNL     1       7.009  30.688  58.036  1.00  0.00     0.178 C 
HETATM    2  N   UNL     1       5.915  31.444  58.421  1.00  0.00    -0.241 N 
HETATM    3  C   UNL     1       5.820  31.964  59.671  1.00  0.00     0.147 C 
HETATM    4  N   UNL     1       4.701  32.532  60.005  1.00  0.00    -0.256 NA
HETATM    5  C   UNL     1       6.995  31.861  60.536  1.00  0.00     0.039 A 
HETATM    6  C   UNL     1       8.100  31.174  60.020  1.00  0.00     0.073 A 
HETATM    7  C   UNL     1       7.035  32.477  61.790  1.00  0.00     0.018 A 
HETATM    8  C   UNL     1       8.205  32.408  62.545  1.00  0.00     0.001 A 
HETATM    9  C   UNL     1       9.318  31.733  62.043  1.00  0.00     0.002 A 
HETATM   10  C   UNL     1       9.264  31.120  60.788  1.00  0.00     0.032 A 
HETATM   11  C   UNL     1       4.782  31.812  57.732  1.00  0.00     0.257 C 
HETATM   12  O   UNL     1       4.551  31.741  56.536  1.00  0.00    -0.270 OA
HETATM   13  C   UNL     1       3.874  32.456  58.764  1.00  0.00     0.211 C 
HETATM   14  N   UNL     1       8.069  30.531  58.766  1.00  0.00    -0.223 NA
ENDROOT
BRANCH   1  15
HETATM   15  S   UNL     1       6.941  29.800  56.536  1.00  0.00    -0.082 SA
BRANCH  15  16
HETATM   16  C   UNL     1       6.463  28.175  57.171  1.00  0.00     0.185 C 
BRANCH  16  17
HETATM   17  C   UNL     1       7.303  27.022  56.637  1.00  0.00     0.231 C 
HETATM   18  N   UNL     1       6.704  26.276  55.640  1.00  0.00    -0.327 N 
HETATM   19  H   UNL     1       5.844  26.654  55.248  1.00  0.00     0.169 HD
HETATM   20  O   UNL     1       8.385  26.770  57.165  1.00  0.00    -0.272 OA
BRANCH  18  21
HETATM   21  C   UNL     1       7.095  25.015  55.150  1.00  0.00     0.034 A 
HETATM   22  C   UNL     1       7.571  24.793  53.860  1.00  0.00     0.030 A 
HETATM   23  C   UNL     1       8.074  23.537  53.497  1.00  0.00     0.010 A 
HETATM   24  C   UNL     1       8.101  22.478  54.414  1.00  0.00    -0.055 A 
HETATM   25  C   UNL     1       7.570  22.692  55.690  1.00  0.00     0.010 A 
HETATM   26  C   UNL     1       7.067  23.946  56.050  1.00  0.00     0.030 A 
BRANCH  24  27
HETATM   27  C   UNL     1       8.747  21.146  54.078  1.00  0.00     0.010 C 
HETATM   28  C   UNL     1       8.149  20.580  52.787  1.00  0.00     0.015 C 
HETATM   29  C   UNL     1       8.645  20.128  55.216  1.00  0.00     0.015 C 
ENDBRANCH  24  27
ENDBRANCH  18  21
ENDBRANCH  16  17
ENDBRANCH  15  16
ENDBRANCH   1  15
BRANCH  13  30
HETATM   30  C   UNL     1       3.431  33.860  58.378  1.00  0.00     0.140 C 
BRANCH  30  31
HETATM   31  C   UNL     1       2.841  34.695  59.505  1.00  0.00     0.220 C 
HETATM   32  N   UNL     1       3.742  35.337  60.320  1.00  0.00    -0.356 N 
HETATM   33  H   UNL     1       4.582  35.653  59.847  1.00  0.00     0.162 HD
HETATM   34  O   UNL     1       1.623  34.755  59.658  1.00  0.00    -0.274 OA
BRANCH  32  35
HETATM   35  C   UNL     1       3.376  36.114  61.507  1.00  0.00     0.084 C 
HETATM   36  C   UNL     1       3.146  35.263  62.770  1.00  0.00     0.025 C 
HETATM   37  C   UNL     1       4.419  34.562  63.239  1.00  0.00     0.002 C 
HETATM   38  C   UNL     1       5.549  35.559  63.477  1.00  0.00     0.000 C 
HETATM   39  C   UNL     1       5.784  36.460  62.267  1.00  0.00     0.002 C 
HETATM   40  C   UNL     1       4.492  37.135  61.795  1.00  0.00     0.025 C 
ENDBRANCH  32  35
ENDBRANCH  30  31
ENDBRANCH  13  30
TORSDOF 8
ENDMDL
MODEL 4
REMARK VINA RESULT:     -10.8      3.987     11.845
REMARK  8 active torsions:
REMARK  status: ('A' for Active; 'I' for Inactive)
REMARK    1  A    between atoms: C_2  and  C_3 
REMARK    2  A    between atoms: C_6  and  N_7 
REMARK       I    between atoms: N_7  and  C_8 
REMARK    3  A    between atoms: C_8  and  C_9 
REMARK    4  A    between atoms: C_9  and  S_10 
REMARK    5  A    between atoms: S_10  and  C_11 
REMARK    6  A    between atoms: C_23  and  C_24 
REMARK    7  A    between atoms: C_24  and  C_25 
REMARK       I    between atoms: C_25  and  N_26 
REMARK    8  A    between atoms: N_26  and  C_27 
ROOT
HETATM    1  C   UNL     1       7.106  30.725  58.483  1.00  0.00     0.178 C 
HETATM    2  N   UNL     1       7.186  31.418  59.680  1.00  0.00    -0.241 N 
HETATM    3  C   UNL     1       6.425  32.518  59.912  1.00  0.00     0.147 C 
HETATM    4  N   UNL     1       6.662  33.199  60.992  1.00  0.00    -0.256 NA
HETATM    5  C   UNL     1       5.383  32.835  58.935  1.00  0.00     0.039 A 
HETATM    6  C   UNL     1       5.302  32.010  57.807  1.00  0.00     0.073 A 
HETATM    7  C   UNL     1       4.470  33.871  59.153  1.00  0.00     0.018 A 
HETATM    8  C   UNL     1       3.452  34.087  58.224  1.00  0.00     0.001 A 
HETATM    9  C   UNL     1       3.353  33.270  57.098  1.00  0.00     0.002 A 
HETATM   10  C   UNL     1       4.274  32.239  56.892  1.00  0.00     0.032 A 
HETATM   11  C   UNL     1       7.960  31.207  60.798  1.00  0.00     0.257 C 
HETATM   12  O   UNL     1       8.624  30.230  61.101  1.00  0.00    -0.270 OA
HETATM   13  C   UNL     1       7.737  32.423  61.677  1.00  0.00     0.211 C 
HETATM   14  N   UNL     1       6.227  30.975  57.564  1.00  0.00    -0.223 NA
ENDROOT
BRANCH   1  15
HETATM   15  S   UNL     1       8.309  29.515  58.123  1.00  0.00    -0.082 SA
BRANCH  15  16
HETATM   16  C   UNL     1       7.509  28.709  56.714  1.00  0.00     0.185 C 
BRANCH  16  17
HETATM   17  C   UNL     1       7.945  27.267  56.487  1.00  0.00     0.231 C 
HETATM   18  N   UNL     1       7.471  26.689  55.326  1.00  0.00    -0.327 N 
HETATM   19  H   UNL     1       7.018  27.315  54.662  1.00  0.00     0.169 HD
HETATM   20  O   UNL     1       8.592  26.689  57.359  1.00  0.00    -0.272 OA
BRANCH  18  21
HETATM   21  C   UNL     1       7.465  25.325  54.977  1.00  0.00     0.034 A 
HETATM   22  C   UNL     1       7.841  24.838  53.727  1.00  0.00     0.030 A 
HETATM   23  C   UNL     1       7.946  23.459  53.507  1.00  0.00     0.010 A 
HETATM   24  C   UNL     1       7.669  22.541  54.529  1.00  0.00    -0.055 A 
HETATM   25  C   UNL     1       7.239  23.036  55.765  1.00  0.00     0.010 A 
HETATM   26  C   UNL     1       7.133  24.412  55.983  1.00  0.00     0.030 A 
BRANCH  24  27
HETATM   27  C   UNL     1       7.888  21.050  54.347  1.00  0.00     0.010 C 
HETATM   28  C   UNL     1       8.895  20.535  55.380  1.00  0.00     0.015 C 
HETATM   29  C   UNL     1       8.326  20.678  52.929  1.00  0.00     0.015 C 
ENDBRANCH  24  27
ENDBRANCH  18  21
ENDBRANCH  16  17
ENDBRANCH  15  16
ENDBRANCH   1  15
BRANCH  13  30
HETATM   30  C   UNL     1       7.272  32.069  63.083  1.00  0.00     0.140 C 
BRANCH  30  31
HETATM   31  C   UNL     1       5.792  32.284  63.358  1.00  0.00     0.220 C 
HETATM   32  N   UNL     1       5.413  33.566  63.677  1.00  0.00    -0.356 N 
HETATM   33  H   UNL     1       5.946  34.289  63.205  1.00  0.00     0.162 HD
HETATM   34  O   UNL     1       5.009  31.338  63.307  1.00  0.00    -0.274 OA
BRANCH  32  35
HETATM   35  C   UNL     1       4.054  33.956  64.061  1.00  0.00     0.084 C 
HETATM   36  C   UNL     1       3.994  35.087  65.104  1.00  0.00     0.025 C 
HETATM   37  C   UNL     1       4.554  36.403  64.567  1.00  0.00     0.002 C 
HETATM   38  C   UNL     1       3.843  36.832  63.288  1.00  0.00     0.000 C 
HETATM   39  C   UNL     1       3.834  35.724  62.238  1.00  0.00     0.002 C 
HETATM   40  C   UNL     1       3.292  34.405  62.800  1.00  0.00     0.025 C 
ENDBRANCH  32  35
ENDBRANCH  30  31
ENDBRANCH  13  30
TORSDOF 8
ENDMDL
MODEL 5
REMARK VINA RESULT:     -10.8      1.231      1.804
REMARK  8 active torsions:
REMARK  status: ('A' for Active; 'I' for Inactive)
REMARK    1  A    between atoms: C_2  and  C_3 
REMARK    2  A    between atoms: C_6  and  N_7 
REMARK       I    between atoms: N_7  and  C_8 
REMARK    3  A    between atoms: C_8  and  C_9 
REMARK    4  A    between atoms: C_9  and  S_10 
REMARK    5  A    between atoms: S_10  and  C_11 
REMARK    6  A    between atoms: C_23  and  C_24 
REMARK    7  A    between atoms: C_24  and  C_25 
REMARK       I    between atoms: C_25  and  N_26 
REMARK    8  A    between atoms: N_26  and  C_27 
ROOT
HETATM    1  C   UNL     1       7.132  28.085  56.502  1.00  0.00     0.178 C 
HETATM    2  N   UNL     1       6.656  27.855  55.222  1.00  0.00    -0.241 N 
HETATM    3  C   UNL     1       6.941  26.707  54.558  1.00  0.00     0.147 C 
HETATM    4  N   UNL     1       6.588  26.627  53.311  1.00  0.00    -0.256 NA
HETATM    5  C   UNL     1       7.609  25.641  55.307  1.00  0.00     0.039 A 
HETATM    6  C   UNL     1       7.953  25.924  56.634  1.00  0.00     0.073 A 
HETATM    7  C   UNL     1       7.829  24.381  54.744  1.00  0.00     0.018 A 
HETATM    8  C   UNL     1       8.404  23.379  55.525  1.00  0.00     0.001 A 
HETATM    9  C   UNL     1       8.748  23.641  56.851  1.00  0.00     0.002 A 
HETATM   10  C   UNL     1       8.523  24.907  57.401  1.00  0.00     0.032 A 
HETATM   11  C   UNL     1       5.877  28.629  54.394  1.00  0.00     0.257 C 
HETATM   12  O   UNL     1       5.232  29.631  54.658  1.00  0.00    -0.270 OA
HETATM   13  C   UNL     1       5.877  27.915  53.055  1.00  0.00     0.211 C 
HETATM   14  N   UNL     1       7.756  27.195  57.209  1.00  0.00    -0.223 NA
ENDROOT
BRANCH   1  15
HETATM   15  S   UNL     1       6.990  29.684  57.185  1.00  0.00    -0.082 SA
BRANCH  15  16
HETATM   16  C   UNL     1       8.631  29.837  57.931  1.00  0.00     0.185 C 
BRANCH  16  17
HETATM   17  C   UNL     1       8.714  30.861  59.056  1.00  0.00     0.231 C 
HETATM   18  N   UNL     1       8.083  30.494  60.229  1.00  0.00    -0.327 N 
HETATM   19  H   UNL     1       7.768  29.527  60.288  1.00  0.00     0.169 HD
HETATM   20  O   UNL     1       9.236  31.954  58.839  1.00  0.00    -0.272 OA
BRANCH  18  21
HETATM   21  C   UNL     1       7.751  31.311  61.326  1.00  0.00     0.034 A 
HETATM   22  C   UNL     1       8.503  31.389  62.496  1.00  0.00     0.030 A 
HETATM   23  C   UNL     1       8.186  32.333  63.481  1.00  0.00     0.010 A 
HETATM   24  C   UNL     1       7.105  33.210  63.318  1.00  0.00    -0.055 A 
HETATM   25  C   UNL     1       6.321  33.089  62.166  1.00  0.00     0.010 A 
HETATM   26  C   UNL     1       6.638  32.145  61.185  1.00  0.00     0.030 A 
BRANCH  24  27
HETATM   27  C   UNL     1       6.814  34.315  64.317  1.00  0.00     0.010 C 
HETATM   28  C   UNL     1       6.943  33.781  65.748  1.00  0.00     0.015 C 
HETATM   29  C   UNL     1       5.449  34.971  64.103  1.00  0.00     0.015 C 
ENDBRANCH  24  27
ENDBRANCH  18  21
ENDBRANCH  16  17
ENDBRANCH  15  16
ENDBRANCH   1  15
BRANCH  13  30
HETATM   30  C   UNL     1       4.479  27.613  52.536  1.00  0.00     0.140 C 
BRANCH  30  31
HETATM   31  C   UNL     1       4.008  28.477  51.377  1.00  0.00     0.220 C 
HETATM   32  N   UNL     1       3.388  27.819  50.342  1.00  0.00    -0.356 N 
HETATM   33  H   UNL     1       2.836  27.017  50.628  1.00  0.00     0.162 HD
HETATM   34  O   UNL     1       4.203  29.690  51.390  1.00  0.00    -0.274 OA
BRANCH  32  35
HETATM   35  C   UNL     1       2.944  28.459  49.101  1.00  0.00     0.084 C 
HETATM   36  C   UNL     1       4.031  28.546  48.014  1.00  0.00     0.025 C 
HETATM   37  C   UNL     1       4.465  27.170  47.514  1.00  0.00     0.002 C 
HETATM   38  C   UNL     1       3.276  26.362  47.003  1.00  0.00     0.000 C 
HETATM   39  C   UNL     1       2.149  26.287  48.030  1.00  0.00     0.002 C 
HETATM   40  C   UNL     1       1.744  27.675  48.540  1.00  0.00     0.025 C 
ENDBRANCH  32  35
ENDBRANCH  30  31
ENDBRANCH  13  30
TORSDOF 8
ENDMDL
MODEL 6
REMARK VINA RESULT:     -10.8      2.334      2.929
REMARK  8 active torsions:
REMARK  status: ('A' for Active; 'I' for Inactive)
REMARK    1  A    between atoms: C_2  and  C_3 
REMARK    2  A    between atoms: C_6  and  N_7 
REMARK       I    between atoms: N_7  and  C_8 
REMARK    3  A    between atoms: C_8  and  C_9 
REMARK    4  A    between atoms: C_9  and  S_10 
REMARK    5  A    between atoms: S_10  and  C_11 
REMARK    6  A    between atoms: C_23  and  C_24 
REMARK    7  A    between atoms: C_24  and  C_25 
REMARK       I    between atoms: C_25  and  N_26 
REMARK    8  A    between atoms: N_26  and  C_27 
ROOT
HETATM    1  C   UNL     1       7.149  24.515  56.150  1.00  0.00     0.178 C 
HETATM    2  N   UNL     1       6.823  24.928  54.868  1.00  0.00    -0.241 N 
HETATM    3  C   UNL     1       7.105  24.161  53.785  1.00  0.00     0.147 C 
HETATM    4  N   UNL     1       6.907  24.678  52.611  1.00  0.00    -0.256 NA
HETATM    5  C   UNL     1       7.590  22.802  54.029  1.00  0.00     0.039 A 
HETATM    6  C   UNL     1       7.783  22.430  55.365  1.00  0.00     0.073 A 
HETATM    7  C   UNL     1       7.785  21.898  52.981  1.00  0.00     0.018 A 
HETATM    8  C   UNL     1       8.180  20.593  53.273  1.00  0.00     0.001 A 
HETATM    9  C   UNL     1       8.371  20.204  54.599  1.00  0.00     0.002 A 
HETATM   10  C   UNL     1       8.173  21.119  55.637  1.00  0.00     0.032 A 
HETATM   11  C   UNL     1       6.216  26.076  54.416  1.00  0.00     0.257 C 
HETATM   12  O   UNL     1       5.620  26.933  55.048  1.00  0.00    -0.270 OA
HETATM   13  C   UNL     1       6.333  26.025  52.904  1.00  0.00     0.211 C 
HETATM   14  N   UNL     1       7.610  23.335  56.430  1.00  0.00    -0.223 NA
ENDROOT
BRANCH   1  15
HETATM   15  S   UNL     1       7.041  25.658  57.463  1.00  0.00    -0.082 SA
BRANCH  15  16
HETATM   16  C   UNL     1       8.515  26.648  57.119  1.00  0.00     0.185 C 
BRANCH  16  17
HETATM   17  C   UNL     1       8.327  28.145  57.331  1.00  0.00     0.231 C 
HETATM   18  N   UNL     1       7.014  28.564  57.410  1.00  0.00    -0.327 N 
HETATM   19  H   UNL     1       6.310  27.832  57.481  1.00  0.00     0.169 HD
HETATM   20  O   UNL     1       9.312  28.882  57.327  1.00  0.00    -0.272 OA
BRANCH  18  21
HETATM   21  C   UNL     1       6.517  29.879  57.326  1.00  0.00     0.034 A 
HETATM   22  C   UNL     1       5.757  30.359  56.262  1.00  0.00     0.030 A 
HETATM   23  C   UNL     1       5.180  31.633  56.322  1.00  0.00     0.010 A 
HETATM   24  C   UNL     1       5.361  32.456  57.442  1.00  0.00    -0.055 A 
HETATM   25  C   UNL     1       6.172  31.990  58.482  1.00  0.00     0.010 A 
HETATM   26  C   UNL     1       6.748  30.718  58.420  1.00  0.00     0.030 A 
BRANCH  24  27
HETATM   27  C   UNL     1       4.651  33.791  57.578  1.00  0.00     0.010 C 
HETATM   28  C   UNL     1       3.475  33.667  58.551  1.00  0.00     0.015 C 
HETATM   29  C   UNL     1       4.188  34.362  56.236  1.00  0.00     0.015 C 
ENDBRANCH  24  27
ENDBRANCH  18  21
ENDBRANCH  16  17
ENDBRANCH  15  16
ENDBRANCH   1  15
BRANCH  13  30
HETATM   30  C   UNL     1       4.993  26.156  52.194  1.00  0.00     0.140 C 
BRANCH  30  31
HETATM   31  C   UNL     1       4.959  27.133  51.029  1.00  0.00     0.220 C 
HETATM   32  N   UNL     1       4.237  26.740  49.928  1.00  0.00    -0.356 N 
HETATM   33  H   UNL     1       3.414  26.187  50.144  1.00  0.00     0.162 HD
HETATM   34  O   UNL     1       5.570  28.197  51.096  1.00  0.00    -0.274 OA
BRANCH  32  35
HETATM   35  C   UNL     1       4.156  27.499  48.677  1.00  0.00     0.084 C 
HETATM   36  C   UNL     1       3.916  26.631  47.429  1.00  0.00     0.025 C 
HETATM   37  C   UNL     1       2.556  25.936  47.457  1.00  0.00     0.002 C 
HETATM   38  C   UNL     1       1.420  26.939  47.624  1.00  0.00     0.000 C 
HETATM   39  C   UNL     1       1.637  27.857  48.824  1.00  0.00     0.002 C 
HETATM   40  C   UNL     1       3.015  28.527  48.793  1.00  0.00     0.025 C 
ENDBRANCH  32  35
ENDBRANCH  30  31
ENDBRANCH  13  30
TORSDOF 8
ENDMDL
MODEL 7
REMARK VINA RESULT:     -10.7      3.442     11.050
REMARK  8 active torsions:
REMARK  status: ('A' for Active; 'I' for Inactive)
REMARK    1  A    between atoms: C_2  and  C_3 
REMARK    2  A    between atoms: C_6  and  N_7 
REMARK       I    between atoms: N_7  and  C_8 
REMARK    3  A    between atoms: C_8  and  C_9 
REMARK    4  A    between atoms: C_9  and  S_10 
REMARK    5  A    between atoms: S_10  and  C_11 
REMARK    6  A    between atoms: C_23  and  C_24 
REMARK    7  A    between atoms: C_24  and  C_25 
REMARK       I    between atoms: C_25  and  N_26 
REMARK    8  A    between atoms: N_26  and  C_27 
ROOT
HETATM    1  C   UNL     1       5.813  29.511  57.032  1.00  0.00     0.178 C 
HETATM    2  N   UNL     1       5.294  30.530  57.814  1.00  0.00    -0.241 N 
HETATM    3  C   UNL     1       6.086  31.262  58.637  1.00  0.00     0.147 C 
HETATM    4  N   UNL     1       5.507  32.095  59.448  1.00  0.00    -0.256 NA
HETATM    5  C   UNL     1       7.532  31.069  58.531  1.00  0.00     0.039 A 
HETATM    6  C   UNL     1       7.974  30.094  57.629  1.00  0.00     0.073 A 
HETATM    7  C   UNL     1       8.430  31.867  59.245  1.00  0.00     0.018 A 
HETATM    8  C   UNL     1       9.800  31.690  59.054  1.00  0.00     0.001 A 
HETATM    9  C   UNL     1      10.257  30.727  58.154  1.00  0.00     0.002 A 
HETATM   10  C   UNL     1       9.348  29.934  57.446  1.00  0.00     0.032 A 
HETATM   11  C   UNL     1       4.008  30.999  57.951  1.00  0.00     0.257 C 
HETATM   12  O   UNL     1       3.029  30.775  57.258  1.00  0.00    -0.270 OA
HETATM   13  C   UNL     1       4.058  31.980  59.107  1.00  0.00     0.211 C 
HETATM   14  N   UNL     1       7.082  29.268  56.916  1.00  0.00    -0.223 NA
ENDROOT
BRANCH   1  15
HETATM   15  S   UNL     1       4.719  28.416  56.229  1.00  0.00    -0.082 SA
BRANCH  15  16
HETATM   16  C   UNL     1       5.319  28.584  54.531  1.00  0.00     0.185 C 
BRANCH  16  17
HETATM   17  C   UNL     1       6.306  27.504  54.106  1.00  0.00     0.231 C 
HETATM   18  N   UNL     1       5.915  26.210  54.391  1.00  0.00    -0.327 N 
HETATM   19  H   UNL     1       4.954  26.088  54.704  1.00  0.00     0.169 HD
HETATM   20  O   UNL     1       7.395  27.833  53.637  1.00  0.00    -0.272 OA
BRANCH  18  21
HETATM   21  C   UNL     1       6.704  25.044  54.378  1.00  0.00     0.034 A 
HETATM   22  C   UNL     1       7.148  24.390  55.525  1.00  0.00     0.030 A 
HETATM   23  C   UNL     1       7.805  23.157  55.428  1.00  0.00     0.010 A 
HETATM   24  C   UNL     1       8.040  22.560  54.183  1.00  0.00    -0.055 A 
HETATM   25  C   UNL     1       7.641  23.249  53.032  1.00  0.00     0.010 A 
HETATM   26  C   UNL     1       6.986  24.480  53.130  1.00  0.00     0.030 A 
BRANCH  24  27
HETATM   27  C   UNL     1       8.645  21.174  54.061  1.00  0.00     0.010 C 
HETATM   28  C   UNL     1       8.144  20.489  52.785  1.00  0.00     0.015 C 
HETATM   29  C   UNL     1       8.382  20.296  55.287  1.00  0.00     0.015 C 
ENDBRANCH  24  27
ENDBRANCH  18  21
ENDBRANCH  16  17
ENDBRANCH  15  16
ENDBRANCH   1  15
BRANCH  13  30
HETATM   30  C   UNL     1       3.524  33.359  58.747  1.00  0.00     0.140 C 
BRANCH  30  31
HETATM   31  C   UNL     1       2.883  34.134  59.888  1.00  0.00     0.220 C 
HETATM   32  N   UNL     1       3.675  34.362  60.988  1.00  0.00    -0.356 N 
HETATM   33  H   UNL     1       4.657  34.503  60.774  1.00  0.00     0.162 HD
HETATM   34  O   UNL     1       1.715  34.506  59.804  1.00  0.00    -0.274 OA
BRANCH  32  35
HETATM   35  C   UNL     1       3.216  35.010  62.219  1.00  0.00     0.084 C 
HETATM   36  C   UNL     1       3.848  34.442  63.503  1.00  0.00     0.025 C 
HETATM   37  C   UNL     1       5.354  34.688  63.567  1.00  0.00     0.002 C 
HETATM   38  C   UNL     1       5.683  36.171  63.432  1.00  0.00     0.000 C 
HETATM   39  C   UNL     1       5.037  36.793  62.196  1.00  0.00     0.002 C 
HETATM   40  C   UNL     1       3.531  36.514  62.135  1.00  0.00     0.025 C 
ENDBRANCH  32  35
ENDBRANCH  30  31
ENDBRANCH  13  30
TORSDOF 8
ENDMDL
MODEL 8
REMARK VINA RESULT:     -10.6      2.337      9.011
REMARK  8 active torsions:
REMARK  status: ('A' for Active; 'I' for Inactive)
REMARK    1  A    between atoms: C_2  and  C_3 
REMARK    2  A    between atoms: C_6  and  N_7 
REMARK       I    between atoms: N_7  and  C_8 
REMARK    3  A    between atoms: C_8  and  C_9 
REMARK    4  A    between atoms: C_9  and  S_10 
REMARK    5  A    between atoms: S_10  and  C_11 
REMARK    6  A    between atoms: C_23  and  C_24 
REMARK    7  A    between atoms: C_24  and  C_25 
REMARK       I    between atoms: C_25  and  N_26 
REMARK    8  A    between atoms: N_26  and  C_27 
ROOT
HETATM    1  C   UNL     1       5.613  30.381  57.614  1.00  0.00     0.178 C 
HETATM    2  N   UNL     1       6.555  29.390  57.395  1.00  0.00    -0.241 N 
HETATM    3  C   UNL     1       7.797  29.464  57.937  1.00  0.00     0.147 C 
HETATM    4  N   UNL     1       8.671  28.578  57.566  1.00  0.00    -0.256 NA
HETATM    5  C   UNL     1       8.046  30.527  58.912  1.00  0.00     0.039 A 
HETATM    6  C   UNL     1       6.995  31.419  59.155  1.00  0.00     0.073 A 
HETATM    7  C   UNL     1       9.252  30.604  59.614  1.00  0.00     0.018 A 
HETATM    8  C   UNL     1       9.412  31.594  60.584  1.00  0.00     0.001 A 
HETATM    9  C   UNL     1       8.372  32.487  60.844  1.00  0.00     0.002 A 
HETATM   10  C   UNL     1       7.172  32.399  60.133  1.00  0.00     0.032 A 
HETATM   11  C   UNL     1       6.492  28.228  56.663  1.00  0.00     0.257 C 
HETATM   12  O   UNL     1       5.516  27.669  56.188  1.00  0.00    -0.270 OA
HETATM   13  C   UNL     1       7.908  27.684  56.646  1.00  0.00     0.211 C 
HETATM   14  N   UNL     1       5.782  31.366  58.442  1.00  0.00    -0.223 NA
ENDROOT
BRANCH   1  15
HETATM   15  S   UNL     1       4.152  30.388  56.661  1.00  0.00    -0.082 SA
BRANCH  15  16
HETATM   16  C   UNL     1       4.664  31.512  55.338  1.00  0.00     0.185 C 
BRANCH  16  17
HETATM   17  C   UNL     1       4.117  31.150  53.963  1.00  0.00     0.231 C 
HETATM   18  N   UNL     1       4.650  30.005  53.405  1.00  0.00    -0.327 N 
HETATM   19  H   UNL     1       5.226  29.430  54.017  1.00  0.00     0.169 HD
HETATM   20  O   UNL     1       3.333  31.917  53.406  1.00  0.00    -0.272 OA
BRANCH  18  21
HETATM   21  C   UNL     1       4.561  29.570  52.068  1.00  0.00     0.034 A 
HETATM   22  C   UNL     1       5.595  29.682  51.141  1.00  0.00     0.030 A 
HETATM   23  C   UNL     1       5.477  29.095  49.876  1.00  0.00     0.010 A 
HETATM   24  C   UNL     1       4.321  28.394  49.509  1.00  0.00    -0.055 A 
HETATM   25  C   UNL     1       3.264  28.334  50.424  1.00  0.00     0.010 A 
HETATM   26  C   UNL     1       3.383  28.921  51.687  1.00  0.00     0.030 A 
BRANCH  24  27
HETATM   27  C   UNL     1       4.219  27.653  48.188  1.00  0.00     0.010 C 
HETATM   28  C   UNL     1       3.859  26.184  48.434  1.00  0.00     0.015 C 
HETATM   29  C   UNL     1       5.486  27.768  47.338  1.00  0.00     0.015 C 
ENDBRANCH  24  27
ENDBRANCH  18  21
ENDBRANCH  16  17
ENDBRANCH  15  16
ENDBRANCH   1  15
BRANCH  13  30
HETATM   30  C   UNL     1       8.006  26.252  57.155  1.00  0.00     0.140 C 
BRANCH  30  31
HETATM   31  C   UNL     1       7.139  25.236  56.428  1.00  0.00     0.220 C 
HETATM   32  N   UNL     1       7.355  25.110  55.077  1.00  0.00    -0.356 N 
HETATM   33  H   UNL     1       8.321  25.241  54.793  1.00  0.00     0.162 HD
HETATM   34  O   UNL     1       6.292  24.593  57.043  1.00  0.00    -0.274 OA
BRANCH  32  35
HETATM   35  C   UNL     1       6.565  24.253  54.189  1.00  0.00     0.084 C 
HETATM   36  C   UNL     1       5.264  24.901  53.682  1.00  0.00     0.025 C 
HETATM   37  C   UNL     1       5.526  26.112  52.789  1.00  0.00     0.002 C 
HETATM   38  C   UNL     1       6.426  25.752  51.612  1.00  0.00     0.000 C 
HETATM   39  C   UNL     1       7.711  25.062  52.061  1.00  0.00     0.002 C 
HETATM   40  C   UNL     1       7.430  23.865  52.975  1.00  0.00     0.025 C 
ENDBRANCH  32  35
ENDBRANCH  30  31
ENDBRANCH  13  30
TORSDOF 8
ENDMDL
MODEL 9
REMARK VINA RESULT:     -10.4      3.738      4.738
REMARK  8 active torsions:
REMARK  status: ('A' for Active; 'I' for Inactive)
REMARK    1  A    between atoms: C_2  and  C_3 
REMARK    2  A    between atoms: C_6  and  N_7 
REMARK       I    between atoms: N_7  and  C_8 
REMARK    3  A    between atoms: C_8  and  C_9 
REMARK    4  A    between atoms: C_9  and  S_10 
REMARK    5  A    between atoms: S_10  and  C_11 
REMARK    6  A    between atoms: C_23  and  C_24 
REMARK    7  A    between atoms: C_24  and  C_25 
REMARK       I    between atoms: C_25  and  N_26 
REMARK    8  A    between atoms: N_26  and  C_27 
ROOT
HETATM    1  C   UNL     1       7.822  25.054  55.773  1.00  0.00     0.178 C 
HETATM    2  N   UNL     1       7.387  25.128  54.460  1.00  0.00    -0.241 N 
HETATM    3  C   UNL     1       7.445  24.051  53.636  1.00  0.00     0.147 C 
HETATM    4  N   UNL     1       7.160  24.236  52.382  1.00  0.00    -0.256 NA
HETATM    5  C   UNL     1       7.804  22.764  54.231  1.00  0.00     0.039 A 
HETATM    6  C   UNL     1       8.121  22.765  55.594  1.00  0.00     0.073 A 
HETATM    7  C   UNL     1       7.766  21.581  53.487  1.00  0.00     0.018 A 
HETATM    8  C   UNL     1       8.048  20.371  54.120  1.00  0.00     0.001 A 
HETATM    9  C   UNL     1       8.359  20.353  55.480  1.00  0.00     0.002 A 
HETATM   10  C   UNL     1       8.395  21.544  56.211  1.00  0.00     0.032 A 
HETATM   11  C   UNL     1       6.858  26.173  53.740  1.00  0.00     0.257 C 
HETATM   12  O   UNL     1       6.443  27.250  54.137  1.00  0.00    -0.270 OA
HETATM   13  C   UNL     1       6.779  25.677  52.308  1.00  0.00     0.211 C 
HETATM   14  N   UNL     1       8.182  23.951  56.352  1.00  0.00    -0.223 NA
ENDROOT
BRANCH   1  15
HETATM   15  S   UNL     1       8.005  26.527  56.689  1.00  0.00    -0.082 SA
BRANCH  15  16
HETATM   16  C   UNL     1       6.334  26.668  57.366  1.00  0.00     0.185 C 
BRANCH  16  17
HETATM   17  C   UNL     1       5.705  28.046  57.200  1.00  0.00     0.231 C 
HETATM   18  N   UNL     1       4.532  28.069  56.472  1.00  0.00    -0.327 N 
HETATM   19  H   UNL     1       4.117  27.165  56.255  1.00  0.00     0.169 HD
HETATM   20  O   UNL     1       6.300  29.034  57.627  1.00  0.00    -0.272 OA
BRANCH  18  21
HETATM   21  C   UNL     1       3.876  29.188  55.921  1.00  0.00     0.034 A 
HETATM   22  C   UNL     1       3.253  30.176  56.679  1.00  0.00     0.030 A 
HETATM   23  C   UNL     1       2.750  31.329  56.063  1.00  0.00     0.010 A 
HETATM   24  C   UNL     1       2.853  31.510  54.678  1.00  0.00    -0.055 A 
HETATM   25  C   UNL     1       3.431  30.488  53.916  1.00  0.00     0.010 A 
HETATM   26  C   UNL     1       3.931  29.338  54.533  1.00  0.00     0.030 A 
BRANCH  24  27
HETATM   27  C   UNL     1       2.421  32.801  54.005  1.00  0.00     0.010 C 
HETATM   28  C   UNL     1       1.139  33.331  54.655  1.00  0.00     0.015 C 
HETATM   29  C   UNL     1       2.242  32.656  52.492  1.00  0.00     0.015 C 
ENDBRANCH  24  27
ENDBRANCH  18  21
ENDBRANCH  16  17
ENDBRANCH  15  16
ENDBRANCH   1  15
BRANCH  13  30
HETATM   30  C   UNL     1       5.383  25.789  51.711  1.00  0.00     0.140 C 
BRANCH  30  31
HETATM   31  C   UNL     1       5.166  26.959  50.764  1.00  0.00     0.220 C 
HETATM   32  N   UNL     1       4.302  26.741  49.718  1.00  0.00    -0.356 N 
HETATM   33  H   UNL     1       3.528  26.121  49.937  1.00  0.00     0.162 HD
HETATM   34  O   UNL     1       5.760  28.019  50.944  1.00  0.00    -0.274 OA
BRANCH  32  35
HETATM   35  C   UNL     1       4.030  27.710  48.653  1.00  0.00     0.084 C 
HETATM   36  C   UNL     1       3.569  27.075  47.328  1.00  0.00     0.025 C 
HETATM   37  C   UNL     1       2.220  26.372  47.458  1.00  0.00     0.002 C 
HETATM   38  C   UNL     1       1.147  27.318  47.987  1.00  0.00     0.000 C 
HETATM   39  C   UNL     1       1.577  28.009  49.279  1.00  0.00     0.002 C 
HETATM   40  C   UNL     1       2.944  28.688  49.138  1.00  0.00     0.025 C 
ENDBRANCH  32  35
ENDBRANCH  30  31
ENDBRANCH  13  30
TORSDOF 8
ENDMDL
MODEL 10
REMARK VINA RESULT:     -10.3      4.859      8.026
REMARK  8 active torsions:
REMARK  status: ('A' for Active; 'I' for Inactive)
REMARK    1  A    between atoms: C_2  and  C_3 
REMARK    2  A    between atoms: C_6  and  N_7 
REMARK       I    between atoms: N_7  and  C_8 
REMARK    3  A    between atoms: C_8  and  C_9 
REMARK    4  A    between atoms: C_9  and  S_10 
REMARK    5  A    between atoms: S_10  and  C_11 
REMARK    6  A    between atoms: C_23  and  C_24 
REMARK    7  A    between atoms: C_24  and  C_25 
REMARK       I    between atoms: C_25  and  N_26 
REMARK    8  A    between atoms: N_26  and  C_27 
ROOT
HETATM    1  C   UNL     1       4.359  28.713  52.090  1.00  0.00     0.178 C 
HETATM    2  N   UNL     1       4.663  29.928  51.497  1.00  0.00    -0.241 N 
HETATM    3  C   UNL     1       5.094  29.999  50.212  1.00  0.00     0.147 C 
HETATM    4  N   UNL     1       5.502  31.152  49.776  1.00  0.00    -0.256 NA
HETATM    5  C   UNL     1       5.046  28.773  49.415  1.00  0.00     0.039 A 
HETATM    6  C   UNL     1       4.617  27.612  50.069  1.00  0.00     0.073 A 
HETATM    7  C   UNL     1       5.348  28.777  48.051  1.00  0.00     0.018 A 
HETATM    8  C   UNL     1       5.218  27.596  47.321  1.00  0.00     0.001 A 
HETATM    9  C   UNL     1       4.786  26.431  47.955  1.00  0.00     0.002 A 
HETATM   10  C   UNL     1       4.487  26.441  49.321  1.00  0.00     0.032 A 
HETATM   11  C   UNL     1       4.621  31.210  51.992  1.00  0.00     0.257 C 
HETATM   12  O   UNL     1       4.103  31.624  53.017  1.00  0.00    -0.270 OA
HETATM   13  C   UNL     1       5.269  32.075  50.926  1.00  0.00     0.211 C 
HETATM   14  N   UNL     1       4.327  27.587  51.447  1.00  0.00    -0.223 NA
ENDROOT
BRANCH   1  15
HETATM   15  S   UNL     1       4.103  28.651  53.814  1.00  0.00    -0.082 SA
BRANCH  15  16
HETATM   16  C   UNL     1       5.819  28.766  54.375  1.00  0.00     0.185 C 
BRANCH  16  17
HETATM   17  C   UNL     1       6.670  27.546  54.043  1.00  0.00     0.231 C 
HETATM   18  N   UNL     1       5.974  26.357  53.946  1.00  0.00    -0.327 N 
HETATM   19  H   UNL     1       4.958  26.427  53.944  1.00  0.00     0.169 HD
HETATM   20  O   UNL     1       7.892  27.665  53.974  1.00  0.00    -0.272 OA
BRANCH  18  21
HETATM   21  C   UNL     1       6.494  25.048  53.928  1.00  0.00     0.034 A 
HETATM   22  C   UNL     1       6.889  24.382  52.771  1.00  0.00     0.030 A 
HETATM   23  C   UNL     1       7.530  23.140  52.852  1.00  0.00     0.010 A 
HETATM   24  C   UNL     1       7.779  22.536  54.092  1.00  0.00    -0.055 A 
HETATM   25  C   UNL     1       7.330  23.184  55.247  1.00  0.00     0.010 A 
HETATM   26  C   UNL     1       6.689  24.424  55.164  1.00  0.00     0.030 A 
BRANCH  24  27
HETATM   27  C   UNL     1       8.574  21.248  54.209  1.00  0.00     0.010 C 
HETATM   28  C   UNL     1       8.438  20.425  52.924  1.00  0.00     0.015 C 
HETATM   29  C   UNL     1       8.185  20.414  55.432  1.00  0.00     0.015 C 
ENDBRANCH  24  27
ENDBRANCH  18  21
ENDBRANCH  16  17
ENDBRANCH  15  16
ENDBRANCH   1  15
BRANCH  13  30
HETATM   30  C   UNL     1       4.384  33.224  50.466  1.00  0.00     0.140 C 
BRANCH  30  31
HETATM   31  C   UNL     1       2.914  32.885  50.274  1.00  0.00     0.220 C 
HETATM   32  N   UNL     1       2.622  32.000  49.265  1.00  0.00    -0.356 N 
HETATM   33  H   UNL     1       3.326  31.283  49.121  1.00  0.00     0.162 HD
HETATM   34  O   UNL     1       2.061  33.407  50.988  1.00  0.00    -0.274 OA
BRANCH  32  35
HETATM   35  C   UNL     1       1.265  31.617  48.866  1.00  0.00     0.084 C 
HETATM   36  C   UNL     1       1.173  31.006  47.456  1.00  0.00     0.025 C 
HETATM   37  C   UNL     1       1.914  29.675  47.348  1.00  0.00     0.002 C 
HETATM   38  C   UNL     1       1.416  28.675  48.386  1.00  0.00     0.000 C 
HETATM   39  C   UNL     1       1.444  29.252  49.799  1.00  0.00     0.002 C 
HETATM   40  C   UNL     1       0.718  30.599  49.883  1.00  0.00     0.025 C 
ENDBRANCH  32  35
ENDBRANCH  30  31
ENDBRANCH  13  30
TORSDOF 8
ENDMDL
