MODEL 1
REMARK VINA RESULT:      -9.2      0.000      0.000
REMARK  7 active torsions:
REMARK  status: ('A' for Active; 'I' for Inactive)
REMARK    1  A    between atoms: C_2  and  N_3 
REMARK    2  A    between atoms: N_3  and  C_4 
REMARK    3  A    between atoms: C_6  and  N_7 
REMARK    4  A    between atoms: N_7  and  C_8 
REMARK    5  A    between atoms: C_8  and  C_9 
REMARK    6  A    between atoms: C_9  and  C_10 
REMARK    7  A    between atoms: C_13  and  O_14 
ROOT
HETATM    1  C   UNL     1       6.931  23.753  54.598  1.00  0.00     0.119 A 
HETATM    2  N   UNL     1       6.974  24.607  55.638  1.00  0.00    -0.207 NA
HETATM    3  C   UNL     1       7.631  24.234  56.747  1.00  0.00     0.181 A 
HETATM    4  N   UNL     1       8.272  23.072  56.837  1.00  0.00    -0.330 N 
HETATM    5  H   UNL     1       8.799  22.899  57.683  1.00  0.00     0.168 HD
HETATM    6  C   UNL     1       8.280  22.194  55.829  1.00  0.00     0.048 A 
HETATM    7  C   UNL     1       7.591  22.507  54.641  1.00  0.00     0.031 A 
HETATM    8  C   UNL     1       8.973  20.981  55.960  1.00  0.00     0.030 A 
HETATM    9  C   UNL     1       8.990  20.066  54.908  1.00  0.00     0.002 A 
HETATM   10  C   UNL     1       8.324  20.359  53.722  1.00  0.00     0.001 A 
HETATM   11  C   UNL     1       7.635  21.566  53.586  1.00  0.00     0.017 A 
ENDROOT
BRANCH   3  12
HETATM   12  N   UNL     1       7.697  25.057  57.866  1.00  0.00    -0.262 NA
HETATM   13  H   UNL     1       7.256  24.655  58.687  1.00  0.00     0.130 HD
BRANCH  12  14
HETATM   14  C   UNL     1       7.258  26.444  57.641  1.00  0.00     0.100 C 
BRANCH  14  15
HETATM   15  C   UNL     1       8.327  27.197  56.839  1.00  0.00     0.053 C 
BRANCH  15  16
HETATM   16  C   UNL     1       8.626  28.554  57.421  1.00  0.00    -0.057 A 
HETATM   17  C   UNL     1       7.677  29.212  58.210  1.00  0.00     0.010 A 
HETATM   18  C   UNL     1       7.959  30.470  58.749  1.00  0.00     0.037 A 
HETATM   19  C   UNL     1       9.189  31.087  58.513  1.00  0.00     0.068 A 
HETATM   20  C   UNL     1      10.133  30.441  57.718  1.00  0.00     0.037 A 
HETATM   21  C   UNL     1       9.853  29.182  57.172  1.00  0.00     0.010 A 
BRANCH  19  22
HETATM   22  O   UNL     1       9.337  32.309  59.109  1.00  0.00    -0.356 OA
HETATM   23  C   UNL     1       9.297  32.341  60.531  1.00  0.00     0.210 C 
ENDBRANCH  19  22
ENDBRANCH  15  16
ENDBRANCH  14  15
ENDBRANCH  12  14
ENDBRANCH   3  12
BRANCH   1  24
HETATM   24  N   UNL     1       6.271  24.142  53.431  1.00  0.00    -0.273 NA
HETATM   25  H   UNL     1       5.259  24.085  53.523  1.00  0.00     0.129 HD
BRANCH  24  26
HETATM   26  C   UNL     1       6.692  25.370  52.745  1.00  0.00     0.053 C 
HETATM   27  C   UNL     1       5.685  25.766  51.668  1.00  0.00     0.026 C 
HETATM   28  C   UNL     1       8.059  25.106  52.112  1.00  0.00     0.026 C 
ENDBRANCH  24  26
ENDBRANCH   1  24
TORSDOF 7
ENDMDL
MODEL 2
REMARK VINA RESULT:      -8.5      4.371      8.506
REMARK  7 active torsions:
REMARK  status: ('A' for Active; 'I' for Inactive)
REMARK    1  A    between atoms: C_2  and  N_3 
REMARK    2  A    between atoms: N_3  and  C_4 
REMARK    3  A    between atoms: C_6  and  N_7 
REMARK    4  A    between atoms: N_7  and  C_8 
REMARK    5  A    between atoms: C_8  and  C_9 
REMARK    6  A    between atoms: C_9  and  C_10 
REMARK    7  A    between atoms: C_13  and  O_14 
ROOT
HETATM    1  C   UNL     1       8.135  23.629  53.997  1.00  0.00     0.119 A 
HETATM    2  N   UNL     1       7.756  23.968  52.750  1.00  0.00    -0.207 NA
HETATM    3  C   UNL     1       7.197  25.172  52.554  1.00  0.00     0.181 A 
HETATM    4  N   UNL     1       7.041  26.052  53.539  1.00  0.00    -0.330 N 
HETATM    5  H   UNL     1       6.673  26.961  53.292  1.00  0.00     0.168 HD
HETATM    6  C   UNL     1       7.416  25.777  54.793  1.00  0.00     0.048 A 
HETATM    7  C   UNL     1       7.990  24.524  55.078  1.00  0.00     0.031 A 
HETATM    8  C   UNL     1       7.241  26.736  55.803  1.00  0.00     0.030 A 
HETATM    9  C   UNL     1       7.638  26.456  57.110  1.00  0.00     0.002 A 
HETATM   10  C   UNL     1       8.216  25.227  57.412  1.00  0.00     0.001 A 
HETATM   11  C   UNL     1       8.395  24.271  56.410  1.00  0.00     0.017 A 
ENDROOT
BRANCH   3  12
HETATM   12  N   UNL     1       6.763  25.578  51.297  1.00  0.00    -0.262 NA
HETATM   13  H   UNL     1       7.401  26.222  50.840  1.00  0.00     0.130 HD
BRANCH  12  14
HETATM   14  C   UNL     1       5.376  26.067  51.250  1.00  0.00     0.100 C 
BRANCH  14  15
HETATM   15  C   UNL     1       5.266  27.202  50.223  1.00  0.00     0.053 C 
BRANCH  15  16
HETATM   16  C   UNL     1       3.981  27.141  49.439  1.00  0.00    -0.057 A 
HETATM   17  C   UNL     1       3.036  28.167  49.546  1.00  0.00     0.010 A 
HETATM   18  C   UNL     1       1.846  28.107  48.815  1.00  0.00     0.037 A 
HETATM   19  C   UNL     1       1.583  27.029  47.969  1.00  0.00     0.068 A 
HETATM   20  C   UNL     1       2.516  25.999  47.868  1.00  0.00     0.037 A 
HETATM   21  C   UNL     1       3.708  26.052  48.601  1.00  0.00     0.010 A 
BRANCH  19  22
HETATM   22  O   UNL     1       0.389  27.103  47.307  1.00  0.00    -0.356 OA
HETATM   23  C   UNL     1       0.255  28.131  46.332  1.00  0.00     0.210 C 
ENDBRANCH  19  22
ENDBRANCH  15  16
ENDBRANCH  14  15
ENDBRANCH  12  14
ENDBRANCH   3  12
BRANCH   1  24
HETATM   24  N   UNL     1       8.741  22.389  54.206  1.00  0.00    -0.273 NA
HETATM   25  H   UNL     1       9.393  22.405  54.987  1.00  0.00     0.129 HD
BRANCH  24  26
HETATM   26  C   UNL     1       7.911  21.178  54.208  1.00  0.00     0.053 C 
HETATM   27  C   UNL     1       8.114  20.379  55.493  1.00  0.00     0.026 C 
HETATM   28  C   UNL     1       8.315  20.334  52.997  1.00  0.00     0.026 C 
ENDBRANCH  24  26
ENDBRANCH   1  24
TORSDOF 7
ENDMDL
MODEL 3
REMARK VINA RESULT:      -8.5      4.319      8.254
REMARK  7 active torsions:
REMARK  status: ('A' for Active; 'I' for Inactive)
REMARK    1  A    between atoms: C_2  and  N_3 
REMARK    2  A    between atoms: N_3  and  C_4 
REMARK    3  A    between atoms: C_6  and  N_7 
REMARK    4  A    between atoms: N_7  and  C_8 
REMARK    5  A    between atoms: C_8  and  C_9 
REMARK    6  A    between atoms: C_9  and  C_10 
REMARK    7  A    between atoms: C_13  and  O_14 
ROOT
HETATM    1  C   UNL     1       7.152  24.310  54.904  1.00  0.00     0.119 A 
HETATM    2  N   UNL     1       6.881  25.176  53.910  1.00  0.00    -0.207 NA
HETATM    3  C   UNL     1       7.014  24.759  52.641  1.00  0.00     0.181 A 
HETATM    4  N   UNL     1       7.364  23.512  52.336  1.00  0.00    -0.330 N 
HETATM    5  H   UNL     1       7.375  23.263  51.356  1.00  0.00     0.168 HD
HETATM    6  C   UNL     1       7.626  22.605  53.281  1.00  0.00     0.048 A 
HETATM    7  C   UNL     1       7.530  22.977  54.635  1.00  0.00     0.031 A 
HETATM    8  C   UNL     1       7.986  21.298  52.918  1.00  0.00     0.030 A 
HETATM    9  C   UNL     1       8.253  20.346  53.901  1.00  0.00     0.002 A 
HETATM   10  C   UNL     1       8.155  20.690  55.246  1.00  0.00     0.001 A 
HETATM   11  C   UNL     1       7.794  21.989  55.612  1.00  0.00     0.017 A 
ENDROOT
BRANCH   3  12
HETATM   12  N   UNL     1       6.772  25.607  51.566  1.00  0.00    -0.262 NA
HETATM   13  H   UNL     1       7.245  26.501  51.644  1.00  0.00     0.130 HD
BRANCH  12  14
HETATM   14  C   UNL     1       5.351  25.777  51.221  1.00  0.00     0.100 C 
BRANCH  14  15
HETATM   15  C   UNL     1       5.168  27.075  50.423  1.00  0.00     0.053 C 
BRANCH  15  16
HETATM   16  C   UNL     1       4.091  26.956  49.377  1.00  0.00    -0.057 A 
HETATM   17  C   UNL     1       3.215  28.021  49.137  1.00  0.00     0.010 A 
HETATM   18  C   UNL     1       2.218  27.907  48.165  1.00  0.00     0.037 A 
HETATM   19  C   UNL     1       2.082  26.736  47.417  1.00  0.00     0.068 A 
HETATM   20  C   UNL     1       2.944  25.669  47.661  1.00  0.00     0.037 A 
HETATM   21  C   UNL     1       3.942  25.777  48.638  1.00  0.00     0.010 A 
BRANCH  19  22
HETATM   22  O   UNL     1       1.074  26.764  46.494  1.00  0.00    -0.356 OA
HETATM   23  C   UNL     1       0.157  27.850  46.574  1.00  0.00     0.210 C 
ENDBRANCH  19  22
ENDBRANCH  15  16
ENDBRANCH  14  15
ENDBRANCH  12  14
ENDBRANCH   3  12
BRANCH   1  24
HETATM   24  N   UNL     1       6.993  24.727  56.226  1.00  0.00    -0.273 NA
HETATM   25  H   UNL     1       6.677  23.974  56.833  1.00  0.00     0.129 HD
BRANCH  24  26
HETATM   26  C   UNL     1       8.047  25.533  56.855  1.00  0.00     0.053 C 
HETATM   27  C   UNL     1       8.924  24.673  57.762  1.00  0.00     0.026 C 
HETATM   28  C   UNL     1       7.367  26.633  57.673  1.00  0.00     0.026 C 
ENDBRANCH  24  26
ENDBRANCH   1  24
TORSDOF 7
ENDMDL
MODEL 4
REMARK VINA RESULT:      -8.4      2.495      3.611
REMARK  7 active torsions:
REMARK  status: ('A' for Active; 'I' for Inactive)
REMARK    1  A    between atoms: C_2  and  N_3 
REMARK    2  A    between atoms: N_3  and  C_4 
REMARK    3  A    between atoms: C_6  and  N_7 
REMARK    4  A    between atoms: N_7  and  C_8 
REMARK    5  A    between atoms: C_8  and  C_9 
REMARK    6  A    between atoms: C_9  and  C_10 
REMARK    7  A    between atoms: C_13  and  O_14 
ROOT
HETATM    1  C   UNL     1       6.865  23.829  54.629  1.00  0.00     0.119 A 
HETATM    2  N   UNL     1       6.855  24.802  55.560  1.00  0.00    -0.207 NA
HETATM    3  C   UNL     1       7.416  24.554  56.753  1.00  0.00     0.181 A 
HETATM    4  N   UNL     1       8.014  23.398  57.031  1.00  0.00    -0.330 N 
HETATM    5  H   UNL     1       8.471  23.320  57.930  1.00  0.00     0.168 HD
HETATM    6  C   UNL     1       8.071  22.405  56.138  1.00  0.00     0.048 A 
HETATM    7  C   UNL     1       7.483  22.585  54.872  1.00  0.00     0.031 A 
HETATM    8  C   UNL     1       8.717  21.203  56.468  1.00  0.00     0.030 A 
HETATM    9  C   UNL     1       8.785  20.167  55.537  1.00  0.00     0.002 A 
HETATM   10  C   UNL     1       8.219  20.327  54.277  1.00  0.00     0.001 A 
HETATM   11  C   UNL     1       7.577  21.522  53.944  1.00  0.00     0.017 A 
ENDROOT
BRANCH   3  12
HETATM   12  N   UNL     1       7.423  25.505  57.767  1.00  0.00    -0.262 NA
HETATM   13  H   UNL     1       6.494  25.743  58.101  1.00  0.00     0.130 HD
BRANCH  12  14
HETATM   14  C   UNL     1       8.219  26.710  57.481  1.00  0.00     0.100 C 
BRANCH  14  15
HETATM   15  C   UNL     1       7.416  27.959  57.866  1.00  0.00     0.053 C 
BRANCH  15  16
HETATM   16  C   UNL     1       6.413  28.342  56.809  1.00  0.00    -0.057 A 
HETATM   17  C   UNL     1       6.762  28.304  55.454  1.00  0.00     0.010 A 
HETATM   18  C   UNL     1       5.828  28.658  54.477  1.00  0.00     0.037 A 
HETATM   19  C   UNL     1       4.537  29.050  54.833  1.00  0.00     0.068 A 
HETATM   20  C   UNL     1       4.189  29.100  56.181  1.00  0.00     0.037 A 
HETATM   21  C   UNL     1       5.122  28.751  57.164  1.00  0.00     0.010 A 
BRANCH  19  22
HETATM   22  O   UNL     1       3.724  29.358  53.777  1.00  0.00    -0.356 OA
HETATM   23  C   UNL     1       3.432  28.309  52.862  1.00  0.00     0.210 C 
ENDBRANCH  19  22
ENDBRANCH  15  16
ENDBRANCH  14  15
ENDBRANCH  12  14
ENDBRANCH   3  12
BRANCH   1  24
HETATM   24  N   UNL     1       6.305  24.087  53.376  1.00  0.00    -0.273 NA
HETATM   25  H   UNL     1       5.302  23.917  53.360  1.00  0.00     0.129 HD
BRANCH  24  26
HETATM   26  C   UNL     1       6.665  25.323  52.671  1.00  0.00     0.053 C 
HETATM   27  C   UNL     1       5.694  25.601  51.526  1.00  0.00     0.026 C 
HETATM   28  C   UNL     1       8.084  25.153  52.125  1.00  0.00     0.026 C 
ENDBRANCH  24  26
ENDBRANCH   1  24
TORSDOF 7
ENDMDL
MODEL 5
REMARK VINA RESULT:      -8.4      1.336      1.705
REMARK  7 active torsions:
REMARK  status: ('A' for Active; 'I' for Inactive)
REMARK    1  A    between atoms: C_2  and  N_3 
REMARK    2  A    between atoms: N_3  and  C_4 
REMARK    3  A    between atoms: C_6  and  N_7 
REMARK    4  A    between atoms: N_7  and  C_8 
REMARK    5  A    between atoms: C_8  and  C_9 
REMARK    6  A    between atoms: C_9  and  C_10 
REMARK    7  A    between atoms: C_13  and  O_14 
ROOT
HETATM    1  C   UNL     1       7.422  23.941  54.356  1.00  0.00     0.119 A 
HETATM    2  N   UNL     1       7.394  24.807  55.387  1.00  0.00    -0.207 NA
HETATM    3  C   UNL     1       7.730  24.361  56.607  1.00  0.00     0.181 A 
HETATM    4  N   UNL     1       8.125  23.109  56.823  1.00  0.00    -0.330 N 
HETATM    5  H   UNL     1       8.425  22.875  57.761  1.00  0.00     0.168 HD
HETATM    6  C   UNL     1       8.190  22.212  55.834  1.00  0.00     0.048 A 
HETATM    7  C   UNL     1       7.831  22.602  54.530  1.00  0.00     0.031 A 
HETATM    8  C   UNL     1       8.619  20.903  56.102  1.00  0.00     0.030 A 
HETATM    9  C   UNL     1       8.696  19.967  55.072  1.00  0.00     0.002 A 
HETATM   10  C   UNL     1       8.354  20.333  53.774  1.00  0.00     0.001 A 
HETATM   11  C   UNL     1       7.930  21.636  53.502  1.00  0.00     0.017 A 
ENDROOT
BRANCH   3  12
HETATM   12  N   UNL     1       7.702  25.194  57.720  1.00  0.00    -0.262 NA
HETATM   13  H   UNL     1       7.323  24.747  58.549  1.00  0.00     0.130 HD
BRANCH  12  14
HETATM   14  C   UNL     1       7.090  26.513  57.490  1.00  0.00     0.100 C 
BRANCH  14  15
HETATM   15  C   UNL     1       8.189  27.579  57.387  1.00  0.00     0.053 C 
BRANCH  15  16
HETATM   16  C   UNL     1       7.693  28.950  57.766  1.00  0.00    -0.057 A 
HETATM   17  C   UNL     1       6.545  29.479  57.165  1.00  0.00     0.010 A 
HETATM   18  C   UNL     1       6.087  30.750  57.520  1.00  0.00     0.037 A 
HETATM   19  C   UNL     1       6.762  31.509  58.478  1.00  0.00     0.068 A 
HETATM   20  C   UNL     1       7.912  30.992  59.069  1.00  0.00     0.037 A 
HETATM   21  C   UNL     1       8.378  29.720  58.714  1.00  0.00     0.010 A 
BRANCH  19  22
HETATM   22  O   UNL     1       6.200  32.729  58.737  1.00  0.00    -0.356 OA
HETATM   23  C   UNL     1       4.787  32.827  58.605  1.00  0.00     0.210 C 
ENDBRANCH  19  22
ENDBRANCH  15  16
ENDBRANCH  14  15
ENDBRANCH  12  14
ENDBRANCH   3  12
BRANCH   1  24
HETATM   24  N   UNL     1       7.099  24.401  53.078  1.00  0.00    -0.273 NA
HETATM   25  H   UNL     1       6.968  23.640  52.416  1.00  0.00     0.129 HD
BRANCH  24  26
HETATM   26  C   UNL     1       6.074  25.441  52.929  1.00  0.00     0.053 C 
HETATM   27  C   UNL     1       4.675  24.861  53.121  1.00  0.00     0.026 C 
HETATM   28  C   UNL     1       6.208  26.031  51.524  1.00  0.00     0.026 C 
ENDBRANCH  24  26
ENDBRANCH   1  24
TORSDOF 7
ENDMDL
MODEL 6
REMARK VINA RESULT:      -8.2      2.943      7.766
REMARK  7 active torsions:
REMARK  status: ('A' for Active; 'I' for Inactive)
REMARK    1  A    between atoms: C_2  and  N_3 
REMARK    2  A    between atoms: N_3  and  C_4 
REMARK    3  A    between atoms: C_6  and  N_7 
REMARK    4  A    between atoms: N_7  and  C_8 
REMARK    5  A    between atoms: C_8  and  C_9 
REMARK    6  A    between atoms: C_9  and  C_10 
REMARK    7  A    between atoms: C_13  and  O_14 
ROOT
HETATM    1  C   UNL     1       7.915  28.560  57.865  1.00  0.00     0.119 A 
HETATM    2  N   UNL     1       8.418  27.348  57.566  1.00  0.00    -0.207 NA
HETATM    3  C   UNL     1       7.646  26.483  56.889  1.00  0.00     0.181 A 
HETATM    4  N   UNL     1       6.423  26.798  56.472  1.00  0.00    -0.330 N 
HETATM    5  H   UNL     1       5.936  26.111  55.910  1.00  0.00     0.168 HD
HETATM    6  C   UNL     1       5.881  27.993  56.723  1.00  0.00     0.048 A 
HETATM    7  C   UNL     1       6.623  28.944  57.449  1.00  0.00     0.031 A 
HETATM    8  C   UNL     1       4.589  28.289  56.260  1.00  0.00     0.030 A 
HETATM    9  C   UNL     1       4.023  29.538  56.513  1.00  0.00     0.002 A 
HETATM   10  C   UNL     1       4.743  30.496  57.220  1.00  0.00     0.001 A 
HETATM   11  C   UNL     1       6.029  30.207  57.681  1.00  0.00     0.017 A 
ENDROOT
BRANCH   3  12
HETATM   12  N   UNL     1       8.093  25.207  56.566  1.00  0.00    -0.262 NA
HETATM   13  H   UNL     1       8.679  25.183  55.737  1.00  0.00     0.130 HD
BRANCH  12  14
HETATM   14  C   UNL     1       7.042  24.178  56.513  1.00  0.00     0.100 C 
BRANCH  14  15
HETATM   15  C   UNL     1       7.147  23.403  55.193  1.00  0.00     0.053 C 
BRANCH  15  16
HETATM   16  C   UNL     1       6.789  24.253  54.002  1.00  0.00    -0.057 A 
HETATM   17  C   UNL     1       5.528  24.855  53.913  1.00  0.00     0.010 A 
HETATM   18  C   UNL     1       5.201  25.644  52.808  1.00  0.00     0.037 A 
HETATM   19  C   UNL     1       6.122  25.847  51.779  1.00  0.00     0.068 A 
HETATM   20  C   UNL     1       7.374  25.240  51.856  1.00  0.00     0.037 A 
HETATM   21  C   UNL     1       7.705  24.445  52.960  1.00  0.00     0.010 A 
BRANCH  19  22
HETATM   22  O   UNL     1       5.675  26.647  50.764  1.00  0.00    -0.356 OA
HETATM   23  C   UNL     1       4.692  26.097  49.896  1.00  0.00     0.210 C 
ENDBRANCH  19  22
ENDBRANCH  15  16
ENDBRANCH  14  15
ENDBRANCH  12  14
ENDBRANCH   3  12
BRANCH   1  24
HETATM   24  N   UNL     1       8.719  29.476  58.547  1.00  0.00    -0.273 NA
HETATM   25  H   UNL     1       9.248  29.039  59.298  1.00  0.00     0.129 HD
BRANCH  24  26
HETATM   26  C   UNL     1       9.534  30.424  57.779  1.00  0.00     0.053 C 
HETATM   27  C   UNL     1      10.817  29.763  57.279  1.00  0.00     0.026 C 
HETATM   28  C   UNL     1       9.874  31.599  58.698  1.00  0.00     0.026 C 
ENDBRANCH  24  26
ENDBRANCH   1  24
TORSDOF 7
ENDMDL
MODEL 7
REMARK VINA RESULT:      -8.2      1.799      2.772
REMARK  7 active torsions:
REMARK  status: ('A' for Active; 'I' for Inactive)
REMARK    1  A    between atoms: C_2  and  N_3 
REMARK    2  A    between atoms: N_3  and  C_4 
REMARK    3  A    between atoms: C_6  and  N_7 
REMARK    4  A    between atoms: N_7  and  C_8 
REMARK    5  A    between atoms: C_8  and  C_9 
REMARK    6  A    between atoms: C_9  and  C_10 
REMARK    7  A    between atoms: C_13  and  O_14 
ROOT
HETATM    1  C   UNL     1       7.064  25.617  55.134  1.00  0.00     0.119 A 
HETATM    2  N   UNL     1       7.204  26.628  56.013  1.00  0.00    -0.207 NA
HETATM    3  C   UNL     1       7.680  26.352  57.236  1.00  0.00     0.181 A 
HETATM    4  N   UNL     1       8.054  25.126  57.594  1.00  0.00    -0.330 N 
HETATM    5  H   UNL     1       8.465  25.019  58.512  1.00  0.00     0.168 HD
HETATM    6  C   UNL     1       7.956  24.089  56.757  1.00  0.00     0.048 A 
HETATM    7  C   UNL     1       7.443  24.298  55.463  1.00  0.00     0.031 A 
HETATM    8  C   UNL     1       8.368  22.812  57.170  1.00  0.00     0.030 A 
HETATM    9  C   UNL     1       8.274  21.729  56.297  1.00  0.00     0.002 A 
HETATM   10  C   UNL     1       7.778  21.916  55.010  1.00  0.00     0.001 A 
HETATM   11  C   UNL     1       7.370  23.185  54.594  1.00  0.00     0.017 A 
ENDROOT
BRANCH   3  12
HETATM   12  N   UNL     1       7.830  27.342  58.200  1.00  0.00    -0.262 NA
HETATM   13  H   UNL     1       7.316  27.153  59.056  1.00  0.00     0.130 HD
BRANCH  12  14
HETATM   14  C   UNL     1       7.591  28.714  57.721  1.00  0.00     0.100 C 
BRANCH  14  15
HETATM   15  C   UNL     1       8.755  29.617  58.148  1.00  0.00     0.053 C 
BRANCH  15  16
HETATM   16  C   UNL     1       8.368  30.561  59.257  1.00  0.00    -0.057 A 
HETATM   17  C   UNL     1       9.175  30.689  60.393  1.00  0.00     0.010 A 
HETATM   18  C   UNL     1       8.814  31.566  61.418  1.00  0.00     0.037 A 
HETATM   19  C   UNL     1       7.649  32.329  61.326  1.00  0.00     0.068 A 
HETATM   20  C   UNL     1       6.836  32.197  60.202  1.00  0.00     0.037 A 
HETATM   21  C   UNL     1       7.191  31.315  59.174  1.00  0.00     0.010 A 
BRANCH  19  22
HETATM   22  O   UNL     1       7.421  33.153  62.393  1.00  0.00    -0.356 OA
HETATM   23  C   UNL     1       6.336  34.067  62.281  1.00  0.00     0.210 C 
ENDBRANCH  19  22
ENDBRANCH  15  16
ENDBRANCH  14  15
ENDBRANCH  12  14
ENDBRANCH   3  12
BRANCH   1  24
HETATM   24  N   UNL     1       6.592  25.898  53.850  1.00  0.00    -0.273 NA
HETATM   25  H   UNL     1       7.143  25.439  53.128  1.00  0.00     0.129 HD
BRANCH  24  26
HETATM   26  C   UNL     1       5.152  25.810  53.581  1.00  0.00     0.053 C 
HETATM   27  C   UNL     1       4.867  24.828  52.448  1.00  0.00     0.026 C 
HETATM   28  C   UNL     1       4.663  27.208  53.197  1.00  0.00     0.026 C 
ENDBRANCH  24  26
ENDBRANCH   1  24
TORSDOF 7
ENDMDL
MODEL 8
REMARK VINA RESULT:      -8.2      3.952      9.335
REMARK  7 active torsions:
REMARK  status: ('A' for Active; 'I' for Inactive)
REMARK    1  A    between atoms: C_2  and  N_3 
REMARK    2  A    between atoms: N_3  and  C_4 
REMARK    3  A    between atoms: C_6  and  N_7 
REMARK    4  A    between atoms: N_7  and  C_8 
REMARK    5  A    between atoms: C_8  and  C_9 
REMARK    6  A    between atoms: C_9  and  C_10 
REMARK    7  A    between atoms: C_13  and  O_14 
ROOT
HETATM    1  C   UNL     1       6.732  31.951  59.113  1.00  0.00     0.119 A 
HETATM    2  N   UNL     1       7.162  30.930  58.349  1.00  0.00    -0.207 NA
HETATM    3  C   UNL     1       8.039  30.061  58.874  1.00  0.00     0.181 A 
HETATM    4  N   UNL     1       8.465  30.153  60.131  1.00  0.00    -0.330 N 
HETATM    5  H   UNL     1       9.074  29.418  60.467  1.00  0.00     0.168 HD
HETATM    6  C   UNL     1       8.057  31.135  60.941  1.00  0.00     0.048 A 
HETATM    7  C   UNL     1       7.153  32.097  60.451  1.00  0.00     0.031 A 
HETATM    8  C   UNL     1       8.524  31.193  62.263  1.00  0.00     0.030 A 
HETATM    9  C   UNL     1       8.095  32.211  63.114  1.00  0.00     0.002 A 
HETATM   10  C   UNL     1       7.195  33.167  62.653  1.00  0.00     0.001 A 
HETATM   11  C   UNL     1       6.725  33.111  61.339  1.00  0.00     0.017 A 
ENDROOT
BRANCH   3  12
HETATM   12  N   UNL     1       8.542  28.996  58.134  1.00  0.00    -0.262 NA
HETATM   13  H   UNL     1       9.073  29.287  57.320  1.00  0.00     0.130 HD
BRANCH  12  14
HETATM   14  C   UNL     1       7.554  27.960  57.792  1.00  0.00     0.100 C 
BRANCH  14  15
HETATM   15  C   UNL     1       7.782  27.489  56.350  1.00  0.00     0.053 C 
BRANCH  15  16
HETATM   16  C   UNL     1       7.759  25.988  56.229  1.00  0.00    -0.057 A 
HETATM   17  C   UNL     1       7.133  25.374  55.138  1.00  0.00     0.010 A 
HETATM   18  C   UNL     1       7.115  23.981  55.028  1.00  0.00     0.037 A 
HETATM   19  C   UNL     1       7.721  23.182  55.999  1.00  0.00     0.068 A 
HETATM   20  C   UNL     1       8.335  23.788  57.093  1.00  0.00     0.037 A 
HETATM   21  C   UNL     1       8.351  25.183  57.210  1.00  0.00     0.010 A 
BRANCH  19  22
HETATM   22  O   UNL     1       7.639  21.838  55.763  1.00  0.00    -0.356 OA
HETATM   23  C   UNL     1       8.691  21.029  56.276  1.00  0.00     0.210 C 
ENDBRANCH  19  22
ENDBRANCH  15  16
ENDBRANCH  14  15
ENDBRANCH  12  14
ENDBRANCH   3  12
BRANCH   1  24
HETATM   24  N   UNL     1       5.799  32.846  58.584  1.00  0.00    -0.273 NA
HETATM   25  H   UNL     1       6.219  33.493  57.921  1.00  0.00     0.129 HD
BRANCH  24  26
HETATM   26  C   UNL     1       4.507  32.336  58.110  1.00  0.00     0.053 C 
HETATM   27  C   UNL     1       3.790  33.378  57.254  1.00  0.00     0.026 C 
HETATM   28  C   UNL     1       3.661  31.997  59.339  1.00  0.00     0.026 C 
ENDBRANCH  24  26
ENDBRANCH   1  24
TORSDOF 7
ENDMDL
MODEL 9
REMARK VINA RESULT:      -8.0      3.717      9.237
REMARK  7 active torsions:
REMARK  status: ('A' for Active; 'I' for Inactive)
REMARK    1  A    between atoms: C_2  and  N_3 
REMARK    2  A    between atoms: N_3  and  C_4 
REMARK    3  A    between atoms: C_6  and  N_7 
REMARK    4  A    between atoms: N_7  and  C_8 
REMARK    5  A    between atoms: C_8  and  C_9 
REMARK    6  A    between atoms: C_9  and  C_10 
REMARK    7  A    between atoms: C_13  and  O_14 
ROOT
HETATM    1  C   UNL     1       7.427  31.005  58.866  1.00  0.00     0.119 A 
HETATM    2  N   UNL     1       8.143  29.882  58.673  1.00  0.00    -0.207 NA
HETATM    3  C   UNL     1       7.590  28.882  57.970  1.00  0.00     0.181 A 
HETATM    4  N   UNL     1       6.379  28.979  57.427  1.00  0.00    -0.330 N 
HETATM    5  H   UNL     1       6.066  28.205  56.857  1.00  0.00     0.168 HD
HETATM    6  C   UNL     1       5.632  30.079  57.570  1.00  0.00     0.048 A 
HETATM    7  C   UNL     1       6.138  31.160  58.314  1.00  0.00     0.031 A 
HETATM    8  C   UNL     1       4.362  30.145  56.976  1.00  0.00     0.030 A 
HETATM    9  C   UNL     1       3.582  31.293  57.115  1.00  0.00     0.002 A 
HETATM   10  C   UNL     1       4.067  32.377  57.839  1.00  0.00     0.001 A 
HETATM   11  C   UNL     1       5.332  32.317  58.430  1.00  0.00     0.017 A 
ENDROOT
BRANCH   3  12
HETATM   12  N   UNL     1       8.263  27.685  57.752  1.00  0.00    -0.262 NA
HETATM   13  H   UNL     1       9.166  27.807  57.303  1.00  0.00     0.130 HD
BRANCH  12  14
HETATM   14  C   UNL     1       7.467  26.640  57.087  1.00  0.00     0.100 C 
BRANCH  14  15
HETATM   15  C   UNL     1       8.132  25.274  57.302  1.00  0.00     0.053 C 
BRANCH  15  16
HETATM   16  C   UNL     1       8.032  24.392  56.085  1.00  0.00    -0.057 A 
HETATM   17  C   UNL     1       8.971  23.378  55.865  1.00  0.00     0.010 A 
HETATM   18  C   UNL     1       8.873  22.562  54.735  1.00  0.00     0.037 A 
HETATM   19  C   UNL     1       7.840  22.740  53.814  1.00  0.00     0.068 A 
HETATM   20  C   UNL     1       6.910  23.755  54.023  1.00  0.00     0.037 A 
HETATM   21  C   UNL     1       7.006  24.579  55.151  1.00  0.00     0.010 A 
BRANCH  19  22
HETATM   22  O   UNL     1       7.858  21.866  52.762  1.00  0.00    -0.356 OA
HETATM   23  C   UNL     1       8.016  20.487  53.074  1.00  0.00     0.210 C 
ENDBRANCH  19  22
ENDBRANCH  15  16
ENDBRANCH  14  15
ENDBRANCH  12  14
ENDBRANCH   3  12
BRANCH   1  24
HETATM   24  N   UNL     1       8.004  32.061  59.574  1.00  0.00    -0.273 NA
HETATM   25  H   UNL     1       7.652  32.967  59.271  1.00  0.00     0.129 HD
BRANCH  24  26
HETATM   26  C   UNL     1       8.106  31.972  61.036  1.00  0.00     0.053 C 
HETATM   27  C   UNL     1       7.399  33.149  61.705  1.00  0.00     0.026 C 
HETATM   28  C   UNL     1       9.591  31.977  61.402  1.00  0.00     0.026 C 
ENDBRANCH  24  26
ENDBRANCH   1  24
TORSDOF 7
ENDMDL
MODEL 10
REMARK VINA RESULT:      -8.0      3.044      6.597
REMARK  7 active torsions:
REMARK  status: ('A' for Active; 'I' for Inactive)
REMARK    1  A    between atoms: C_2  and  N_3 
REMARK    2  A    between atoms: N_3  and  C_4 
REMARK    3  A    between atoms: C_6  and  N_7 
REMARK    4  A    between atoms: N_7  and  C_8 
REMARK    5  A    between atoms: C_8  and  C_9 
REMARK    6  A    between atoms: C_9  and  C_10 
REMARK    7  A    between atoms: C_13  and  O_14 
ROOT
HETATM    1  C   UNL     1       7.204  27.522  57.473  1.00  0.00     0.119 A 
HETATM    2  N   UNL     1       6.052  28.104  57.091  1.00  0.00    -0.207 NA
HETATM    3  C   UNL     1       5.165  27.373  56.397  1.00  0.00     0.181 A 
HETATM    4  N   UNL     1       5.369  26.090  56.112  1.00  0.00    -0.330 N 
HETATM    5  H   UNL     1       4.619  25.597  55.645  1.00  0.00     0.168 HD
HETATM    6  C   UNL     1       6.485  25.456  56.484  1.00  0.00     0.048 A 
HETATM    7  C   UNL     1       7.472  26.165  57.195  1.00  0.00     0.031 A 
HETATM    8  C   UNL     1       6.659  24.100  56.169  1.00  0.00     0.030 A 
HETATM    9  C   UNL     1       7.819  23.433  56.562  1.00  0.00     0.002 A 
HETATM   10  C   UNL     1       8.803  24.112  57.274  1.00  0.00     0.001 A 
HETATM   11  C   UNL     1       8.633  25.462  57.592  1.00  0.00     0.017 A 
ENDROOT
BRANCH   3  12
HETATM   12  N   UNL     1       3.965  27.916  55.951  1.00  0.00    -0.262 NA
HETATM   13  H   UNL     1       3.240  27.221  55.803  1.00  0.00     0.130 HD
BRANCH  12  14
HETATM   14  C   UNL     1       4.086  28.824  54.799  1.00  0.00     0.100 C 
BRANCH  14  15
HETATM   15  C   UNL     1       3.782  28.057  53.506  1.00  0.00     0.053 C 
BRANCH  15  16
HETATM   16  C   UNL     1       4.866  27.070  53.159  1.00  0.00    -0.057 A 
HETATM   17  C   UNL     1       6.201  27.482  53.078  1.00  0.00     0.010 A 
HETATM   18  C   UNL     1       7.203  26.563  52.758  1.00  0.00     0.037 A 
HETATM   19  C   UNL     1       6.893  25.224  52.517  1.00  0.00     0.068 A 
HETATM   20  C   UNL     1       5.564  24.811  52.585  1.00  0.00     0.037 A 
HETATM   21  C   UNL     1       4.555  25.729  52.901  1.00  0.00     0.010 A 
BRANCH  19  22
HETATM   22  O   UNL     1       7.969  24.433  52.226  1.00  0.00    -0.356 OA
HETATM   23  C   UNL     1       7.997  23.140  52.820  1.00  0.00     0.210 C 
ENDBRANCH  19  22
ENDBRANCH  15  16
ENDBRANCH  14  15
ENDBRANCH  12  14
ENDBRANCH   3  12
BRANCH   1  24
HETATM   24  N   UNL     1       8.122  28.266  58.217  1.00  0.00    -0.273 NA
HETATM   25  H   UNL     1       8.841  27.682  58.639  1.00  0.00     0.129 HD
BRANCH  24  26
HETATM   26  C   UNL     1       8.683  29.495  57.640  1.00  0.00     0.053 C 
HETATM   27  C   UNL     1      10.062  29.236  57.038  1.00  0.00     0.026 C 
HETATM   28  C   UNL     1       8.787  30.531  58.761  1.00  0.00     0.026 C 
ENDBRANCH  24  26
ENDBRANCH   1  24
TORSDOF 7
ENDMDL
