MODEL 1
REMARK VINA RESULT:     -11.0      0.000      0.000
REMARK  5 active torsions:
REMARK  status: ('A' for Active; 'I' for Inactive)
REMARK    1  A    between atoms: C_8  and  C_9 
REMARK    2  A    between atoms: N_10  and  N_11 
REMARK    3  A    between atoms: C_22  and  C_23 
REMARK       I    between atoms: C_23  and  N_24 
REMARK    4  A    between atoms: N_24  and  C_25 
REMARK    5  A    between atoms: C_33  and  N_34 
ROOT
HETATM    1  N   UNL     1       6.038  25.977  53.158  1.00  0.00    -0.197 N 
HETATM    2  C   UNL     1       6.520  24.745  53.574  1.00  0.00     0.183 A 
HETATM    3  C   UNL     1       6.440  24.712  54.957  1.00  0.00     0.125 A 
HETATM    4  N   UNL     1       6.902  23.653  55.677  1.00  0.00    -0.242 NA
HETATM    5  C   UNL     1       7.411  22.656  54.933  1.00  0.00     0.086 A 
HETATM    6  C   UNL     1       7.480  22.712  53.514  1.00  0.00     0.088 A 
HETATM    7  N   UNL     1       7.041  23.761  52.803  1.00  0.00    -0.225 NA
HETATM    8  C   UNL     1       7.898  21.531  55.587  1.00  0.00     0.034 A 
HETATM    9  C   UNL     1       8.453  20.462  54.885  1.00  0.00     0.002 A 
HETATM   10  C   UNL     1       8.523  20.516  53.500  1.00  0.00     0.002 A 
HETATM   11  C   UNL     1       8.036  21.638  52.830  1.00  0.00     0.034 A 
HETATM   12  C   UNL     1       5.899  25.942  55.410  1.00  0.00     0.110 C 
HETATM   13  C   UNL     1       5.556  26.657  54.273  1.00  0.00     0.143 C 
ENDROOT
BRANCH   1  14
HETATM   14  N   UNL     1       6.081  26.550  51.910  1.00  0.00    -0.176 NA
HETATM   15  C   UNL     1       4.948  26.479  51.291  1.00  0.00     0.153 C 
BRANCH  15  16
HETATM   16  C   UNL     1       4.840  26.950  49.927  1.00  0.00     0.011 A 
HETATM   17  C   UNL     1       4.944  28.308  49.485  1.00  0.00     0.004 A 
HETATM   18  C   UNL     1       5.176  29.541  50.133  1.00  0.00     0.014 A 
HETATM   19  C   UNL     1       4.726  28.316  48.106  1.00  0.00     0.043 A 
HETATM   20  C   UNL     1       5.179  30.724  49.387  1.00  0.00     0.001 A 
HETATM   21  C   UNL     1       4.958  30.697  48.013  1.00  0.00     0.002 A 
HETATM   22  C   UNL     1       4.729  29.490  47.344  1.00  0.00     0.030 A 
HETATM   23  N   UNL     1       4.517  27.009  47.723  1.00  0.00    -0.364 N 
HETATM   24  H   UNL     1       4.329  26.714  46.775  1.00  0.00     0.165 HD
HETATM   25  C   UNL     1       4.571  26.182  48.812  1.00  0.00     0.102 A 
ENDBRANCH  15  16
ENDBRANCH   1  14
BRANCH  13  26
HETATM   26  N   UNL     1       4.995  27.884  54.147  1.00  0.00    -0.383 N 
HETATM   27  H   UNL     1       4.238  28.054  53.484  1.00  0.00     0.157 HD
HETATM   28  H   UNL     1       5.473  28.713  54.499  1.00  0.00     0.157 HD
ENDBRANCH  13  26
BRANCH  12  29
HETATM   29  C   UNL     1       5.848  26.445  56.775  1.00  0.00     0.262 C 
HETATM   30  N   UNL     1       7.095  26.470  57.384  1.00  0.00    -0.323 N 
HETATM   31  H   UNL     1       7.682  25.672  57.145  1.00  0.00     0.169 HD
HETATM   32  O   UNL     1       4.835  26.920  57.281  1.00  0.00    -0.267 OA
BRANCH  30  33
HETATM   33  C   UNL     1       7.839  27.681  57.402  1.00  0.00     0.035 A 
HETATM   34  C   UNL     1       9.077  27.818  56.764  1.00  0.00     0.031 A 
HETATM   35  C   UNL     1       9.839  28.976  56.950  1.00  0.00     0.026 A 
HETATM   36  C   UNL     1       9.357  30.002  57.758  1.00  0.00     0.034 A 
HETATM   37 CL   UNL     1      10.314  31.407  58.019  1.00  0.00    -0.084 Cl
HETATM   38  C   UNL     1       8.110  29.891  58.367  1.00  0.00     0.026 A 
HETATM   39  C   UNL     1       7.350  28.732  58.187  1.00  0.00     0.031 A 
ENDBRANCH  30  33
ENDBRANCH  12  29
TORSDOF 5
ENDMDL
MODEL 2
REMARK VINA RESULT:     -10.8      3.883      9.315
REMARK  5 active torsions:
REMARK  status: ('A' for Active; 'I' for Inactive)
REMARK    1  A    between atoms: C_8  and  C_9 
REMARK    2  A    between atoms: N_10  and  N_11 
REMARK    3  A    between atoms: C_22  and  C_23 
REMARK       I    between atoms: C_23  and  N_24 
REMARK    4  A    between atoms: N_24  and  C_25 
REMARK    5  A    between atoms: C_33  and  N_34 
ROOT
HETATM    1  N   UNL     1       5.154  26.309  53.751  1.00  0.00    -0.197 N 
HETATM    2  C   UNL     1       4.662  27.575  54.034  1.00  0.00     0.183 A 
HETATM    3  C   UNL     1       4.599  28.273  52.839  1.00  0.00     0.125 A 
HETATM    4  N   UNL     1       4.216  29.579  52.790  1.00  0.00    -0.242 NA
HETATM    5  C   UNL     1       3.890  30.106  53.983  1.00  0.00     0.086 A 
HETATM    6  C   UNL     1       3.960  29.369  55.196  1.00  0.00     0.088 A 
HETATM    7  N   UNL     1       4.354  28.086  55.249  1.00  0.00    -0.225 NA
HETATM    8  C   UNL     1       3.480  31.432  54.025  1.00  0.00     0.034 A 
HETATM    9  C   UNL     1       3.138  32.053  55.226  1.00  0.00     0.002 A 
HETATM   10  C   UNL     1       3.208  31.334  56.412  1.00  0.00     0.002 A 
HETATM   11  C   UNL     1       3.617  30.001  56.385  1.00  0.00     0.034 A 
HETATM   12  C   UNL     1       5.058  27.430  51.795  1.00  0.00     0.110 C 
HETATM   13  C   UNL     1       5.285  26.190  52.370  1.00  0.00     0.143 C 
ENDROOT
BRANCH   1  14
HETATM   14  N   UNL     1       5.562  25.323  54.616  1.00  0.00    -0.176 NA
HETATM   15  C   UNL     1       6.827  25.383  54.878  1.00  0.00     0.153 C 
BRANCH  15  16
HETATM   16  C   UNL     1       7.443  24.363  55.698  1.00  0.00     0.011 A 
HETATM   17  C   UNL     1       7.743  23.019  55.304  1.00  0.00     0.004 A 
HETATM   18  C   UNL     1       7.583  22.283  54.110  1.00  0.00     0.014 A 
HETATM   19  C   UNL     1       8.280  22.368  56.416  1.00  0.00     0.043 A 
HETATM   20  C   UNL     1       7.960  20.936  54.072  1.00  0.00     0.001 A 
HETATM   21  C   UNL     1       8.492  20.317  55.199  1.00  0.00     0.002 A 
HETATM   22  C   UNL     1       8.665  21.023  56.395  1.00  0.00     0.030 A 
HETATM   23  N   UNL     1       8.322  23.288  57.441  1.00  0.00    -0.364 N 
HETATM   24  H   UNL     1       8.663  23.091  58.372  1.00  0.00     0.165 HD
HETATM   25  C   UNL     1       7.810  24.485  57.024  1.00  0.00     0.102 A 
ENDBRANCH  15  16
ENDBRANCH   1  14
BRANCH  13  26
HETATM   26  N   UNL     1       5.719  25.033  51.814  1.00  0.00    -0.383 N 
HETATM   27  H   UNL     1       5.745  24.910  50.801  1.00  0.00     0.157 HD
HETATM   28  H   UNL     1       5.776  24.179  52.367  1.00  0.00     0.157 HD
ENDBRANCH  13  26
BRANCH  12  29
HETATM   29  C   UNL     1       5.384  27.802  50.426  1.00  0.00     0.262 C 
HETATM   30  N   UNL     1       5.122  26.787  49.517  1.00  0.00    -0.323 N 
HETATM   31  H   UNL     1       5.342  25.856  49.870  1.00  0.00     0.169 HD
HETATM   32  O   UNL     1       5.726  28.935  50.099  1.00  0.00    -0.267 OA
BRANCH  30  33
HETATM   33  C   UNL     1       3.898  26.797  48.793  1.00  0.00     0.035 A 
HETATM   34  C   UNL     1       3.644  25.929  47.726  1.00  0.00     0.031 A 
HETATM   35  C   UNL     1       2.494  26.091  46.947  1.00  0.00     0.026 A 
HETATM   36  C   UNL     1       1.590  27.107  47.246  1.00  0.00     0.034 A 
HETATM   37 CL   UNL     1       0.198  27.332  46.262  1.00  0.00    -0.084 Cl
HETATM   38  C   UNL     1       1.816  27.953  48.330  1.00  0.00     0.026 A 
HETATM   39  C   UNL     1       2.968  27.796  49.105  1.00  0.00     0.031 A 
ENDBRANCH  30  33
ENDBRANCH  12  29
TORSDOF 5
ENDMDL
MODEL 3
REMARK VINA RESULT:     -10.5      3.784      7.595
REMARK  5 active torsions:
REMARK  status: ('A' for Active; 'I' for Inactive)
REMARK    1  A    between atoms: C_8  and  C_9 
REMARK    2  A    between atoms: N_10  and  N_11 
REMARK    3  A    between atoms: C_22  and  C_23 
REMARK       I    between atoms: C_23  and  N_24 
REMARK    4  A    between atoms: N_24  and  C_25 
REMARK    5  A    between atoms: C_33  and  N_34 
ROOT
HETATM    1  N   UNL     1       6.038  28.540  56.039  1.00  0.00    -0.197 N 
HETATM    2  C   UNL     1       6.845  29.310  56.863  1.00  0.00     0.183 A 
HETATM    3  C   UNL     1       6.011  30.092  57.647  1.00  0.00     0.125 A 
HETATM    4  N   UNL     1       6.504  31.013  58.520  1.00  0.00    -0.242 NA
HETATM    5  C   UNL     1       7.846  31.073  58.564  1.00  0.00     0.086 A 
HETATM    6  C   UNL     1       8.681  30.258  57.752  1.00  0.00     0.088 A 
HETATM    7  N   UNL     1       8.198  29.361  56.878  1.00  0.00    -0.225 NA
HETATM    8  C   UNL     1       8.435  31.980  59.436  1.00  0.00     0.034 A 
HETATM    9  C   UNL     1       9.821  32.109  59.529  1.00  0.00     0.002 A 
HETATM   10  C   UNL     1      10.636  31.316  58.735  1.00  0.00     0.002 A 
HETATM   11  C   UNL     1      10.059  30.399  57.857  1.00  0.00     0.034 A 
HETATM   12  C   UNL     1       4.665  29.804  57.306  1.00  0.00     0.110 C 
HETATM   13  C   UNL     1       4.711  28.763  56.393  1.00  0.00     0.143 C 
ENDROOT
BRANCH   1  14
HETATM   14  N   UNL     1       6.391  27.749  54.972  1.00  0.00    -0.176 NA
HETATM   15  C   UNL     1       6.762  26.564  55.332  1.00  0.00     0.153 C 
BRANCH  15  16
HETATM   16  C   UNL     1       7.256  25.631  54.343  1.00  0.00     0.011 A 
HETATM   17  C   UNL     1       7.457  24.224  54.524  1.00  0.00     0.004 A 
HETATM   18  C   UNL     1       7.258  23.331  55.599  1.00  0.00     0.014 A 
HETATM   19  C   UNL     1       7.994  23.723  53.337  1.00  0.00     0.043 A 
HETATM   20  C   UNL     1       7.601  21.983  55.450  1.00  0.00     0.001 A 
HETATM   21  C   UNL     1       8.135  21.515  54.253  1.00  0.00     0.002 A 
HETATM   22  C   UNL     1       8.340  22.377  53.170  1.00  0.00     0.030 A 
HETATM   23  N   UNL     1       8.097  24.782  52.462  1.00  0.00    -0.364 N 
HETATM   24  H   UNL     1       8.460  24.713  51.521  1.00  0.00     0.165 HD
HETATM   25  C   UNL     1       7.669  25.934  53.061  1.00  0.00     0.102 A 
ENDBRANCH  15  16
ENDBRANCH   1  14
BRANCH  13  26
HETATM   26  N   UNL     1       3.707  28.106  55.763  1.00  0.00    -0.383 N 
HETATM   27  H   UNL     1       3.668  27.086  55.749  1.00  0.00     0.157 HD
HETATM   28  H   UNL     1       3.126  28.583  55.075  1.00  0.00     0.157 HD
ENDBRANCH  13  26
BRANCH  12  29
HETATM   29  C   UNL     1       3.470  30.538  57.696  1.00  0.00     0.262 C 
HETATM   30  N   UNL     1       3.389  30.742  59.066  1.00  0.00    -0.323 N 
HETATM   31  H   UNL     1       3.715  29.949  59.617  1.00  0.00     0.169 HD
HETATM   32  O   UNL     1       2.692  31.037  56.887  1.00  0.00    -0.267 OA
BRANCH  30  33
HETATM   33  C   UNL     1       3.829  31.977  59.616  1.00  0.00     0.035 A 
HETATM   34  C   UNL     1       4.195  32.120  60.959  1.00  0.00     0.031 A 
HETATM   35  C   UNL     1       4.462  33.388  61.483  1.00  0.00     0.026 A 
HETATM   36  C   UNL     1       4.381  34.510  60.662  1.00  0.00     0.034 A 
HETATM   37 CL   UNL     1       4.668  36.074  61.318  1.00  0.00    -0.084 Cl
HETATM   38  C   UNL     1       4.053  34.374  59.315  1.00  0.00     0.026 A 
HETATM   39  C   UNL     1       3.780  33.108  58.791  1.00  0.00     0.031 A 
ENDBRANCH  30  33
ENDBRANCH  12  29
TORSDOF 5
ENDMDL
MODEL 4
REMARK VINA RESULT:     -10.5      3.699      7.262
REMARK  5 active torsions:
REMARK  status: ('A' for Active; 'I' for Inactive)
REMARK    1  A    between atoms: C_8  and  C_9 
REMARK    2  A    between atoms: N_10  and  N_11 
REMARK    3  A    between atoms: C_22  and  C_23 
REMARK       I    between atoms: C_23  and  N_24 
REMARK    4  A    between atoms: N_24  and  C_25 
REMARK    5  A    between atoms: C_33  and  N_34 
ROOT
HETATM    1  N   UNL     1       6.253  27.965  55.894  1.00  0.00    -0.197 N 
HETATM    2  C   UNL     1       7.271  28.677  56.510  1.00  0.00     0.183 A 
HETATM    3  C   UNL     1       6.678  29.624  57.330  1.00  0.00     0.125 A 
HETATM    4  N   UNL     1       7.416  30.533  58.026  1.00  0.00    -0.242 NA
HETATM    5  C   UNL     1       8.745  30.411  57.863  1.00  0.00     0.086 A 
HETATM    6  C   UNL     1       9.330  29.430  57.017  1.00  0.00     0.088 A 
HETATM    7  N   UNL     1       8.605  28.544  56.316  1.00  0.00    -0.225 NA
HETATM    8  C   UNL     1       9.574  31.293  58.544  1.00  0.00     0.034 A 
HETATM    9  C   UNL     1      10.962  31.237  58.416  1.00  0.00     0.002 A 
HETATM   10  C   UNL     1      11.534  30.281  57.588  1.00  0.00     0.002 A 
HETATM   11  C   UNL     1      10.714  29.387  56.900  1.00  0.00     0.034 A 
HETATM   12  C   UNL     1       5.270  29.499  57.225  1.00  0.00     0.110 C 
HETATM   13  C   UNL     1       5.038  28.394  56.420  1.00  0.00     0.143 C 
ENDROOT
BRANCH   1  14
HETATM   14  N   UNL     1       6.329  27.054  54.868  1.00  0.00    -0.176 NA
HETATM   15  C   UNL     1       7.050  26.023  55.169  1.00  0.00     0.153 C 
BRANCH  15  16
HETATM   16  C   UNL     1       7.312  25.010  54.171  1.00  0.00     0.011 A 
HETATM   17  C   UNL     1       7.489  23.608  54.407  1.00  0.00     0.004 A 
HETATM   18  C   UNL     1       7.464  22.791  55.558  1.00  0.00     0.014 A 
HETATM   19  C   UNL     1       7.773  23.011  53.178  1.00  0.00     0.043 A 
HETATM   20  C   UNL     1       7.722  21.422  55.440  1.00  0.00     0.001 A 
HETATM   21  C   UNL     1       8.001  20.858  54.198  1.00  0.00     0.002 A 
HETATM   22  C   UNL     1       8.030  21.642  53.041  1.00  0.00     0.030 A 
HETATM   23  N   UNL     1       7.749  24.009  52.229  1.00  0.00    -0.364 N 
HETATM   24  H   UNL     1       7.925  23.867  51.244  1.00  0.00     0.165 HD
HETATM   25  C   UNL     1       7.486  25.216  52.817  1.00  0.00     0.102 A 
ENDBRANCH  15  16
ENDBRANCH   1  14
BRANCH  13  26
HETATM   26  N   UNL     1       3.873  27.836  56.015  1.00  0.00    -0.383 N 
HETATM   27  H   UNL     1       3.717  26.829  56.079  1.00  0.00     0.157 HD
HETATM   28  H   UNL     1       3.238  28.346  55.401  1.00  0.00     0.157 HD
ENDBRANCH  13  26
BRANCH  12  29
HETATM   29  C   UNL     1       4.253  30.418  57.717  1.00  0.00     0.262 C 
HETATM   30  N   UNL     1       4.773  31.657  58.063  1.00  0.00    -0.323 N 
HETATM   31  H   UNL     1       5.688  31.606  58.509  1.00  0.00     0.169 HD
HETATM   32  O   UNL     1       3.052  30.165  57.698  1.00  0.00    -0.267 OA
BRANCH  30  33
HETATM   33  C   UNL     1       4.704  32.728  57.131  1.00  0.00     0.035 A 
HETATM   34  C   UNL     1       4.795  32.534  55.748  1.00  0.00     0.031 A 
HETATM   35  C   UNL     1       4.886  33.634  54.889  1.00  0.00     0.026 A 
HETATM   36  C   UNL     1       4.868  34.925  55.410  1.00  0.00     0.034 A 
HETATM   37 CL   UNL     1       5.022  36.276  54.356  1.00  0.00    -0.084 Cl
HETATM   38  C   UNL     1       4.740  35.129  56.782  1.00  0.00     0.026 A 
HETATM   39  C   UNL     1       4.655  34.031  57.642  1.00  0.00     0.031 A 
ENDBRANCH  30  33
ENDBRANCH  12  29
TORSDOF 5
ENDMDL
MODEL 5
REMARK VINA RESULT:     -10.4      2.974      7.320
REMARK  5 active torsions:
REMARK  status: ('A' for Active; 'I' for Inactive)
REMARK    1  A    between atoms: C_8  and  C_9 
REMARK    2  A    between atoms: N_10  and  N_11 
REMARK    3  A    between atoms: C_22  and  C_23 
REMARK       I    between atoms: C_23  and  N_24 
REMARK    4  A    between atoms: N_24  and  C_25 
REMARK    5  A    between atoms: C_33  and  N_34 
ROOT
HETATM    1  N   UNL     1       5.821  27.209  51.986  1.00  0.00    -0.197 N 
HETATM    2  C   UNL     1       5.026  27.105  50.854  1.00  0.00     0.183 A 
HETATM    3  C   UNL     1       4.387  28.322  50.682  1.00  0.00     0.125 A 
HETATM    4  N   UNL     1       3.478  28.521  49.688  1.00  0.00    -0.242 NA
HETATM    5  C   UNL     1       3.282  27.454  48.894  1.00  0.00     0.086 A 
HETATM    6  C   UNL     1       3.952  26.215  49.090  1.00  0.00     0.088 A 
HETATM    7  N   UNL     1       4.836  26.011  50.079  1.00  0.00    -0.225 NA
HETATM    8  C   UNL     1       2.376  27.571  47.848  1.00  0.00     0.034 A 
HETATM    9  C   UNL     1       2.110  26.504  46.989  1.00  0.00     0.002 A 
HETATM   10  C   UNL     1       2.762  25.294  47.181  1.00  0.00     0.002 A 
HETATM   11  C   UNL     1       3.676  25.162  48.226  1.00  0.00     0.034 A 
HETATM   12  C   UNL     1       4.791  29.199  51.721  1.00  0.00     0.110 C 
HETATM   13  C   UNL     1       5.761  28.522  52.444  1.00  0.00     0.143 C 
ENDROOT
BRANCH   1  14
HETATM   14  N   UNL     1       6.501  26.225  52.663  1.00  0.00    -0.176 NA
HETATM   15  C   UNL     1       5.816  25.731  53.642  1.00  0.00     0.153 C 
BRANCH  15  16
HETATM   16  C   UNL     1       6.416  24.750  54.519  1.00  0.00     0.011 A 
HETATM   17  C   UNL     1       7.071  23.540  54.122  1.00  0.00     0.004 A 
HETATM   18  C   UNL     1       7.354  22.935  52.878  1.00  0.00     0.014 A 
HETATM   19  C   UNL     1       7.451  22.869  55.285  1.00  0.00     0.043 A 
HETATM   20  C   UNL     1       7.998  21.694  52.843  1.00  0.00     0.001 A 
HETATM   21  C   UNL     1       8.363  21.051  54.023  1.00  0.00     0.002 A 
HETATM   22  C   UNL     1       8.098  21.628  55.269  1.00  0.00     0.030 A 
HETATM   23  N   UNL     1       7.057  23.651  56.349  1.00  0.00    -0.364 N 
HETATM   24  H   UNL     1       7.200  23.410  57.320  1.00  0.00     0.165 HD
HETATM   25  C   UNL     1       6.424  24.777  55.900  1.00  0.00     0.102 A 
ENDBRANCH  15  16
ENDBRANCH   1  14
BRANCH  13  26
HETATM   26  N   UNL     1       6.476  28.911  53.527  1.00  0.00    -0.383 N 
HETATM   27  H   UNL     1       6.015  29.181  54.396  1.00  0.00     0.157 HD
HETATM   28  H   UNL     1       7.449  29.200  53.431  1.00  0.00     0.157 HD
ENDBRANCH  13  26
BRANCH  12  29
HETATM   29  C   UNL     1       4.212  30.486  52.078  1.00  0.00     0.262 C 
HETATM   30  N   UNL     1       3.149  30.370  52.962  1.00  0.00    -0.323 N 
HETATM   31  H   UNL     1       2.552  29.563  52.780  1.00  0.00     0.169 HD
HETATM   32  O   UNL     1       4.698  31.561  51.738  1.00  0.00    -0.267 OA
BRANCH  30  33
HETATM   33  C   UNL     1       3.376  30.549  54.354  1.00  0.00     0.035 A 
HETATM   34  C   UNL     1       3.703  29.490  55.209  1.00  0.00     0.031 A 
HETATM   35  C   UNL     1       3.754  29.695  56.592  1.00  0.00     0.026 A 
HETATM   36  C   UNL     1       3.497  30.959  57.117  1.00  0.00     0.034 A 
HETATM   37 CL   UNL     1       3.520  31.199  58.820  1.00  0.00    -0.084 Cl
HETATM   38  C   UNL     1       3.208  32.027  56.271  1.00  0.00     0.026 A 
HETATM   39  C   UNL     1       3.150  31.822  54.890  1.00  0.00     0.031 A 
ENDBRANCH  30  33
ENDBRANCH  12  29
TORSDOF 5
ENDMDL
MODEL 6
REMARK VINA RESULT:     -10.4      4.266      8.377
REMARK  5 active torsions:
REMARK  status: ('A' for Active; 'I' for Inactive)
REMARK    1  A    between atoms: C_8  and  C_9 
REMARK    2  A    between atoms: N_10  and  N_11 
REMARK    3  A    between atoms: C_22  and  C_23 
REMARK       I    between atoms: C_23  and  N_24 
REMARK    4  A    between atoms: N_24  and  C_25 
REMARK    5  A    between atoms: C_33  and  N_34 
ROOT
HETATM    1  N   UNL     1       6.939  29.072  56.825  1.00  0.00    -0.197 N 
HETATM    2  C   UNL     1       7.247  29.836  57.940  1.00  0.00     0.183 A 
HETATM    3  C   UNL     1       6.438  30.961  57.909  1.00  0.00     0.125 A 
HETATM    4  N   UNL     1       6.549  31.950  58.839  1.00  0.00    -0.242 NA
HETATM    5  C   UNL     1       7.480  31.723  59.781  1.00  0.00     0.086 A 
HETATM    6  C   UNL     1       8.297  30.559  59.793  1.00  0.00     0.088 A 
HETATM    7  N   UNL     1       8.202  29.592  58.868  1.00  0.00    -0.225 NA
HETATM    8  C   UNL     1       7.653  32.677  60.776  1.00  0.00     0.034 A 
HETATM    9  C   UNL     1       8.608  32.519  61.780  1.00  0.00     0.002 A 
HETATM   10  C   UNL     1       9.408  31.384  61.791  1.00  0.00     0.002 A 
HETATM   11  C   UNL     1       9.243  30.417  60.800  1.00  0.00     0.034 A 
HETATM   12  C   UNL     1       5.613  30.896  56.758  1.00  0.00     0.110 C 
HETATM   13  C   UNL     1       5.863  29.666  56.170  1.00  0.00     0.143 C 
ENDROOT
BRANCH   1  14
HETATM   14  N   UNL     1       7.586  27.969  56.322  1.00  0.00    -0.176 NA
HETATM   15  C   UNL     1       7.141  26.861  56.817  1.00  0.00     0.153 C 
BRANCH  15  16
HETATM   16  C   UNL     1       7.773  25.608  56.468  1.00  0.00     0.011 A 
HETATM   17  C   UNL     1       7.682  24.930  55.209  1.00  0.00     0.004 A 
HETATM   18  C   UNL     1       7.032  25.204  53.987  1.00  0.00     0.014 A 
HETATM   19  C   UNL     1       8.398  23.738  55.325  1.00  0.00     0.043 A 
HETATM   20  C   UNL     1       7.119  24.285  52.936  1.00  0.00     0.001 A 
HETATM   21  C   UNL     1       7.842  23.105  53.084  1.00  0.00     0.002 A 
HETATM   22  C   UNL     1       8.499  22.809  54.283  1.00  0.00     0.030 A 
HETATM   23  N   UNL     1       8.921  23.703  56.599  1.00  0.00    -0.364 N 
HETATM   24  H   UNL     1       9.486  22.948  56.965  1.00  0.00     0.165 HD
HETATM   25  C   UNL     1       8.541  24.815  57.297  1.00  0.00     0.102 A 
ENDBRANCH  15  16
ENDBRANCH   1  14
BRANCH  13  26
HETATM   26  N   UNL     1       5.333  29.103  55.058  1.00  0.00    -0.383 N 
HETATM   27  H   UNL     1       4.773  29.651  54.403  1.00  0.00     0.157 HD
HETATM   28  H   UNL     1       5.247  28.091  54.978  1.00  0.00     0.157 HD
ENDBRANCH  13  26
BRANCH  12  29
HETATM   29  C   UNL     1       4.781  31.951  56.195  1.00  0.00     0.262 C 
HETATM   30  N   UNL     1       3.646  32.200  56.953  1.00  0.00    -0.323 N 
HETATM   31  H   UNL     1       3.225  31.359  57.346  1.00  0.00     0.169 HD
HETATM   32  O   UNL     1       5.119  32.633  55.232  1.00  0.00    -0.267 OA
BRANCH  30  33
HETATM   33  C   UNL     1       3.653  33.269  57.890  1.00  0.00     0.035 A 
HETATM   34  C   UNL     1       3.907  34.595  57.522  1.00  0.00     0.031 A 
HETATM   35  C   UNL     1       4.063  35.579  58.504  1.00  0.00     0.026 A 
HETATM   36  C   UNL     1       3.946  35.241  59.850  1.00  0.00     0.034 A 
HETATM   37 CL   UNL     1       4.179  36.443  61.058  1.00  0.00    -0.084 Cl
HETATM   38  C   UNL     1       3.656  33.931  60.224  1.00  0.00     0.026 A 
HETATM   39  C   UNL     1       3.506  32.946  59.244  1.00  0.00     0.031 A 
ENDBRANCH  30  33
ENDBRANCH  12  29
TORSDOF 5
ENDMDL
MODEL 7
REMARK VINA RESULT:     -10.2      1.827      2.579
REMARK  5 active torsions:
REMARK  status: ('A' for Active; 'I' for Inactive)
REMARK    1  A    between atoms: C_8  and  C_9 
REMARK    2  A    between atoms: N_10  and  N_11 
REMARK    3  A    between atoms: C_22  and  C_23 
REMARK       I    between atoms: C_23  and  N_24 
REMARK    4  A    between atoms: N_24  and  C_25 
REMARK    5  A    between atoms: C_33  and  N_34 
ROOT
HETATM    1  N   UNL     1       5.208  28.154  53.141  1.00  0.00    -0.197 N 
HETATM    2  C   UNL     1       5.734  26.918  53.485  1.00  0.00     0.183 A 
HETATM    3  C   UNL     1       5.739  26.839  54.868  1.00  0.00     0.125 A 
HETATM    4  N   UNL     1       6.262  25.765  55.523  1.00  0.00    -0.242 NA
HETATM    5  C   UNL     1       6.740  24.802  54.716  1.00  0.00     0.086 A 
HETATM    6  C   UNL     1       6.722  24.906  53.299  1.00  0.00     0.088 A 
HETATM    7  N   UNL     1       6.223  25.970  52.651  1.00  0.00    -0.225 NA
HETATM    8  C   UNL     1       7.285  23.666  55.302  1.00  0.00     0.034 A 
HETATM    9  C   UNL     1       7.813  22.630  54.531  1.00  0.00     0.002 A 
HETATM   10  C   UNL     1       7.798  22.731  53.147  1.00  0.00     0.002 A 
HETATM   11  C   UNL     1       7.252  23.865  52.546  1.00  0.00     0.034 A 
HETATM   12  C   UNL     1       5.207  28.043  55.395  1.00  0.00     0.110 C 
HETATM   13  C   UNL     1       4.783  28.788  54.306  1.00  0.00     0.143 C 
ENDROOT
BRANCH   1  14
HETATM   14  N   UNL     1       5.164  28.768  51.913  1.00  0.00    -0.176 NA
HETATM   15  C   UNL     1       4.097  28.471  51.245  1.00  0.00     0.153 C 
BRANCH  15  16
HETATM   16  C   UNL     1       3.934  28.957  49.892  1.00  0.00     0.011 A 
HETATM   17  C   UNL     1       2.868  28.632  48.993  1.00  0.00     0.004 A 
HETATM   18  C   UNL     1       1.713  27.825  49.085  1.00  0.00     0.014 A 
HETATM   19  C   UNL     1       3.132  29.274  47.783  1.00  0.00     0.043 A 
HETATM   20  C   UNL     1       0.874  27.690  47.974  1.00  0.00     0.001 A 
HETATM   21  C   UNL     1       1.166  28.346  46.781  1.00  0.00     0.002 A 
HETATM   22  C   UNL     1       2.302  29.153  46.663  1.00  0.00     0.030 A 
HETATM   23  N   UNL     1       4.304  29.979  47.947  1.00  0.00    -0.364 N 
HETATM   24  H   UNL     1       4.741  30.539  47.228  1.00  0.00     0.165 HD
HETATM   25  C   UNL     1       4.801  29.785  49.207  1.00  0.00     0.102 A 
ENDBRANCH  15  16
ENDBRANCH   1  14
BRANCH  13  26
HETATM   26  N   UNL     1       4.196  30.008  54.255  1.00  0.00    -0.383 N 
HETATM   27  H   UNL     1       4.583  30.758  53.682  1.00  0.00     0.157 HD
HETATM   28  H   UNL     1       3.528  30.293  54.970  1.00  0.00     0.157 HD
ENDBRANCH  13  26
BRANCH  12  29
HETATM   29  C   UNL     1       5.231  28.500  56.777  1.00  0.00     0.262 C 
HETATM   30  N   UNL     1       6.221  27.883  57.528  1.00  0.00    -0.323 N 
HETATM   31  H   UNL     1       6.349  26.897  57.304  1.00  0.00     0.169 HD
HETATM   32  O   UNL     1       4.540  29.426  57.192  1.00  0.00    -0.267 OA
BRANCH  30  33
HETATM   33  C   UNL     1       7.466  28.542  57.719  1.00  0.00     0.035 A 
HETATM   34  C   UNL     1       7.604  29.678  58.524  1.00  0.00     0.031 A 
HETATM   35  C   UNL     1       8.814  30.381  58.546  1.00  0.00     0.026 A 
HETATM   36  C   UNL     1       9.888  29.937  57.779  1.00  0.00     0.034 A 
HETATM   37 CL   UNL     1      11.361  30.825  57.774  1.00  0.00    -0.084 Cl
HETATM   38  C   UNL     1       9.771  28.786  57.003  1.00  0.00     0.026 A 
HETATM   39  C   UNL     1       8.562  28.087  56.976  1.00  0.00     0.031 A 
ENDBRANCH  30  33
ENDBRANCH  12  29
TORSDOF 5
ENDMDL
MODEL 8
REMARK VINA RESULT:     -10.1      3.667      8.175
REMARK  5 active torsions:
REMARK  status: ('A' for Active; 'I' for Inactive)
REMARK    1  A    between atoms: C_8  and  C_9 
REMARK    2  A    between atoms: N_10  and  N_11 
REMARK    3  A    between atoms: C_22  and  C_23 
REMARK       I    between atoms: C_23  and  N_24 
REMARK    4  A    between atoms: N_24  and  C_25 
REMARK    5  A    between atoms: C_33  and  N_34 
ROOT
HETATM    1  N   UNL     1       6.228  28.564  56.731  1.00  0.00    -0.197 N 
HETATM    2  C   UNL     1       6.673  29.454  57.697  1.00  0.00     0.183 A 
HETATM    3  C   UNL     1       5.715  30.448  57.818  1.00  0.00     0.125 A 
HETATM    4  N   UNL     1       5.891  31.516  58.645  1.00  0.00    -0.242 NA
HETATM    5  C   UNL     1       7.045  31.500  59.334  1.00  0.00     0.086 A 
HETATM    6  C   UNL     1       8.011  30.467  59.195  1.00  0.00     0.088 A 
HETATM    7  N   UNL     1       7.849  29.422  58.368  1.00  0.00    -0.225 NA
HETATM    8  C   UNL     1       7.301  32.548  60.209  1.00  0.00     0.034 A 
HETATM    9  C   UNL     1       8.482  32.608  60.949  1.00  0.00     0.002 A 
HETATM   10  C   UNL     1       9.427  31.601  60.812  1.00  0.00     0.002 A 
HETATM   11  C   UNL     1       9.182  30.541  59.939  1.00  0.00     0.034 A 
HETATM   12  C   UNL     1       4.658  30.174  56.914  1.00  0.00     0.110 C 
HETATM   13  C   UNL     1       4.948  28.946  56.340  1.00  0.00     0.143 C 
ENDROOT
BRANCH   1  14
HETATM   14  N   UNL     1       6.899  27.524  56.133  1.00  0.00    -0.176 NA
HETATM   15  C   UNL     1       6.881  26.445  56.845  1.00  0.00     0.153 C 
BRANCH  15  16
HETATM   16  C   UNL     1       7.620  25.280  56.409  1.00  0.00     0.011 A 
HETATM   17  C   UNL     1       7.498  24.620  55.144  1.00  0.00     0.004 A 
HETATM   18  C   UNL     1       6.719  24.840  53.988  1.00  0.00     0.014 A 
HETATM   19  C   UNL     1       8.352  23.516  55.166  1.00  0.00     0.043 A 
HETATM   20  C   UNL     1       6.819  23.957  52.907  1.00  0.00     0.001 A 
HETATM   21  C   UNL     1       7.681  22.866  52.962  1.00  0.00     0.002 A 
HETATM   22  C   UNL     1       8.468  22.625  54.093  1.00  0.00     0.030 A 
HETATM   23  N   UNL     1       8.983  23.518  56.390  1.00  0.00    -0.364 N 
HETATM   24  H   UNL     1       9.658  22.827  56.687  1.00  0.00     0.165 HD
HETATM   25  C   UNL     1       8.540  24.566  57.149  1.00  0.00     0.102 A 
ENDBRANCH  15  16
ENDBRANCH   1  14
BRANCH  13  26
HETATM   26  N   UNL     1       4.260  28.225  55.422  1.00  0.00    -0.383 N 
HETATM   27  H   UNL     1       3.245  28.300  55.343  1.00  0.00     0.157 HD
HETATM   28  H   UNL     1       4.682  27.410  54.979  1.00  0.00     0.157 HD
ENDBRANCH  13  26
BRANCH  12  29
HETATM   29  C   UNL     1       3.562  31.052  56.530  1.00  0.00     0.262 C 
HETATM   30  N   UNL     1       3.999  32.296  56.098  1.00  0.00    -0.323 N 
HETATM   31  H   UNL     1       4.793  32.656  56.626  1.00  0.00     0.169 HD
HETATM   32  O   UNL     1       2.393  30.683  56.467  1.00  0.00    -0.267 OA
BRANCH  30  33
HETATM   33  C   UNL     1       4.141  32.542  54.705  1.00  0.00     0.035 A 
HETATM   34  C   UNL     1       3.769  31.609  53.731  1.00  0.00     0.031 A 
HETATM   35  C   UNL     1       4.082  31.835  52.386  1.00  0.00     0.026 A 
HETATM   36  C   UNL     1       4.748  32.999  52.014  1.00  0.00     0.034 A 
HETATM   37 CL   UNL     1       5.169  33.256  50.367  1.00  0.00    -0.084 Cl
HETATM   38  C   UNL     1       5.089  33.951  52.972  1.00  0.00     0.026 A 
HETATM   39  C   UNL     1       4.783  33.724  54.317  1.00  0.00     0.031 A 
ENDBRANCH  30  33
ENDBRANCH  12  29
TORSDOF 5
ENDMDL
MODEL 9
REMARK VINA RESULT:     -10.0      4.754      8.826
REMARK  5 active torsions:
REMARK  status: ('A' for Active; 'I' for Inactive)
REMARK    1  A    between atoms: C_8  and  C_9 
REMARK    2  A    between atoms: N_10  and  N_11 
REMARK    3  A    between atoms: C_22  and  C_23 
REMARK       I    between atoms: C_23  and  N_24 
REMARK    4  A    between atoms: N_24  and  C_25 
REMARK    5  A    between atoms: C_33  and  N_34 
ROOT
HETATM    1  N   UNL     1       6.065  30.392  56.677  1.00  0.00    -0.197 N 
HETATM    2  C   UNL     1       6.625  30.782  57.885  1.00  0.00     0.183 A 
HETATM    3  C   UNL     1       6.095  32.023  58.206  1.00  0.00     0.125 A 
HETATM    4  N   UNL     1       6.499  32.711  59.309  1.00  0.00    -0.242 NA
HETATM    5  C   UNL     1       7.422  32.075  60.052  1.00  0.00     0.086 A 
HETATM    6  C   UNL     1       7.948  30.802  59.704  1.00  0.00     0.088 A 
HETATM    7  N   UNL     1       7.565  30.129  58.607  1.00  0.00    -0.225 NA
HETATM    8  C   UNL     1       7.884  32.702  61.203  1.00  0.00     0.034 A 
HETATM    9  C   UNL     1       8.850  32.112  62.018  1.00  0.00     0.002 A 
HETATM   10  C   UNL     1       9.366  30.870  61.676  1.00  0.00     0.002 A 
HETATM   11  C   UNL     1       8.910  30.227  60.526  1.00  0.00     0.034 A 
HETATM   12  C   UNL     1       5.192  32.410  57.184  1.00  0.00     0.110 C 
HETATM   13  C   UNL     1       5.109  31.336  56.312  1.00  0.00     0.143 C 
ENDROOT
BRANCH   1  14
HETATM   14  N   UNL     1       6.403  29.336  55.865  1.00  0.00    -0.176 NA
HETATM   15  C   UNL     1       5.980  28.203  56.321  1.00  0.00     0.153 C 
BRANCH  15  16
HETATM   16  C   UNL     1       6.327  26.975  55.639  1.00  0.00     0.011 A 
HETATM   17  C   UNL     1       7.206  25.952  56.121  1.00  0.00     0.004 A 
HETATM   18  C   UNL     1       7.958  25.775  57.303  1.00  0.00     0.014 A 
HETATM   19  C   UNL     1       7.298  24.978  55.126  1.00  0.00     0.043 A 
HETATM   20  C   UNL     1       8.767  24.643  57.444  1.00  0.00     0.001 A 
HETATM   21  C   UNL     1       8.836  23.690  56.432  1.00  0.00     0.002 A 
HETATM   22  C   UNL     1       8.100  23.838  55.252  1.00  0.00     0.030 A 
HETATM   23  N   UNL     1       6.491  25.385  54.086  1.00  0.00    -0.364 N 
HETATM   24  H   UNL     1       6.366  24.873  53.224  1.00  0.00     0.165 HD
HETATM   25  C   UNL     1       5.913  26.590  54.379  1.00  0.00     0.102 A 
ENDBRANCH  15  16
ENDBRANCH   1  14
BRANCH  13  26
HETATM   26  N   UNL     1       4.382  31.181  55.180  1.00  0.00    -0.383 N 
HETATM   27  H   UNL     1       4.248  31.955  54.527  1.00  0.00     0.157 HD
HETATM   28  H   UNL     1       3.739  30.397  55.078  1.00  0.00     0.157 HD
ENDBRANCH  13  26
BRANCH  12  29
HETATM   29  C   UNL     1       4.585  33.717  56.978  1.00  0.00     0.262 C 
HETATM   30  N   UNL     1       3.336  33.828  57.573  1.00  0.00    -0.323 N 
HETATM   31  H   UNL     1       2.777  32.979  57.508  1.00  0.00     0.169 HD
HETATM   32  O   UNL     1       5.174  34.658  56.453  1.00  0.00    -0.267 OA
BRANCH  30  33
HETATM   33  C   UNL     1       3.224  34.433  58.854  1.00  0.00     0.035 A 
HETATM   34  C   UNL     1       3.381  35.808  59.058  1.00  0.00     0.031 A 
HETATM   35  C   UNL     1       3.423  36.325  60.357  1.00  0.00     0.026 A 
HETATM   36  C   UNL     1       3.290  35.472  61.449  1.00  0.00     0.034 A 
HETATM   37 CL   UNL     1       3.383  36.104  63.046  1.00  0.00    -0.084 Cl
HETATM   38  C   UNL     1       3.095  34.106  61.255  1.00  0.00     0.026 A 
HETATM   39  C   UNL     1       3.060  33.587  59.958  1.00  0.00     0.031 A 
ENDBRANCH  30  33
ENDBRANCH  12  29
TORSDOF 5
ENDMDL
MODEL 10
REMARK VINA RESULT:      -9.9      3.129      8.304
REMARK  5 active torsions:
REMARK  status: ('A' for Active; 'I' for Inactive)
REMARK    1  A    between atoms: C_8  and  C_9 
REMARK    2  A    between atoms: N_10  and  N_11 
REMARK    3  A    between atoms: C_22  and  C_23 
REMARK       I    between atoms: C_23  and  N_24 
REMARK    4  A    between atoms: N_24  and  C_25 
REMARK    5  A    between atoms: C_33  and  N_34 
ROOT
HETATM    1  N   UNL     1       5.717  27.517  54.562  1.00  0.00    -0.197 N 
HETATM    2  C   UNL     1       5.618  28.644  55.363  1.00  0.00     0.183 A 
HETATM    3  C   UNL     1       4.691  29.491  54.776  1.00  0.00     0.125 A 
HETATM    4  N   UNL     1       4.418  30.722  55.290  1.00  0.00    -0.242 NA
HETATM    5  C   UNL     1       5.099  31.019  56.410  1.00  0.00     0.086 A 
HETATM    6  C   UNL     1       6.043  30.133  56.995  1.00  0.00     0.088 A 
HETATM    7  N   UNL     1       6.329  28.926  56.481  1.00  0.00    -0.225 NA
HETATM    8  C   UNL     1       4.874  32.253  57.007  1.00  0.00     0.034 A 
HETATM    9  C   UNL     1       5.553  32.639  58.163  1.00  0.00     0.002 A 
HETATM   10  C   UNL     1       6.477  31.775  58.734  1.00  0.00     0.002 A 
HETATM   11  C   UNL     1       6.711  30.532  58.146  1.00  0.00     0.034 A 
HETATM   12  C   UNL     1       4.206  28.882  53.591  1.00  0.00     0.110 C 
HETATM   13  C   UNL     1       4.771  27.618  53.545  1.00  0.00     0.143 C 
ENDROOT
BRANCH   1  14
HETATM   14  N   UNL     1       6.623  26.485  54.623  1.00  0.00    -0.176 NA
HETATM   15  C   UNL     1       6.302  25.592  55.502  1.00  0.00     0.153 C 
BRANCH  15  16
HETATM   16  C   UNL     1       7.194  24.484  55.763  1.00  0.00     0.011 A 
HETATM   17  C   UNL     1       7.593  23.474  54.829  1.00  0.00     0.004 A 
HETATM   18  C   UNL     1       7.312  23.222  53.469  1.00  0.00     0.014 A 
HETATM   19  C   UNL     1       8.413  22.575  55.513  1.00  0.00     0.043 A 
HETATM   20  C   UNL     1       7.853  22.091  52.849  1.00  0.00     0.001 A 
HETATM   21  C   UNL     1       8.668  21.215  53.560  1.00  0.00     0.002 A 
HETATM   22  C   UNL     1       8.966  21.441  54.908  1.00  0.00     0.030 A 
HETATM   23  N   UNL     1       8.522  23.033  56.808  1.00  0.00    -0.364 N 
HETATM   24  H   UNL     1       9.056  22.574  57.534  1.00  0.00     0.165 HD
HETATM   25  C   UNL     1       7.784  24.172  56.972  1.00  0.00     0.102 A 
ENDBRANCH  15  16
ENDBRANCH   1  14
BRANCH  13  26
HETATM   26  N   UNL     1       4.629  26.628  52.632  1.00  0.00    -0.383 N 
HETATM   27  H   UNL     1       4.361  25.684  52.911  1.00  0.00     0.157 HD
HETATM   28  H   UNL     1       5.035  26.717  51.701  1.00  0.00     0.157 HD
ENDBRANCH  13  26
BRANCH  12  29
HETATM   29  C   UNL     1       3.404  29.490  52.539  1.00  0.00     0.262 C 
HETATM   30  N   UNL     1       3.531  30.872  52.499  1.00  0.00    -0.323 N 
HETATM   31  H   UNL     1       3.594  31.303  53.420  1.00  0.00     0.169 HD
HETATM   32  O   UNL     1       2.790  28.840  51.698  1.00  0.00    -0.267 OA
BRANCH  30  33
HETATM   33  C   UNL     1       4.441  31.462  51.581  1.00  0.00     0.035 A 
HETATM   34  C   UNL     1       4.659  32.843  51.514  1.00  0.00     0.031 A 
HETATM   35  C   UNL     1       5.440  33.382  50.486  1.00  0.00     0.026 A 
HETATM   36  C   UNL     1       6.016  32.541  49.538  1.00  0.00     0.034 A 
HETATM   37 CL   UNL     1       6.940  33.209  48.251  1.00  0.00    -0.084 Cl
HETATM   38  C   UNL     1       5.835  31.162  49.618  1.00  0.00     0.026 A 
HETATM   39  C   UNL     1       5.051  30.623  50.640  1.00  0.00     0.031 A 
ENDBRANCH  30  33
ENDBRANCH  12  29
TORSDOF 5
ENDMDL
