MODEL 1
REMARK VINA RESULT:     -11.2      0.000      0.000
REMARK  7 active torsions:
REMARK  status: ('A' for Active; 'I' for Inactive)
REMARK    1  A    between atoms: C_5  and  C_6 
REMARK    2  A    between atoms: C_6  and  N_7 
REMARK       I    between atoms: N_7  and  C_8 
REMARK    3  A    between atoms: C_8  and  C_9 
REMARK    4  A    between atoms: C_14  and  C_15 
REMARK    5  A    between atoms: C_15  and  S_16 
REMARK    6  A    between atoms: S_16  and  C_17 
REMARK    7  A    between atoms: C_17  and  C_18 
ROOT
HETATM    1  C   UNL     1       8.353  30.596  58.510  1.00  0.00     0.034 A 
HETATM    2  C   UNL     1       7.045  30.367  58.069  1.00  0.00     0.048 A 
HETATM    3  C   UNL     1       6.824  29.501  56.992  1.00  0.00     0.057 A 
HETATM    4  C   UNL     1       7.894  28.858  56.345  1.00  0.00     0.036 A 
HETATM    5  N   UNL     1       7.708  28.039  55.217  1.00  0.00    -0.277 NA
HETATM    6  C   UNL     1       6.349  27.456  55.100  1.00  0.00     0.162 C 
HETATM    7  C   UNL     1       5.227  28.435  55.498  1.00  0.00     0.240 C 
HETATM    8  O   UNL     1       4.089  28.386  55.035  1.00  0.00    -0.271 OA
HETATM    9  N   UNL     1       5.521  29.314  56.513  1.00  0.00    -0.324 N 
HETATM   10  C   UNL     1       9.197  29.147  56.750  1.00  0.00     0.027 A 
HETATM   11  C   UNL     1       9.426  29.999  57.831  1.00  0.00     0.019 A 
HETATM   12  H   UNL     1       7.965  28.557  54.374  1.00  0.00     0.128 HD
HETATM   13  H   UNL     1       4.756  29.879  56.855  1.00  0.00     0.169 HD
ENDROOT
BRANCH   1  14
HETATM   14  C   UNL     1       8.678  31.474  59.669  1.00  0.00     0.252 C 
HETATM   15  N   UNL     1       8.463  30.961  60.930  1.00  0.00    -0.353 N 
HETATM   16  H   UNL     1       8.203  29.995  61.057  1.00  0.00     0.163 HD
HETATM   17  O   UNL     1       9.154  32.586  59.468  1.00  0.00    -0.268 OA
BRANCH  15  18
HETATM   18  C   UNL     1       8.909  31.677  62.109  1.00  0.00     0.161 C 
BRANCH  18  19
HETATM   19  C   UNL     1       7.760  32.157  62.957  1.00  0.00    -0.041 A 
HETATM   20  C   UNL     1       7.984  33.031  64.028  1.00  0.00     0.009 A 
HETATM   21  C   UNL     1       6.914  33.553  64.760  1.00  0.00     0.007 A 
HETATM   22  C   UNL     1       5.598  33.210  64.433  1.00  0.00    -0.062 A 
HETATM   23  C   UNL     1       4.438  33.796  65.182  1.00  0.00     0.048 C 
HETATM   24  C   UNL     1       5.369  32.337  63.363  1.00  0.00     0.007 A 
HETATM   25  C   UNL     1       6.439  31.821  62.629  1.00  0.00     0.009 A 
ENDBRANCH  18  19
ENDBRANCH  15  18
ENDBRANCH   1  14
BRANCH   6  26
HETATM   26  C   UNL     1       6.091  26.913  53.682  1.00  0.00     0.103 C 
BRANCH  26  27
HETATM   27  S   UNL     1       5.840  25.096  53.558  1.00  0.00    -0.162 SA
BRANCH  27  28
HETATM   28  C   UNL     1       7.575  24.548  53.539  1.00  0.00     0.114 C 
BRANCH  28  29
HETATM   29  C   UNL     1       7.714  23.110  53.975  1.00  0.00    -0.027 A 
HETATM   30  C   UNL     1       7.706  22.714  55.322  1.00  0.00     0.041 A 
HETATM   31 CL   UNL     1       7.542  23.854  56.611  1.00  0.00    -0.084 Cl
HETATM   32  C   UNL     1       7.841  21.365  55.667  1.00  0.00     0.024 A 
HETATM   33  C   UNL     1       7.979  20.395  54.676  1.00  0.00     0.002 A 
HETATM   34  C   UNL     1       7.977  20.769  53.336  1.00  0.00     0.001 A 
HETATM   35  C   UNL     1       7.841  22.114  52.988  1.00  0.00     0.009 A 
ENDBRANCH  28  29
ENDBRANCH  27  28
ENDBRANCH  26  27
ENDBRANCH   6  26
TORSDOF 7
ENDMDL
MODEL 2
REMARK VINA RESULT:     -10.9      2.982     11.076
REMARK  7 active torsions:
REMARK  status: ('A' for Active; 'I' for Inactive)
REMARK    1  A    between atoms: C_5  and  C_6 
REMARK    2  A    between atoms: C_6  and  N_7 
REMARK       I    between atoms: N_7  and  C_8 
REMARK    3  A    between atoms: C_8  and  C_9 
REMARK    4  A    between atoms: C_14  and  C_15 
REMARK    5  A    between atoms: C_15  and  S_16 
REMARK    6  A    between atoms: S_16  and  C_17 
REMARK    7  A    between atoms: C_17  and  C_18 
ROOT
HETATM    1  C   UNL     1       6.713  27.705  55.487  1.00  0.00     0.034 A 
HETATM    2  C   UNL     1       7.992  28.264  55.592  1.00  0.00     0.048 A 
HETATM    3  C   UNL     1       8.264  29.167  56.624  1.00  0.00     0.057 A 
HETATM    4  C   UNL     1       7.275  29.525  57.558  1.00  0.00     0.036 A 
HETATM    5  N   UNL     1       7.500  30.483  58.562  1.00  0.00    -0.277 NA
HETATM    6  C   UNL     1       8.926  30.664  58.928  1.00  0.00     0.162 C 
HETATM    7  C   UNL     1       9.879  30.622  57.717  1.00  0.00     0.240 C 
HETATM    8  O   UNL     1      10.956  31.215  57.681  1.00  0.00    -0.271 OA
HETATM    9  N   UNL     1       9.526  29.771  56.697  1.00  0.00    -0.324 N 
HETATM   10  C   UNL     1       5.988  29.013  57.403  1.00  0.00     0.027 A 
HETATM   11  C   UNL     1       5.710  28.101  56.383  1.00  0.00     0.019 A 
HETATM   12  H   UNL     1       7.071  31.370  58.290  1.00  0.00     0.128 HD
HETATM   13  H   UNL     1      10.202  29.654  55.955  1.00  0.00     0.169 HD
ENDROOT
BRANCH   1  14
HETATM   14  C   UNL     1       6.344  26.709  54.442  1.00  0.00     0.252 C 
HETATM   15  N   UNL     1       7.366  25.976  53.878  1.00  0.00    -0.353 N 
HETATM   16  H   UNL     1       8.306  26.037  54.239  1.00  0.00     0.163 HD
HETATM   17  O   UNL     1       5.163  26.548  54.152  1.00  0.00    -0.268 OA
BRANCH  15  18
HETATM   18  C   UNL     1       7.083  24.873  52.982  1.00  0.00     0.161 C 
BRANCH  18  19
HETATM   19  C   UNL     1       7.379  23.535  53.609  1.00  0.00    -0.041 A 
HETATM   20  C   UNL     1       7.880  22.482  52.832  1.00  0.00     0.009 A 
HETATM   21  C   UNL     1       8.244  21.269  53.423  1.00  0.00     0.007 A 
HETATM   22  C   UNL     1       8.112  21.087  54.804  1.00  0.00    -0.062 A 
HETATM   23  C   UNL     1       8.539  19.805  55.457  1.00  0.00     0.048 C 
HETATM   24  C   UNL     1       7.612  22.136  55.583  1.00  0.00     0.007 A 
HETATM   25  C   UNL     1       7.254  23.349  54.992  1.00  0.00     0.009 A 
ENDBRANCH  18  19
ENDBRANCH  15  18
ENDBRANCH   1  14
BRANCH   6  26
HETATM   26  C   UNL     1       9.142  31.968  59.718  1.00  0.00     0.103 C 
BRANCH  26  27
HETATM   27  S   UNL     1       9.601  31.762  61.487  1.00  0.00    -0.162 SA
BRANCH  27  28
HETATM   28  C   UNL     1       7.969  31.355  62.181  1.00  0.00     0.114 C 
BRANCH  28  29
HETATM   29  C   UNL     1       7.331  32.548  62.851  1.00  0.00    -0.027 A 
HETATM   30  C   UNL     1       6.358  33.346  62.229  1.00  0.00     0.041 A 
HETATM   31 CL   UNL     1       5.804  33.031  60.622  1.00  0.00    -0.084 Cl
HETATM   32  C   UNL     1       5.803  34.442  62.899  1.00  0.00     0.024 A 
HETATM   33  C   UNL     1       6.206  34.753  64.196  1.00  0.00     0.002 A 
HETATM   34  C   UNL     1       7.161  33.965  64.831  1.00  0.00     0.001 A 
HETATM   35  C   UNL     1       7.716  32.869  64.166  1.00  0.00     0.009 A 
ENDBRANCH  28  29
ENDBRANCH  27  28
ENDBRANCH  26  27
ENDBRANCH   6  26
TORSDOF 7
ENDMDL
MODEL 3
REMARK VINA RESULT:     -10.2      3.654     10.274
REMARK  7 active torsions:
REMARK  status: ('A' for Active; 'I' for Inactive)
REMARK    1  A    between atoms: C_5  and  C_6 
REMARK    2  A    between atoms: C_6  and  N_7 
REMARK       I    between atoms: N_7  and  C_8 
REMARK    3  A    between atoms: C_8  and  C_9 
REMARK    4  A    between atoms: C_14  and  C_15 
REMARK    5  A    between atoms: C_15  and  S_16 
REMARK    6  A    between atoms: S_16  and  C_17 
REMARK    7  A    between atoms: C_17  and  C_18 
ROOT
HETATM    1  C   UNL     1       5.582  27.226  54.997  1.00  0.00     0.034 A 
HETATM    2  C   UNL     1       4.701  28.294  54.793  1.00  0.00     0.048 A 
HETATM    3  C   UNL     1       4.471  29.202  55.833  1.00  0.00     0.057 A 
HETATM    4  C   UNL     1       5.108  29.059  57.078  1.00  0.00     0.036 A 
HETATM    5  N   UNL     1       4.841  29.915  58.162  1.00  0.00    -0.277 NA
HETATM    6  C   UNL     1       4.319  31.248  57.776  1.00  0.00     0.162 C 
HETATM    7  C   UNL     1       3.315  31.198  56.607  1.00  0.00     0.240 C 
HETATM    8  O   UNL     1       2.417  32.023  56.450  1.00  0.00    -0.271 OA
HETATM    9  N   UNL     1       3.546  30.239  55.651  1.00  0.00    -0.324 N 
HETATM   10  C   UNL     1       5.931  27.954  57.289  1.00  0.00     0.027 A 
HETATM   11  C   UNL     1       6.177  27.050  56.255  1.00  0.00     0.019 A 
HETATM   12  H   UNL     1       4.215  29.446  58.820  1.00  0.00     0.128 HD
HETATM   13  H   UNL     1       2.961  30.274  54.828  1.00  0.00     0.169 HD
ENDROOT
BRANCH   1  14
HETATM   14  C   UNL     1       5.914  26.233  53.937  1.00  0.00     0.252 C 
HETATM   15  N   UNL     1       7.248  26.012  53.672  1.00  0.00    -0.353 N 
HETATM   16  H   UNL     1       7.964  26.424  54.250  1.00  0.00     0.163 HD
HETATM   17  O   UNL     1       5.008  25.628  53.373  1.00  0.00    -0.268 OA
BRANCH  15  18
HETATM   18  C   UNL     1       7.662  24.946  52.782  1.00  0.00     0.161 C 
BRANCH  18  19
HETATM   19  C   UNL     1       7.965  23.668  53.520  1.00  0.00    -0.041 A 
HETATM   20  C   UNL     1       8.285  23.694  54.884  1.00  0.00     0.009 A 
HETATM   21  C   UNL     1       8.477  22.506  55.595  1.00  0.00     0.007 A 
HETATM   22  C   UNL     1       8.351  21.269  54.955  1.00  0.00    -0.062 A 
HETATM   23  C   UNL     1       8.512  19.986  55.716  1.00  0.00     0.048 C 
HETATM   24  C   UNL     1       8.032  21.238  53.593  1.00  0.00     0.007 A 
HETATM   25  C   UNL     1       7.835  22.425  52.884  1.00  0.00     0.009 A 
ENDBRANCH  18  19
ENDBRANCH  15  18
ENDBRANCH   1  14
BRANCH   6  26
HETATM   26  C   UNL     1       3.686  31.973  58.979  1.00  0.00     0.103 C 
BRANCH  26  27
HETATM   27  S   UNL     1       4.680  33.343  59.697  1.00  0.00    -0.162 SA
BRANCH  27  28
HETATM   28  C   UNL     1       5.408  32.477  61.123  1.00  0.00     0.114 C 
BRANCH  28  29
HETATM   29  C   UNL     1       6.898  32.295  60.967  1.00  0.00    -0.027 A 
HETATM   30  C   UNL     1       7.792  32.330  62.050  1.00  0.00     0.041 A 
HETATM   31 CL   UNL     1       7.256  32.594  63.672  1.00  0.00    -0.084 Cl
HETATM   32  C   UNL     1       9.165  32.157  61.844  1.00  0.00     0.024 A 
HETATM   33  C   UNL     1       9.663  31.943  60.560  1.00  0.00     0.002 A 
HETATM   34  C   UNL     1       8.790  31.894  59.478  1.00  0.00     0.001 A 
HETATM   35  C   UNL     1       7.419  32.064  59.680  1.00  0.00     0.009 A 
ENDBRANCH  28  29
ENDBRANCH  27  28
ENDBRANCH  26  27
ENDBRANCH   6  26
TORSDOF 7
ENDMDL
MODEL 4
REMARK VINA RESULT:     -10.2      3.074     10.837
REMARK  7 active torsions:
REMARK  status: ('A' for Active; 'I' for Inactive)
REMARK    1  A    between atoms: C_5  and  C_6 
REMARK    2  A    between atoms: C_6  and  N_7 
REMARK       I    between atoms: N_7  and  C_8 
REMARK    3  A    between atoms: C_8  and  C_9 
REMARK    4  A    between atoms: C_14  and  C_15 
REMARK    5  A    between atoms: C_15  and  S_16 
REMARK    6  A    between atoms: S_16  and  C_17 
REMARK    7  A    between atoms: C_17  and  C_18 
ROOT
HETATM    1  C   UNL     1       6.370  27.749  55.362  1.00  0.00     0.034 A 
HETATM    2  C   UNL     1       5.272  28.304  56.031  1.00  0.00     0.048 A 
HETATM    3  C   UNL     1       5.478  29.342  56.945  1.00  0.00     0.057 A 
HETATM    4  C   UNL     1       6.767  29.838  57.205  1.00  0.00     0.036 A 
HETATM    5  N   UNL     1       7.011  30.832  58.170  1.00  0.00    -0.277 NA
HETATM    6  C   UNL     1       5.841  31.692  58.473  1.00  0.00     0.162 C 
HETATM    7  C   UNL     1       4.509  30.917  58.526  1.00  0.00     0.240 C 
HETATM    8  O   UNL     1       3.550  31.266  59.212  1.00  0.00    -0.271 OA
HETATM    9  N   UNL     1       4.388  29.860  57.657  1.00  0.00    -0.324 N 
HETATM   10  C   UNL     1       7.858  29.233  56.583  1.00  0.00     0.027 A 
HETATM   11  C   UNL     1       7.663  28.205  55.659  1.00  0.00     0.019 A 
HETATM   12  H   UNL     1       7.384  30.400  59.017  1.00  0.00     0.128 HD
HETATM   13  H   UNL     1       3.479  29.421  57.608  1.00  0.00     0.169 HD
ENDROOT
BRANCH   1  14
HETATM   14  C   UNL     1       6.241  26.666  54.347  1.00  0.00     0.252 C 
HETATM   15  N   UNL     1       7.402  26.195  53.774  1.00  0.00    -0.353 N 
HETATM   16  H   UNL     1       8.304  26.497  54.112  1.00  0.00     0.163 HD
HETATM   17  O   UNL     1       5.132  26.211  54.089  1.00  0.00    -0.268 OA
BRANCH  15  18
HETATM   18  C   UNL     1       7.386  25.033  52.909  1.00  0.00     0.161 C 
BRANCH  18  19
HETATM   19  C   UNL     1       7.687  23.759  53.654  1.00  0.00    -0.041 A 
HETATM   20  C   UNL     1       7.747  23.752  55.054  1.00  0.00     0.009 A 
HETATM   21  C   UNL     1       7.934  22.558  55.754  1.00  0.00     0.007 A 
HETATM   22  C   UNL     1       8.064  21.346  55.067  1.00  0.00    -0.062 A 
HETATM   23  C   UNL     1       8.222  20.051  55.809  1.00  0.00     0.048 C 
HETATM   24  C   UNL     1       8.005  21.348  53.669  1.00  0.00     0.007 A 
HETATM   25  C   UNL     1       7.812  22.541  52.970  1.00  0.00     0.009 A 
ENDBRANCH  18  19
ENDBRANCH  15  18
ENDBRANCH   1  14
BRANCH   6  26
HETATM   26  C   UNL     1       6.043  32.475  59.783  1.00  0.00     0.103 C 
BRANCH  26  27
HETATM   27  S   UNL     1       7.722  32.368  60.525  1.00  0.00    -0.162 SA
BRANCH  27  28
HETATM   28  C   UNL     1       7.333  31.414  62.026  1.00  0.00     0.114 C 
BRANCH  28  29
HETATM   29  C   UNL     1       6.871  32.306  63.153  1.00  0.00    -0.027 A 
HETATM   30  C   UNL     1       5.517  32.506  63.466  1.00  0.00     0.041 A 
HETATM   31 CL   UNL     1       4.248  31.744  62.573  1.00  0.00    -0.084 Cl
HETATM   32  C   UNL     1       5.148  33.347  64.521  1.00  0.00     0.024 A 
HETATM   33  C   UNL     1       6.122  33.994  65.280  1.00  0.00     0.002 A 
HETATM   34  C   UNL     1       7.469  33.798  64.991  1.00  0.00     0.001 A 
HETATM   35  C   UNL     1       7.840  32.957  63.939  1.00  0.00     0.009 A 
ENDBRANCH  28  29
ENDBRANCH  27  28
ENDBRANCH  26  27
ENDBRANCH   6  26
TORSDOF 7
ENDMDL
MODEL 5
REMARK VINA RESULT:     -10.2      5.371     12.383
REMARK  7 active torsions:
REMARK  status: ('A' for Active; 'I' for Inactive)
REMARK    1  A    between atoms: C_5  and  C_6 
REMARK    2  A    between atoms: C_6  and  N_7 
REMARK       I    between atoms: N_7  and  C_8 
REMARK    3  A    between atoms: C_8  and  C_9 
REMARK    4  A    between atoms: C_14  and  C_15 
REMARK    5  A    between atoms: C_15  and  S_16 
REMARK    6  A    between atoms: S_16  and  C_17 
REMARK    7  A    between atoms: C_17  and  C_18 
ROOT
HETATM    1  C   UNL     1       7.823  32.169  61.164  1.00  0.00     0.034 A 
HETATM    2  C   UNL     1       6.467  32.515  61.197  1.00  0.00     0.048 A 
HETATM    3  C   UNL     1       5.902  32.965  62.395  1.00  0.00     0.057 A 
HETATM    4  C   UNL     1       6.672  33.074  63.566  1.00  0.00     0.036 A 
HETATM    5  N   UNL     1       6.114  33.455  64.800  1.00  0.00    -0.277 NA
HETATM    6  C   UNL     1       4.866  34.250  64.689  1.00  0.00     0.162 C 
HETATM    7  C   UNL     1       3.926  33.759  63.570  1.00  0.00     0.240 C 
HETATM    8  O   UNL     1       2.704  33.897  63.603  1.00  0.00    -0.271 OA
HETATM    9  N   UNL     1       4.533  33.259  62.444  1.00  0.00    -0.324 N 
HETATM   10  C   UNL     1       8.003  32.662  63.537  1.00  0.00     0.027 A 
HETATM   11  C   UNL     1       8.580  32.224  62.344  1.00  0.00     0.019 A 
HETATM   12  H   UNL     1       5.977  32.627  65.383  1.00  0.00     0.128 HD
HETATM   13  H   UNL     1       3.927  33.042  61.665  1.00  0.00     0.169 HD
ENDROOT
BRANCH   1  14
HETATM   14  C   UNL     1       8.516  31.714  59.926  1.00  0.00     0.252 C 
HETATM   15  N   UNL     1       8.357  30.395  59.560  1.00  0.00    -0.353 N 
HETATM   16  H   UNL     1       7.709  29.798  60.051  1.00  0.00     0.163 HD
HETATM   17  O   UNL     1       9.161  32.522  59.265  1.00  0.00    -0.268 OA
BRANCH  15  18
HETATM   18  C   UNL     1       8.853  29.912  58.286  1.00  0.00     0.161 C 
BRANCH  18  19
HETATM   19  C   UNL     1       7.994  28.814  57.716  1.00  0.00    -0.041 A 
HETATM   20  C   UNL     1       6.610  28.989  57.585  1.00  0.00     0.009 A 
HETATM   21  C   UNL     1       5.821  28.011  56.973  1.00  0.00     0.007 A 
HETATM   22  C   UNL     1       6.403  26.839  56.480  1.00  0.00    -0.062 A 
HETATM   23  C   UNL     1       5.574  25.801  55.782  1.00  0.00     0.048 C 
HETATM   24  C   UNL     1       7.784  26.659  56.608  1.00  0.00     0.007 A 
HETATM   25  C   UNL     1       8.573  27.639  57.215  1.00  0.00     0.009 A 
ENDBRANCH  18  19
ENDBRANCH  15  18
ENDBRANCH   1  14
BRANCH   6  26
HETATM   26  C   UNL     1       4.107  34.294  66.028  1.00  0.00     0.103 C 
BRANCH  26  27
HETATM   27  S   UNL     1       4.962  35.169  67.401  1.00  0.00    -0.162 SA
BRANCH  27  28
HETATM   28  C   UNL     1       5.180  33.782  68.559  1.00  0.00     0.114 C 
BRANCH  28  29
HETATM   29  C   UNL     1       6.393  33.971  69.438  1.00  0.00    -0.027 A 
HETATM   30  C   UNL     1       6.660  33.167  70.558  1.00  0.00     0.041 A 
HETATM   31 CL   UNL     1       5.608  31.881  71.035  1.00  0.00    -0.084 Cl
HETATM   32  C   UNL     1       7.800  33.391  71.337  1.00  0.00     0.024 A 
HETATM   33  C   UNL     1       8.689  34.414  71.009  1.00  0.00     0.002 A 
HETATM   34  C   UNL     1       8.444  35.212  69.896  1.00  0.00     0.001 A 
HETATM   35  C   UNL     1       7.309  34.990  69.114  1.00  0.00     0.009 A 
ENDBRANCH  28  29
ENDBRANCH  27  28
ENDBRANCH  26  27
ENDBRANCH   6  26
TORSDOF 7
ENDMDL
MODEL 6
REMARK VINA RESULT:     -10.0      3.424     11.222
REMARK  7 active torsions:
REMARK  status: ('A' for Active; 'I' for Inactive)
REMARK    1  A    between atoms: C_5  and  C_6 
REMARK    2  A    between atoms: C_6  and  N_7 
REMARK       I    between atoms: N_7  and  C_8 
REMARK    3  A    between atoms: C_8  and  C_9 
REMARK    4  A    between atoms: C_14  and  C_15 
REMARK    5  A    between atoms: C_15  and  S_16 
REMARK    6  A    between atoms: S_16  and  C_17 
REMARK    7  A    between atoms: C_17  and  C_18 
ROOT
HETATM    1  C   UNL     1       6.738  28.223  56.112  1.00  0.00     0.034 A 
HETATM    2  C   UNL     1       6.072  29.378  56.537  1.00  0.00     0.048 A 
HETATM    3  C   UNL     1       6.596  30.121  57.600  1.00  0.00     0.057 A 
HETATM    4  C   UNL     1       7.779  29.727  58.250  1.00  0.00     0.036 A 
HETATM    5  N   UNL     1       8.289  30.414  59.366  1.00  0.00    -0.277 NA
HETATM    6  C   UNL     1       7.860  31.831  59.462  1.00  0.00     0.162 C 
HETATM    7  C   UNL     1       6.387  32.052  59.065  1.00  0.00     0.240 C 
HETATM    8  O   UNL     1       5.693  32.962  59.517  1.00  0.00    -0.271 OA
HETATM    9  N   UNL     1       5.901  31.245  58.064  1.00  0.00    -0.324 N 
HETATM   10  C   UNL     1       8.396  28.539  57.860  1.00  0.00     0.027 A 
HETATM   11  C   UNL     1       7.888  27.798  56.792  1.00  0.00     0.019 A 
HETATM   12  H   UNL     1       8.062  29.898  60.217  1.00  0.00     0.128 HD
HETATM   13  H   UNL     1       4.974  31.461  57.723  1.00  0.00     0.169 HD
ENDROOT
BRANCH   1  14
HETATM   14  C   UNL     1       6.273  27.391  54.966  1.00  0.00     0.252 C 
HETATM   15  N   UNL     1       7.206  26.590  54.345  1.00  0.00    -0.353 N 
HETATM   16  H   UNL     1       8.136  26.492  54.724  1.00  0.00     0.163 HD
HETATM   17  O   UNL     1       5.089  27.416  54.646  1.00  0.00    -0.268 OA
BRANCH  15  18
HETATM   18  C   UNL     1       6.808  25.627  53.339  1.00  0.00     0.161 C 
BRANCH  18  19
HETATM   19  C   UNL     1       7.149  24.213  53.732  1.00  0.00    -0.041 A 
HETATM   20  C   UNL     1       7.543  23.282  52.762  1.00  0.00     0.009 A 
HETATM   21  C   UNL     1       7.949  21.996  53.130  1.00  0.00     0.007 A 
HETATM   22  C   UNL     1       7.970  21.618  54.476  1.00  0.00    -0.062 A 
HETATM   23  C   UNL     1       8.445  20.256  54.889  1.00  0.00     0.048 C 
HETATM   24  C   UNL     1       7.578  22.545  55.449  1.00  0.00     0.007 A 
HETATM   25  C   UNL     1       7.177  23.831  55.080  1.00  0.00     0.009 A 
ENDBRANCH  18  19
ENDBRANCH  15  18
ENDBRANCH   1  14
BRANCH   6  26
HETATM   26  C   UNL     1       8.113  32.400  60.870  1.00  0.00     0.103 C 
BRANCH  26  27
HETATM   27  S   UNL     1       7.371  31.452  62.259  1.00  0.00    -0.162 SA
BRANCH  27  28
HETATM   28  C   UNL     1       7.458  32.711  63.571  1.00  0.00     0.114 C 
BRANCH  28  29
HETATM   29  C   UNL     1       6.096  33.273  63.899  1.00  0.00    -0.027 A 
HETATM   30  C   UNL     1       5.781  33.839  65.145  1.00  0.00     0.041 A 
HETATM   31 CL   UNL     1       6.937  33.937  66.426  1.00  0.00    -0.084 Cl
HETATM   32  C   UNL     1       4.499  34.342  65.393  1.00  0.00     0.024 A 
HETATM   33  C   UNL     1       3.519  34.292  64.403  1.00  0.00     0.002 A 
HETATM   34  C   UNL     1       3.818  33.745  63.160  1.00  0.00     0.001 A 
HETATM   35  C   UNL     1       5.097  33.244  62.908  1.00  0.00     0.009 A 
ENDBRANCH  28  29
ENDBRANCH  27  28
ENDBRANCH  26  27
ENDBRANCH   6  26
TORSDOF 7
ENDMDL
MODEL 7
REMARK VINA RESULT:      -9.7      5.739     10.665
REMARK  7 active torsions:
REMARK  status: ('A' for Active; 'I' for Inactive)
REMARK    1  A    between atoms: C_5  and  C_6 
REMARK    2  A    between atoms: C_6  and  N_7 
REMARK       I    between atoms: N_7  and  C_8 
REMARK    3  A    between atoms: C_8  and  C_9 
REMARK    4  A    between atoms: C_14  and  C_15 
REMARK    5  A    between atoms: C_15  and  S_16 
REMARK    6  A    between atoms: S_16  and  C_17 
REMARK    7  A    between atoms: C_17  and  C_18 
ROOT
HETATM    1  C   UNL     1       5.101  27.242  50.176  1.00  0.00     0.034 A 
HETATM    2  C   UNL     1       5.552  28.170  51.123  1.00  0.00     0.048 A 
HETATM    3  C   UNL     1       5.928  27.726  52.395  1.00  0.00     0.057 A 
HETATM    4  C   UNL     1       5.859  26.365  52.740  1.00  0.00     0.036 A 
HETATM    5  N   UNL     1       6.162  25.900  54.033  1.00  0.00    -0.277 NA
HETATM    6  C   UNL     1       7.062  26.789  54.808  1.00  0.00     0.162 C 
HETATM    7  C   UNL     1       6.761  28.288  54.611  1.00  0.00     0.240 C 
HETATM    8  O   UNL     1       6.993  29.143  55.463  1.00  0.00    -0.271 OA
HETATM    9  N   UNL     1       6.325  28.659  53.361  1.00  0.00    -0.324 N 
HETATM   10  C   UNL     1       5.345  25.461  51.812  1.00  0.00     0.027 A 
HETATM   11  C   UNL     1       4.980  25.892  50.536  1.00  0.00     0.019 A 
HETATM   12  H   UNL     1       5.295  25.715  54.541  1.00  0.00     0.128 HD
HETATM   13  H   UNL     1       6.235  29.651  53.193  1.00  0.00     0.169 HD
ENDROOT
BRANCH   1  14
HETATM   14  C   UNL     1       4.715  27.619  48.788  1.00  0.00     0.252 C 
HETATM   15  N   UNL     1       4.132  28.855  48.608  1.00  0.00    -0.353 N 
HETATM   16  H   UNL     1       4.073  29.514  49.368  1.00  0.00     0.163 HD
HETATM   17  O   UNL     1       4.959  26.850  47.864  1.00  0.00    -0.268 OA
BRANCH  15  18
HETATM   18  C   UNL     1       3.881  29.371  47.277  1.00  0.00     0.161 C 
BRANCH  18  19
HETATM   19  C   UNL     1       2.431  29.264  46.884  1.00  0.00    -0.041 A 
HETATM   20  C   UNL     1       1.774  28.027  46.922  1.00  0.00     0.009 A 
HETATM   21  C   UNL     1       0.406  27.937  46.649  1.00  0.00     0.007 A 
HETATM   22  C   UNL     1      -0.330  29.083  46.332  1.00  0.00    -0.062 A 
HETATM   23  C   UNL     1      -1.807  29.005  46.078  1.00  0.00     0.048 C 
HETATM   24  C   UNL     1       0.322  30.320  46.292  1.00  0.00     0.007 A 
HETATM   25  C   UNL     1       1.687  30.411  46.572  1.00  0.00     0.009 A 
ENDBRANCH  18  19
ENDBRANCH  15  18
ENDBRANCH   1  14
BRANCH   6  26
HETATM   26  C   UNL     1       7.037  26.443  56.308  1.00  0.00     0.103 C 
BRANCH  26  27
HETATM   27  S   UNL     1       6.826  24.663  56.714  1.00  0.00    -0.162 SA
BRANCH  27  28
HETATM   28  C   UNL     1       8.420  24.021  56.113  1.00  0.00     0.114 C 
BRANCH  28  29
HETATM   29  C   UNL     1       8.237  22.848  55.182  1.00  0.00    -0.027 A 
HETATM   30  C   UNL     1       8.208  21.516  55.625  1.00  0.00     0.041 A 
HETATM   31 CL   UNL     1       8.388  21.100  57.293  1.00  0.00    -0.084 Cl
HETATM   32  C   UNL     1       8.038  20.468  54.714  1.00  0.00     0.024 A 
HETATM   33  C   UNL     1       7.889  20.733  53.353  1.00  0.00     0.002 A 
HETATM   34  C   UNL     1       7.904  22.048  52.899  1.00  0.00     0.001 A 
HETATM   35  C   UNL     1       8.072  23.097  53.806  1.00  0.00     0.009 A 
ENDBRANCH  28  29
ENDBRANCH  27  28
ENDBRANCH  26  27
ENDBRANCH   6  26
TORSDOF 7
ENDMDL
MODEL 8
REMARK VINA RESULT:      -9.6      3.624     11.570
REMARK  7 active torsions:
REMARK  status: ('A' for Active; 'I' for Inactive)
REMARK    1  A    between atoms: C_5  and  C_6 
REMARK    2  A    between atoms: C_6  and  N_7 
REMARK       I    between atoms: N_7  and  C_8 
REMARK    3  A    between atoms: C_8  and  C_9 
REMARK    4  A    between atoms: C_14  and  C_15 
REMARK    5  A    between atoms: C_15  and  S_16 
REMARK    6  A    between atoms: S_16  and  C_17 
REMARK    7  A    between atoms: C_17  and  C_18 
ROOT
HETATM    1  C   UNL     1       6.022  29.495  55.887  1.00  0.00     0.034 A 
HETATM    2  C   UNL     1       7.000  29.171  56.835  1.00  0.00     0.048 A 
HETATM    3  C   UNL     1       7.229  30.038  57.909  1.00  0.00     0.057 A 
HETATM    4  C   UNL     1       6.496  31.229  58.052  1.00  0.00     0.036 A 
HETATM    5  N   UNL     1       6.754  32.152  59.081  1.00  0.00    -0.277 NA
HETATM    6  C   UNL     1       7.408  31.569  60.278  1.00  0.00     0.162 C 
HETATM    7  C   UNL     1       8.485  30.520  59.936  1.00  0.00     0.240 C 
HETATM    8  O   UNL     1       9.456  30.287  60.654  1.00  0.00    -0.271 OA
HETATM    9  N   UNL     1       8.244  29.743  58.828  1.00  0.00    -0.324 N 
HETATM   10  C   UNL     1       5.573  31.573  57.065  1.00  0.00     0.027 A 
HETATM   11  C   UNL     1       5.328  30.709  55.997  1.00  0.00     0.019 A 
HETATM   12  H   UNL     1       7.292  32.937  58.708  1.00  0.00     0.128 HD
HETATM   13  H   UNL     1       8.887  28.981  58.665  1.00  0.00     0.169 HD
ENDROOT
BRANCH   1  14
HETATM   14  C   UNL     1       5.687  28.616  54.732  1.00  0.00     0.252 C 
HETATM   15  N   UNL     1       6.722  27.920  54.145  1.00  0.00    -0.353 N 
HETATM   16  H   UNL     1       7.644  27.924  54.554  1.00  0.00     0.163 HD
HETATM   17  O   UNL     1       4.519  28.512  54.373  1.00  0.00    -0.268 OA
BRANCH  15  18
HETATM   18  C   UNL     1       6.463  26.917  53.132  1.00  0.00     0.161 C 
BRANCH  18  19
HETATM   19  C   UNL     1       6.995  25.562  53.517  1.00  0.00    -0.041 A 
HETATM   20  C   UNL     1       6.832  25.079  54.823  1.00  0.00     0.009 A 
HETATM   21  C   UNL     1       7.241  23.787  55.162  1.00  0.00     0.007 A 
HETATM   22  C   UNL     1       7.821  22.952  54.202  1.00  0.00    -0.062 A 
HETATM   23  C   UNL     1       8.225  21.548  54.542  1.00  0.00     0.048 C 
HETATM   24  C   UNL     1       7.987  23.429  52.897  1.00  0.00     0.007 A 
HETATM   25  C   UNL     1       7.572  24.719  52.557  1.00  0.00     0.009 A 
ENDBRANCH  18  19
ENDBRANCH  15  18
ENDBRANCH   1  14
BRANCH   6  26
HETATM   26  C   UNL     1       8.011  32.663  61.178  1.00  0.00     0.103 C 
BRANCH  26  27
HETATM   27  S   UNL     1       7.622  32.526  62.969  1.00  0.00    -0.162 SA
BRANCH  27  28
HETATM   28  C   UNL     1       6.249  33.717  63.076  1.00  0.00     0.114 C 
BRANCH  28  29
HETATM   29  C   UNL     1       5.985  34.141  64.500  1.00  0.00    -0.027 A 
HETATM   30  C   UNL     1       4.894  34.943  64.871  1.00  0.00     0.041 A 
HETATM   31 CL   UNL     1       3.750  35.526  63.713  1.00  0.00    -0.084 Cl
HETATM   32  C   UNL     1       4.701  35.307  66.208  1.00  0.00     0.024 A 
HETATM   33  C   UNL     1       5.588  34.872  67.192  1.00  0.00     0.002 A 
HETATM   34  C   UNL     1       6.668  34.067  66.843  1.00  0.00     0.001 A 
HETATM   35  C   UNL     1       6.862  33.701  65.510  1.00  0.00     0.009 A 
ENDBRANCH  28  29
ENDBRANCH  27  28
ENDBRANCH  26  27
ENDBRANCH   6  26
TORSDOF 7
ENDMDL
MODEL 9
REMARK VINA RESULT:      -9.5      3.486     11.122
REMARK  7 active torsions:
REMARK  status: ('A' for Active; 'I' for Inactive)
REMARK    1  A    between atoms: C_5  and  C_6 
REMARK    2  A    between atoms: C_6  and  N_7 
REMARK       I    between atoms: N_7  and  C_8 
REMARK    3  A    between atoms: C_8  and  C_9 
REMARK    4  A    between atoms: C_14  and  C_15 
REMARK    5  A    between atoms: C_15  and  S_16 
REMARK    6  A    between atoms: S_16  and  C_17 
REMARK    7  A    between atoms: C_17  and  C_18 
ROOT
HETATM    1  C   UNL     1       6.036  29.418  56.028  1.00  0.00     0.034 A 
HETATM    2  C   UNL     1       6.930  29.068  57.047  1.00  0.00     0.048 A 
HETATM    3  C   UNL     1       7.175  29.972  58.086  1.00  0.00     0.057 A 
HETATM    4  C   UNL     1       6.540  31.226  58.124  1.00  0.00     0.036 A 
HETATM    5  N   UNL     1       6.822  32.182  59.117  1.00  0.00    -0.277 NA
HETATM    6  C   UNL     1       7.359  31.616  60.377  1.00  0.00     0.162 C 
HETATM    7  C   UNL     1       8.359  30.463  60.154  1.00  0.00     0.240 C 
HETATM    8  O   UNL     1       9.267  30.193  60.937  1.00  0.00    -0.271 OA
HETATM    9  N   UNL     1       8.112  29.648  59.075  1.00  0.00    -0.324 N 
HETATM   10  C   UNL     1       5.704  31.589  57.069  1.00  0.00     0.027 A 
HETATM   11  C   UNL     1       5.443  30.689  56.034  1.00  0.00     0.019 A 
HETATM   12  H   UNL     1       7.444  32.897  58.735  1.00  0.00     0.128 HD
HETATM   13  H   UNL     1       8.695  28.827  58.989  1.00  0.00     0.169 HD
ENDROOT
BRANCH   1  14
HETATM   14  C   UNL     1       5.688  28.505  54.903  1.00  0.00     0.252 C 
HETATM   15  N   UNL     1       5.950  27.163  55.074  1.00  0.00    -0.353 N 
HETATM   16  H   UNL     1       6.260  26.806  55.965  1.00  0.00     0.163 HD
HETATM   17  O   UNL     1       5.155  28.963  53.898  1.00  0.00    -0.268 OA
BRANCH  15  18
HETATM   18  C   UNL     1       5.491  26.187  54.105  1.00  0.00     0.161 C 
BRANCH  18  19
HETATM   19  C   UNL     1       6.426  25.012  53.987  1.00  0.00    -0.041 A 
HETATM   20  C   UNL     1       6.758  24.252  55.117  1.00  0.00     0.009 A 
HETATM   21  C   UNL     1       7.551  23.107  54.999  1.00  0.00     0.007 A 
HETATM   22  C   UNL     1       8.026  22.700  53.748  1.00  0.00    -0.062 A 
HETATM   23  C   UNL     1       8.842  21.450  53.601  1.00  0.00     0.048 C 
HETATM   24  C   UNL     1       7.697  23.456  52.617  1.00  0.00     0.007 A 
HETATM   25  C   UNL     1       6.900  24.597  52.735  1.00  0.00     0.009 A 
ENDBRANCH  18  19
ENDBRANCH  15  18
ENDBRANCH   1  14
BRANCH   6  26
HETATM   26  C   UNL     1       8.006  32.706  61.252  1.00  0.00     0.103 C 
BRANCH  26  27
HETATM   27  S   UNL     1       7.630  32.612  63.050  1.00  0.00    -0.162 SA
BRANCH  27  28
HETATM   28  C   UNL     1       5.816  32.751  62.991  1.00  0.00     0.114 C 
BRANCH  28  29
HETATM   29  C   UNL     1       5.373  34.066  62.398  1.00  0.00    -0.027 A 
HETATM   30  C   UNL     1       4.468  34.159  61.328  1.00  0.00     0.041 A 
HETATM   31 CL   UNL     1       3.781  32.757  60.586  1.00  0.00    -0.084 Cl
HETATM   32  C   UNL     1       4.096  35.407  60.819  1.00  0.00     0.024 A 
HETATM   33  C   UNL     1       4.615  36.577  61.371  1.00  0.00     0.002 A 
HETATM   34  C   UNL     1       5.503  36.504  62.438  1.00  0.00     0.001 A 
HETATM   35  C   UNL     1       5.876  35.259  62.951  1.00  0.00     0.009 A 
ENDBRANCH  28  29
ENDBRANCH  27  28
ENDBRANCH  26  27
ENDBRANCH   6  26
TORSDOF 7
ENDMDL
MODEL 10
REMARK VINA RESULT:      -9.4      6.288      9.883
REMARK  7 active torsions:
REMARK  status: ('A' for Active; 'I' for Inactive)
REMARK    1  A    between atoms: C_5  and  C_6 
REMARK    2  A    between atoms: C_6  and  N_7 
REMARK       I    between atoms: N_7  and  C_8 
REMARK    3  A    between atoms: C_8  and  C_9 
REMARK    4  A    between atoms: C_14  and  C_15 
REMARK    5  A    between atoms: C_15  and  S_16 
REMARK    6  A    between atoms: S_16  and  C_17 
REMARK    7  A    between atoms: C_17  and  C_18 
ROOT
HETATM    1  C   UNL     1       4.758  27.748  49.866  1.00  0.00     0.034 A 
HETATM    2  C   UNL     1       4.852  28.407  51.098  1.00  0.00     0.048 A 
HETATM    3  C   UNL     1       5.007  27.656  52.268  1.00  0.00     0.057 A 
HETATM    4  C   UNL     1       5.068  26.251  52.228  1.00  0.00     0.036 A 
HETATM    5  N   UNL     1       5.152  25.469  53.394  1.00  0.00    -0.277 NA
HETATM    6  C   UNL     1       5.722  26.176  54.567  1.00  0.00     0.162 C 
HETATM    7  C   UNL     1       5.252  27.639  54.688  1.00  0.00     0.240 C 
HETATM    8  O   UNL     1       5.166  28.236  55.760  1.00  0.00    -0.271 OA
HETATM    9  N   UNL     1       5.044  28.309  53.506  1.00  0.00    -0.324 N 
HETATM   10  C   UNL     1       4.906  25.606  51.003  1.00  0.00     0.027 A 
HETATM   11  C   UNL     1       4.764  26.346  49.829  1.00  0.00     0.019 A 
HETATM   12  H   UNL     1       4.233  25.076  53.607  1.00  0.00     0.128 HD
HETATM   13  H   UNL     1       4.847  29.297  53.578  1.00  0.00     0.169 HD
ENDROOT
BRANCH   1  14
HETATM   14  C   UNL     1       4.628  28.468  48.567  1.00  0.00     0.252 C 
HETATM   15  N   UNL     1       3.997  29.692  48.584  1.00  0.00    -0.353 N 
HETATM   16  H   UNL     1       3.736  30.128  49.456  1.00  0.00     0.163 HD
HETATM   17  O   UNL     1       5.112  27.975  47.554  1.00  0.00    -0.268 OA
BRANCH  15  18
HETATM   18  C   UNL     1       3.977  30.534  47.404  1.00  0.00     0.161 C 
BRANCH  18  19
HETATM   19  C   UNL     1       4.968  31.665  47.489  1.00  0.00    -0.041 A 
HETATM   20  C   UNL     1       5.611  31.956  48.700  1.00  0.00     0.009 A 
HETATM   21  C   UNL     1       6.598  32.943  48.764  1.00  0.00     0.007 A 
HETATM   22  C   UNL     1       6.962  33.657  47.618  1.00  0.00    -0.062 A 
HETATM   23  C   UNL     1       8.051  34.688  47.664  1.00  0.00     0.048 C 
HETATM   24  C   UNL     1       6.323  33.369  46.407  1.00  0.00     0.007 A 
HETATM   25  C   UNL     1       5.341  32.379  46.342  1.00  0.00     0.009 A 
ENDBRANCH  18  19
ENDBRANCH  15  18
ENDBRANCH   1  14
BRANCH   6  26
HETATM   26  C   UNL     1       5.426  25.421  55.876  1.00  0.00     0.103 C 
BRANCH  26  27
HETATM   27  S   UNL     1       6.899  24.852  56.818  1.00  0.00    -0.162 SA
BRANCH  27  28
HETATM   28  C   UNL     1       8.065  24.602  55.443  1.00  0.00     0.114 C 
BRANCH  28  29
HETATM   29  C   UNL     1       7.991  23.198  54.893  1.00  0.00    -0.027 A 
HETATM   30  C   UNL     1       8.016  22.912  53.519  1.00  0.00     0.041 A 
HETATM   31 CL   UNL     1       8.128  24.156  52.325  1.00  0.00    -0.084 Cl
HETATM   32  C   UNL     1       7.942  21.589  53.067  1.00  0.00     0.024 A 
HETATM   33  C   UNL     1       7.848  20.538  53.978  1.00  0.00     0.002 A 
HETATM   34  C   UNL     1       7.834  20.804  55.343  1.00  0.00     0.001 A 
HETATM   35  C   UNL     1       7.910  22.123  55.797  1.00  0.00     0.009 A 
ENDBRANCH  28  29
ENDBRANCH  27  28
ENDBRANCH  26  27
ENDBRANCH   6  26
TORSDOF 7
ENDMDL
