MODEL 1
REMARK VINA RESULT:      -9.1      0.000      0.000
REMARK  7 active torsions:
REMARK  status: ('A' for Active; 'I' for Inactive)
REMARK    1  A    between atoms: C_2  and  N_3 
REMARK    2  A    between atoms: C_2  and  C_17 
REMARK       I    between atoms: N_3  and  C_4 
REMARK    3  A    between atoms: C_4  and  C_5 
REMARK    4  A    between atoms: C_7  and  N_8 
REMARK    5  A    between atoms: C_17  and  O_18 
REMARK    6  A    between atoms: C_17  and  C_19 
REMARK    7  A    between atoms: C_22  and  O_23 
ROOT
HETATM    1  N   UNL     1       7.087  28.116  56.269  1.00  0.00    -0.349 N 
HETATM    2  C   UNL     1       8.002  27.862  57.263  1.00  0.00     0.270 C 
HETATM    3  O   UNL     1       8.178  26.750  57.751  1.00  0.00    -0.266 OA
HETATM    4  H   UNL     1       7.037  29.083  55.959  1.00  0.00     0.163 HD
ENDROOT
BRANCH   1   5
HETATM    5  C   UNL     1       6.290  27.109  55.561  1.00  0.00     0.114 C 
HETATM    6  C   UNL     1       4.828  27.556  55.461  1.00  0.00     0.035 C 
BRANCH   5   7
HETATM    7  C   UNL     1       6.844  26.667  54.171  1.00  0.00     0.173 C 
BRANCH   7   8
HETATM    8  O   UNL     1       7.935  27.459  53.701  1.00  0.00    -0.389 OA
HETATM    9  H   UNL     1       7.769  27.650  52.754  1.00  0.00     0.210 HD
ENDBRANCH   7   8
BRANCH   7  10
HETATM   10  C   UNL     1       7.185  25.189  54.098  1.00  0.00    -0.028 A 
HETATM   11  C   UNL     1       7.024  24.380  55.232  1.00  0.00     0.012 A 
HETATM   12  C   UNL     1       7.330  23.017  55.183  1.00  0.00     0.037 A 
HETATM   13  C   UNL     1       7.800  22.436  54.006  1.00  0.00     0.068 A 
HETATM   14  C   UNL     1       7.979  23.234  52.877  1.00  0.00     0.037 A 
HETATM   15  C   UNL     1       7.674  24.600  52.925  1.00  0.00     0.012 A 
BRANCH  13  16
HETATM   16  O   UNL     1       8.050  21.093  54.091  1.00  0.00    -0.356 OA
HETATM   17  C   UNL     1       8.315  20.415  52.870  1.00  0.00     0.210 C 
ENDBRANCH  13  16
ENDBRANCH   7  10
ENDBRANCH   5   7
ENDBRANCH   1   5
BRANCH   2  18
HETATM   18  C   UNL     1       8.789  29.055  57.713  1.00  0.00     0.126 A 
HETATM   19  N   UNL     1       8.359  29.664  58.854  1.00  0.00    -0.224 NA
HETATM   20  C   UNL     1       9.053  30.768  59.252  1.00  0.00     0.151 A 
HETATM   21  C   UNL     1      10.151  31.267  58.549  1.00  0.00     0.052 A 
HETATM   22  C   UNL     1      10.561  30.615  57.388  1.00  0.00     0.006 A 
HETATM   23  C   UNL     1       9.871  29.489  56.957  1.00  0.00     0.037 A 
BRANCH  20  24
HETATM   24  N   UNL     1       8.630  31.442  60.438  1.00  0.00    -0.227 N 
HETATM   25  N   UNL     1       7.670  32.407  60.428  1.00  0.00    -0.179 NA
HETATM   26  C   UNL     1       7.558  32.776  61.706  1.00  0.00     0.141 A 
HETATM   27  C   UNL     1       8.427  32.072  62.552  1.00  0.00     0.040 A 
HETATM   28  C   UNL     1       9.107  31.221  61.715  1.00  0.00     0.122 A 
ENDBRANCH  20  24
ENDBRANCH   2  18
TORSDOF 7
ENDMDL
MODEL 2
REMARK VINA RESULT:      -8.8      4.033     10.216
REMARK  7 active torsions:
REMARK  status: ('A' for Active; 'I' for Inactive)
REMARK    1  A    between atoms: C_2  and  N_3 
REMARK    2  A    between atoms: C_2  and  C_17 
REMARK       I    between atoms: N_3  and  C_4 
REMARK    3  A    between atoms: C_4  and  C_5 
REMARK    4  A    between atoms: C_7  and  N_8 
REMARK    5  A    between atoms: C_17  and  O_18 
REMARK    6  A    between atoms: C_17  and  C_19 
REMARK    7  A    between atoms: C_22  and  O_23 
ROOT
HETATM    1  N   UNL     1       7.437  31.707  59.907  1.00  0.00    -0.349 N 
HETATM    2  C   UNL     1       8.759  31.851  59.559  1.00  0.00     0.270 C 
HETATM    3  O   UNL     1       9.494  32.710  60.037  1.00  0.00    -0.266 OA
HETATM    4  H   UNL     1       6.940  30.959  59.431  1.00  0.00     0.163 HD
ENDROOT
BRANCH   1   5
HETATM    5  C   UNL     1       6.746  32.446  60.968  1.00  0.00     0.114 C 
HETATM    6  C   UNL     1       5.480  33.112  60.419  1.00  0.00     0.035 C 
BRANCH   5   7
HETATM    7  C   UNL     1       6.442  31.636  62.267  1.00  0.00     0.173 C 
BRANCH   7   8
HETATM    8  O   UNL     1       7.354  30.564  62.510  1.00  0.00    -0.389 OA
HETATM    9  H   UNL     1       7.259  30.309  63.451  1.00  0.00     0.210 HD
ENDBRANCH   7   8
BRANCH   7  10
HETATM   10  C   UNL     1       6.297  32.506  63.502  1.00  0.00    -0.028 A 
HETATM   11  C   UNL     1       5.020  32.828  63.983  1.00  0.00     0.012 A 
HETATM   12  C   UNL     1       4.867  33.626  65.119  1.00  0.00     0.037 A 
HETATM   13  C   UNL     1       5.983  34.117  65.799  1.00  0.00     0.068 A 
HETATM   14  C   UNL     1       7.257  33.817  65.320  1.00  0.00     0.037 A 
HETATM   15  C   UNL     1       7.411  33.018  64.180  1.00  0.00     0.012 A 
BRANCH  13  16
HETATM   16  O   UNL     1       5.694  34.876  66.900  1.00  0.00    -0.356 OA
HETATM   17  C   UNL     1       6.382  34.546  68.100  1.00  0.00     0.210 C 
ENDBRANCH  13  16
ENDBRANCH   7  10
ENDBRANCH   5   7
ENDBRANCH   1   5
BRANCH   2  18
HETATM   18  C   UNL     1       9.253  30.866  58.543  1.00  0.00     0.126 A 
HETATM   19  N   UNL     1       8.451  29.789  58.311  1.00  0.00    -0.224 NA
HETATM   20  C   UNL     1       8.908  28.875  57.409  1.00  0.00     0.151 A 
HETATM   21  C   UNL     1      10.128  29.012  56.743  1.00  0.00     0.052 A 
HETATM   22  C   UNL     1      10.919  30.128  57.007  1.00  0.00     0.006 A 
HETATM   23  C   UNL     1      10.478  31.076  57.923  1.00  0.00     0.037 A 
BRANCH  20  24
HETATM   24  N   UNL     1       8.103  27.726  57.142  1.00  0.00    -0.227 N 
HETATM   25  N   UNL     1       7.860  26.769  58.080  1.00  0.00    -0.179 NA
HETATM   26  C   UNL     1       7.077  25.886  57.456  1.00  0.00     0.141 A 
HETATM   27  C   UNL     1       6.805  26.245  56.128  1.00  0.00     0.040 A 
HETATM   28  C   UNL     1       7.476  27.430  55.948  1.00  0.00     0.122 A 
ENDBRANCH  20  24
ENDBRANCH   2  18
TORSDOF 7
ENDMDL
MODEL 3
REMARK VINA RESULT:      -8.5      1.869      2.372
REMARK  7 active torsions:
REMARK  status: ('A' for Active; 'I' for Inactive)
REMARK    1  A    between atoms: C_2  and  N_3 
REMARK    2  A    between atoms: C_2  and  C_17 
REMARK       I    between atoms: N_3  and  C_4 
REMARK    3  A    between atoms: C_4  and  C_5 
REMARK    4  A    between atoms: C_7  and  N_8 
REMARK    5  A    between atoms: C_17  and  O_18 
REMARK    6  A    between atoms: C_17  and  C_19 
REMARK    7  A    between atoms: C_22  and  O_23 
ROOT
HETATM    1  N   UNL     1       6.689  28.671  54.548  1.00  0.00    -0.349 N 
HETATM    2  C   UNL     1       6.646  29.214  55.810  1.00  0.00     0.270 C 
HETATM    3  O   UNL     1       5.601  29.457  56.406  1.00  0.00    -0.266 OA
HETATM    4  H   UNL     1       7.620  28.526  54.167  1.00  0.00     0.163 HD
ENDROOT
BRANCH   1   5
HETATM    5  C   UNL     1       5.534  28.186  53.785  1.00  0.00     0.114 C 
HETATM    6  C   UNL     1       5.807  28.286  52.281  1.00  0.00     0.035 C 
BRANCH   5   7
HETATM    7  C   UNL     1       5.016  26.766  54.175  1.00  0.00     0.173 C 
BRANCH   7   8
HETATM    8  O   UNL     1       4.151  26.177  53.204  1.00  0.00    -0.389 OA
HETATM    9  H   UNL     1       4.105  25.217  53.400  1.00  0.00     0.210 HD
ENDBRANCH   7   8
BRANCH   7  10
HETATM   10  C   UNL     1       6.125  25.803  54.560  1.00  0.00    -0.028 A 
HETATM   11  C   UNL     1       6.903  25.200  53.562  1.00  0.00     0.012 A 
HETATM   12  C   UNL     1       7.929  24.313  53.898  1.00  0.00     0.037 A 
HETATM   13  C   UNL     1       8.200  24.012  55.233  1.00  0.00     0.068 A 
HETATM   14  C   UNL     1       7.423  24.595  56.233  1.00  0.00     0.037 A 
HETATM   15  C   UNL     1       6.393  25.483  55.897  1.00  0.00     0.012 A 
BRANCH  13  16
HETATM   16  O   UNL     1       9.237  23.140  55.424  1.00  0.00    -0.356 OA
HETATM   17  C   UNL     1       9.172  21.909  54.716  1.00  0.00     0.210 C 
ENDBRANCH  13  16
ENDBRANCH   7  10
ENDBRANCH   5   7
ENDBRANCH   1   5
BRANCH   2  18
HETATM   18  C   UNL     1       7.986  29.489  56.422  1.00  0.00     0.126 A 
HETATM   19  N   UNL     1       7.978  29.969  57.698  1.00  0.00    -0.224 NA
HETATM   20  C   UNL     1       9.192  30.248  58.249  1.00  0.00     0.151 A 
HETATM   21  C   UNL     1      10.396  30.059  57.568  1.00  0.00     0.052 A 
HETATM   22  C   UNL     1      10.363  29.565  56.265  1.00  0.00     0.006 A 
HETATM   23  C   UNL     1       9.138  29.273  55.677  1.00  0.00     0.037 A 
BRANCH  20  24
HETATM   24  N   UNL     1       9.229  30.762  59.582  1.00  0.00    -0.227 N 
HETATM   25  N   UNL     1       8.842  30.027  60.660  1.00  0.00    -0.179 NA
HETATM   26  C   UNL     1       9.029  30.842  61.701  1.00  0.00     0.141 A 
HETATM   27  C   UNL     1       9.530  32.097  61.323  1.00  0.00     0.040 A 
HETATM   28  C   UNL     1       9.650  32.022  59.957  1.00  0.00     0.122 A 
ENDBRANCH  20  24
ENDBRANCH   2  18
TORSDOF 7
ENDMDL
MODEL 4
REMARK VINA RESULT:      -8.4      2.676      9.414
REMARK  7 active torsions:
REMARK  status: ('A' for Active; 'I' for Inactive)
REMARK    1  A    between atoms: C_2  and  N_3 
REMARK    2  A    between atoms: C_2  and  C_17 
REMARK       I    between atoms: N_3  and  C_4 
REMARK    3  A    between atoms: C_4  and  C_5 
REMARK    4  A    between atoms: C_7  and  N_8 
REMARK    5  A    between atoms: C_17  and  O_18 
REMARK    6  A    between atoms: C_17  and  C_19 
REMARK    7  A    between atoms: C_22  and  O_23 
ROOT
HETATM    1  N   UNL     1       8.208  28.103  56.672  1.00  0.00    -0.349 N 
HETATM    2  C   UNL     1       7.746  26.862  57.039  1.00  0.00     0.270 C 
HETATM    3  O   UNL     1       7.863  26.404  58.171  1.00  0.00    -0.266 OA
HETATM    4  H   UNL     1       8.051  28.358  55.700  1.00  0.00     0.163 HD
ENDROOT
BRANCH   1   5
HETATM    5  C   UNL     1       8.782  29.105  57.577  1.00  0.00     0.114 C 
HETATM    6  C   UNL     1      10.196  29.484  57.128  1.00  0.00     0.035 C 
BRANCH   5   7
HETATM    7  C   UNL     1       7.905  30.373  57.822  1.00  0.00     0.173 C 
BRANCH   7   8
HETATM    8  O   UNL     1       6.545  30.227  57.413  1.00  0.00    -0.389 OA
HETATM    9  H   UNL     1       5.988  30.660  58.094  1.00  0.00     0.210 HD
ENDBRANCH   7   8
BRANCH   7  10
HETATM   10  C   UNL     1       7.984  30.896  59.245  1.00  0.00    -0.028 A 
HETATM   11  C   UNL     1       8.928  30.361  60.133  1.00  0.00     0.012 A 
HETATM   12  C   UNL     1       9.016  30.832  61.446  1.00  0.00     0.037 A 
HETATM   13  C   UNL     1       8.169  31.844  61.897  1.00  0.00     0.068 A 
HETATM   14  C   UNL     1       7.216  32.372  61.027  1.00  0.00     0.037 A 
HETATM   15  C   UNL     1       7.125  31.900  59.711  1.00  0.00     0.012 A 
BRANCH  13  16
HETATM   16  O   UNL     1       8.368  32.220  63.198  1.00  0.00    -0.356 OA
HETATM   17  C   UNL     1       7.383  33.067  63.774  1.00  0.00     0.210 C 
ENDBRANCH  13  16
ENDBRANCH   7  10
ENDBRANCH   5   7
ENDBRANCH   1   5
BRANCH   2  18
HETATM   18  C   UNL     1       7.070  26.094  55.943  1.00  0.00     0.126 A 
HETATM   19  N   UNL     1       7.559  24.847  55.692  1.00  0.00    -0.224 NA
HETATM   20  C   UNL     1       6.968  24.156  54.677  1.00  0.00     0.151 A 
HETATM   21  C   UNL     1       5.913  24.672  53.922  1.00  0.00     0.052 A 
HETATM   22  C   UNL     1       5.440  25.951  54.210  1.00  0.00     0.006 A 
HETATM   23  C   UNL     1       6.026  26.680  55.238  1.00  0.00     0.037 A 
BRANCH  20  24
HETATM   24  N   UNL     1       7.456  22.848  54.374  1.00  0.00    -0.227 N 
HETATM   25  N   UNL     1       7.635  21.894  55.330  1.00  0.00    -0.179 NA
HETATM   26  C   UNL     1       8.086  20.833  54.658  1.00  0.00     0.141 A 
HETATM   27  C   UNL     1       8.207  21.074  53.281  1.00  0.00     0.040 A 
HETATM   28  C   UNL     1       7.797  22.376  53.123  1.00  0.00     0.122 A 
ENDBRANCH  20  24
ENDBRANCH   2  18
TORSDOF 7
ENDMDL
MODEL 5
REMARK VINA RESULT:      -7.9      4.652      7.168
REMARK  7 active torsions:
REMARK  status: ('A' for Active; 'I' for Inactive)
REMARK    1  A    between atoms: C_2  and  N_3 
REMARK    2  A    between atoms: C_2  and  C_17 
REMARK       I    between atoms: N_3  and  C_4 
REMARK    3  A    between atoms: C_4  and  C_5 
REMARK    4  A    between atoms: C_7  and  N_8 
REMARK    5  A    between atoms: C_17  and  O_18 
REMARK    6  A    between atoms: C_17  and  C_19 
REMARK    7  A    between atoms: C_22  and  O_23 
ROOT
HETATM    1  N   UNL     1       5.953  26.231  55.017  1.00  0.00    -0.349 N 
HETATM    2  C   UNL     1       5.497  27.358  54.375  1.00  0.00     0.270 C 
HETATM    3  O   UNL     1       5.202  28.396  54.959  1.00  0.00    -0.266 OA
HETATM    4  H   UNL     1       6.155  25.437  54.415  1.00  0.00     0.163 HD
ENDROOT
BRANCH   1   5
HETATM    5  C   UNL     1       6.277  26.131  56.443  1.00  0.00     0.114 C 
HETATM    6  C   UNL     1       5.173  25.378  57.192  1.00  0.00     0.035 C 
BRANCH   5   7
HETATM    7  C   UNL     1       7.687  25.548  56.775  1.00  0.00     0.173 C 
BRANCH   7   8
HETATM    8  O   UNL     1       7.973  25.480  58.172  1.00  0.00    -0.389 OA
HETATM    9  H   UNL     1       7.123  25.329  58.637  1.00  0.00     0.210 HD
ENDBRANCH   7   8
BRANCH   7  10
HETATM   10  C   UNL     1       7.962  24.214  56.106  1.00  0.00    -0.028 A 
HETATM   11  C   UNL     1       8.244  23.086  56.889  1.00  0.00     0.012 A 
HETATM   12  C   UNL     1       8.497  21.849  56.290  1.00  0.00     0.037 A 
HETATM   13  C   UNL     1       8.472  21.712  54.902  1.00  0.00     0.068 A 
HETATM   14  C   UNL     1       8.208  22.831  54.113  1.00  0.00     0.037 A 
HETATM   15  C   UNL     1       7.956  24.072  54.712  1.00  0.00     0.012 A 
BRANCH  13  16
HETATM   16  O   UNL     1       8.726  20.447  54.446  1.00  0.00    -0.356 OA
HETATM   17  C   UNL     1       8.666  20.252  53.040  1.00  0.00     0.210 C 
ENDBRANCH  13  16
ENDBRANCH   7  10
ENDBRANCH   5   7
ENDBRANCH   1   5
BRANCH   2  18
HETATM   18  C   UNL     1       5.388  27.232  52.885  1.00  0.00     0.126 A 
HETATM   19  N   UNL     1       5.443  28.396  52.178  1.00  0.00    -0.224 NA
HETATM   20  C   UNL     1       5.315  28.290  50.825  1.00  0.00     0.151 A 
HETATM   21  C   UNL     1       5.139  27.068  50.173  1.00  0.00     0.052 A 
HETATM   22  C   UNL     1       5.090  25.900  50.932  1.00  0.00     0.006 A 
HETATM   23  C   UNL     1       5.215  25.978  52.314  1.00  0.00     0.037 A 
BRANCH  20  24
HETATM   24  N   UNL     1       5.358  29.486  50.045  1.00  0.00    -0.227 N 
HETATM   25  N   UNL     1       6.143  30.548  50.377  1.00  0.00    -0.179 NA
HETATM   26  C   UNL     1       5.911  31.445  49.416  1.00  0.00     0.141 A 
HETATM   27  C   UNL     1       4.987  30.991  48.462  1.00  0.00     0.040 A 
HETATM   28  C   UNL     1       4.645  29.730  48.889  1.00  0.00     0.122 A 
ENDBRANCH  20  24
ENDBRANCH   2  18
TORSDOF 7
ENDMDL
MODEL 6
REMARK VINA RESULT:      -7.8      3.536      9.082
REMARK  7 active torsions:
REMARK  status: ('A' for Active; 'I' for Inactive)
REMARK    1  A    between atoms: C_2  and  N_3 
REMARK    2  A    between atoms: C_2  and  C_17 
REMARK       I    between atoms: N_3  and  C_4 
REMARK    3  A    between atoms: C_4  and  C_5 
REMARK    4  A    between atoms: C_7  and  N_8 
REMARK    5  A    between atoms: C_17  and  O_18 
REMARK    6  A    between atoms: C_17  and  C_19 
REMARK    7  A    between atoms: C_22  and  O_23 
ROOT
HETATM    1  N   UNL     1       7.688  27.472  56.024  1.00  0.00    -0.349 N 
HETATM    2  C   UNL     1       6.703  26.631  55.563  1.00  0.00     0.270 C 
HETATM    3  O   UNL     1       5.538  26.683  55.944  1.00  0.00    -0.266 OA
HETATM    4  H   UNL     1       8.613  27.318  55.631  1.00  0.00     0.163 HD
ENDROOT
BRANCH   1   5
HETATM    5  C   UNL     1       7.487  28.617  56.917  1.00  0.00     0.114 C 
HETATM    6  C   UNL     1       8.805  29.005  57.596  1.00  0.00     0.035 C 
BRANCH   5   7
HETATM    7  C   UNL     1       6.792  29.859  56.276  1.00  0.00     0.173 C 
BRANCH   7   8
HETATM    8  O   UNL     1       6.279  29.625  54.964  1.00  0.00    -0.389 OA
HETATM    9  H   UNL     1       6.439  30.438  54.440  1.00  0.00     0.210 HD
ENDBRANCH   7   8
BRANCH   7  10
HETATM   10  C   UNL     1       5.731  30.483  57.164  1.00  0.00    -0.028 A 
HETATM   11  C   UNL     1       6.071  31.539  58.022  1.00  0.00     0.012 A 
HETATM   12  C   UNL     1       5.106  32.127  58.844  1.00  0.00     0.037 A 
HETATM   13  C   UNL     1       3.786  31.676  58.827  1.00  0.00     0.068 A 
HETATM   14  C   UNL     1       3.440  30.616  57.989  1.00  0.00     0.037 A 
HETATM   15  C   UNL     1       4.407  30.025  57.165  1.00  0.00     0.012 A 
BRANCH  13  16
HETATM   16  O   UNL     1       2.942  32.344  59.671  1.00  0.00    -0.356 OA
HETATM   17  C   UNL     1       3.528  32.931  60.825  1.00  0.00     0.210 C 
ENDBRANCH  13  16
ENDBRANCH   7  10
ENDBRANCH   5   7
ENDBRANCH   1   5
BRANCH   2  18
HETATM   18  C   UNL     1       7.156  25.632  54.542  1.00  0.00     0.126 A 
HETATM   19  N   UNL     1       7.374  24.365  54.994  1.00  0.00    -0.224 NA
HETATM   20  C   UNL     1       7.814  23.460  54.076  1.00  0.00     0.151 A 
HETATM   21  C   UNL     1       8.036  23.785  52.737  1.00  0.00     0.052 A 
HETATM   22  C   UNL     1       7.801  25.091  52.312  1.00  0.00     0.006 A 
HETATM   23  C   UNL     1       7.353  26.037  53.228  1.00  0.00     0.037 A 
BRANCH  20  24
HETATM   24  N   UNL     1       8.064  22.122  54.510  1.00  0.00    -0.227 N 
HETATM   25  N   UNL     1       8.606  21.177  53.693  1.00  0.00    -0.179 NA
HETATM   26  C   UNL     1       8.685  20.085  54.457  1.00  0.00     0.141 A 
HETATM   27  C   UNL     1       8.202  20.297  55.757  1.00  0.00     0.040 A 
HETATM   28  C   UNL     1       7.808  21.612  55.767  1.00  0.00     0.122 A 
ENDBRANCH  20  24
ENDBRANCH   2  18
TORSDOF 7
ENDMDL
MODEL 7
REMARK VINA RESULT:      -7.8      1.989      2.993
REMARK  7 active torsions:
REMARK  status: ('A' for Active; 'I' for Inactive)
REMARK    1  A    between atoms: C_2  and  N_3 
REMARK    2  A    between atoms: C_2  and  C_17 
REMARK       I    between atoms: N_3  and  C_4 
REMARK    3  A    between atoms: C_4  and  C_5 
REMARK    4  A    between atoms: C_7  and  N_8 
REMARK    5  A    between atoms: C_17  and  O_18 
REMARK    6  A    between atoms: C_17  and  C_19 
REMARK    7  A    between atoms: C_22  and  O_23 
ROOT
HETATM    1  N   UNL     1       5.419  27.364  54.567  1.00  0.00    -0.349 N 
HETATM    2  C   UNL     1       5.339  27.512  55.932  1.00  0.00     0.270 C 
HETATM    3  O   UNL     1       5.210  26.570  56.707  1.00  0.00    -0.266 OA
HETATM    4  H   UNL     1       5.519  28.227  54.039  1.00  0.00     0.163 HD
ENDROOT
BRANCH   1   5
HETATM    5  C   UNL     1       5.494  26.088  53.848  1.00  0.00     0.114 C 
HETATM    6  C   UNL     1       4.483  26.062  52.697  1.00  0.00     0.035 C 
BRANCH   5   7
HETATM    7  C   UNL     1       6.918  25.670  53.362  1.00  0.00     0.173 C 
BRANCH   7   8
HETATM    8  O   UNL     1       7.941  26.613  53.683  1.00  0.00    -0.389 OA
HETATM    9  H   UNL     1       8.068  27.184  52.896  1.00  0.00     0.210 HD
ENDBRANCH   7   8
BRANCH   7  10
HETATM   10  C   UNL     1       7.319  24.273  53.798  1.00  0.00    -0.028 A 
HETATM   11  C   UNL     1       7.887  23.388  52.870  1.00  0.00     0.012 A 
HETATM   12  C   UNL     1       8.264  22.099  53.255  1.00  0.00     0.037 A 
HETATM   13  C   UNL     1       8.085  21.668  54.569  1.00  0.00     0.068 A 
HETATM   14  C   UNL     1       7.506  22.533  55.496  1.00  0.00     0.037 A 
HETATM   15  C   UNL     1       7.126  23.825  55.112  1.00  0.00     0.012 A 
BRANCH  13  16
HETATM   16  O   UNL     1       8.507  20.389  54.815  1.00  0.00    -0.356 OA
HETATM   17  C   UNL     1       9.327  20.197  55.959  1.00  0.00     0.210 C 
ENDBRANCH  13  16
ENDBRANCH   7  10
ENDBRANCH   5   7
ENDBRANCH   1   5
BRANCH   2  18
HETATM   18  C   UNL     1       5.428  28.928  56.416  1.00  0.00     0.126 A 
HETATM   19  N   UNL     1       6.363  29.177  57.376  1.00  0.00    -0.224 NA
HETATM   20  C   UNL     1       6.429  30.456  57.841  1.00  0.00     0.151 A 
HETATM   21  C   UNL     1       5.597  31.476  57.376  1.00  0.00     0.052 A 
HETATM   22  C   UNL     1       4.654  31.181  56.393  1.00  0.00     0.006 A 
HETATM   23  C   UNL     1       4.563  29.884  55.901  1.00  0.00     0.037 A 
BRANCH  20  24
HETATM   24  N   UNL     1       7.389  30.760  58.854  1.00  0.00    -0.227 N 
HETATM   25  N   UNL     1       8.317  29.858  59.276  1.00  0.00    -0.179 NA
HETATM   26  C   UNL     1       9.017  30.512  60.205  1.00  0.00     0.141 A 
HETATM   27  C   UNL     1       8.564  31.825  60.400  1.00  0.00     0.040 A 
HETATM   28  C   UNL     1       7.516  31.961  59.522  1.00  0.00     0.122 A 
ENDBRANCH  20  24
ENDBRANCH   2  18
TORSDOF 7
ENDMDL
MODEL 8
REMARK VINA RESULT:      -7.8      2.242      3.064
REMARK  7 active torsions:
REMARK  status: ('A' for Active; 'I' for Inactive)
REMARK    1  A    between atoms: C_2  and  N_3 
REMARK    2  A    between atoms: C_2  and  C_17 
REMARK       I    between atoms: N_3  and  C_4 
REMARK    3  A    between atoms: C_4  and  C_5 
REMARK    4  A    between atoms: C_7  and  N_8 
REMARK    5  A    between atoms: C_17  and  O_18 
REMARK    6  A    between atoms: C_17  and  C_19 
REMARK    7  A    between atoms: C_22  and  O_23 
ROOT
HETATM    1  N   UNL     1       5.936  28.182  53.299  1.00  0.00    -0.349 N 
HETATM    2  C   UNL     1       5.424  28.550  54.520  1.00  0.00     0.270 C 
HETATM    3  O   UNL     1       4.255  28.882  54.691  1.00  0.00    -0.266 OA
HETATM    4  H   UNL     1       6.923  27.936  53.295  1.00  0.00     0.163 HD
ENDROOT
BRANCH   1   5
HETATM    5  C   UNL     1       5.164  28.005  52.065  1.00  0.00     0.114 C 
HETATM    6  C   UNL     1       5.540  29.079  51.039  1.00  0.00     0.035 C 
BRANCH   5   7
HETATM    7  C   UNL     1       5.215  26.578  51.435  1.00  0.00     0.173 C 
BRANCH   7   8
HETATM    8  O   UNL     1       5.631  26.559  50.070  1.00  0.00    -0.389 OA
HETATM    9  H   UNL     1       6.609  26.638  50.063  1.00  0.00     0.210 HD
ENDBRANCH   7   8
BRANCH   7  10
HETATM   10  C   UNL     1       6.020  25.585  52.255  1.00  0.00    -0.028 A 
HETATM   11  C   UNL     1       5.485  25.065  53.442  1.00  0.00     0.012 A 
HETATM   12  C   UNL     1       6.211  24.148  54.208  1.00  0.00     0.037 A 
HETATM   13  C   UNL     1       7.480  23.732  53.805  1.00  0.00     0.068 A 
HETATM   14  C   UNL     1       8.028  24.255  52.635  1.00  0.00     0.037 A 
HETATM   15  C   UNL     1       7.302  25.175  51.867  1.00  0.00     0.012 A 
BRANCH  13  16
HETATM   16  O   UNL     1       8.076  22.825  54.638  1.00  0.00    -0.356 OA
HETATM   17  C   UNL     1       9.055  21.974  54.058  1.00  0.00     0.210 C 
ENDBRANCH  13  16
ENDBRANCH   7  10
ENDBRANCH   5   7
ENDBRANCH   1   5
BRANCH   2  18
HETATM   18  C   UNL     1       6.407  28.510  55.651  1.00  0.00     0.126 A 
HETATM   19  N   UNL     1       6.323  29.526  56.556  1.00  0.00    -0.224 NA
HETATM   20  C   UNL     1       7.233  29.511  57.571  1.00  0.00     0.151 A 
HETATM   21  C   UNL     1       8.207  28.520  57.701  1.00  0.00     0.052 A 
HETATM   22  C   UNL     1       8.259  27.497  56.757  1.00  0.00     0.006 A 
HETATM   23  C   UNL     1       7.345  27.488  55.710  1.00  0.00     0.037 A 
BRANCH  20  24
HETATM   24  N   UNL     1       7.187  30.563  58.537  1.00  0.00    -0.227 N 
HETATM   25  N   UNL     1       6.257  31.556  58.494  1.00  0.00    -0.179 NA
HETATM   26  C   UNL     1       6.539  32.320  59.551  1.00  0.00     0.141 A 
HETATM   27  C   UNL     1       7.638  31.848  60.284  1.00  0.00     0.040 A 
HETATM   28  C   UNL     1       8.038  30.718  59.613  1.00  0.00     0.122 A 
ENDBRANCH  20  24
ENDBRANCH   2  18
TORSDOF 7
ENDMDL
MODEL 9
REMARK VINA RESULT:      -7.8      6.402     10.135
REMARK  7 active torsions:
REMARK  status: ('A' for Active; 'I' for Inactive)
REMARK    1  A    between atoms: C_2  and  N_3 
REMARK    2  A    between atoms: C_2  and  C_17 
REMARK       I    between atoms: N_3  and  C_4 
REMARK    3  A    between atoms: C_4  and  C_5 
REMARK    4  A    between atoms: C_7  and  N_8 
REMARK    5  A    between atoms: C_17  and  O_18 
REMARK    6  A    between atoms: C_17  and  C_19 
REMARK    7  A    between atoms: C_22  and  O_23 
ROOT
HETATM    1  N   UNL     1       4.590  26.799  51.027  1.00  0.00    -0.349 N 
HETATM    2  C   UNL     1       4.774  27.428  49.818  1.00  0.00     0.270 C 
HETATM    3  O   UNL     1       5.688  28.216  49.599  1.00  0.00    -0.266 OA
HETATM    4  H   UNL     1       3.789  26.174  51.076  1.00  0.00     0.163 HD
ENDROOT
BRANCH   1   5
HETATM    5  C   UNL     1       5.502  26.863  52.173  1.00  0.00     0.114 C 
HETATM    6  C   UNL     1       5.664  28.311  52.648  1.00  0.00     0.035 C 
BRANCH   5   7
HETATM    7  C   UNL     1       5.159  25.911  53.362  1.00  0.00     0.173 C 
BRANCH   7   8
HETATM    8  O   UNL     1       3.877  25.293  53.260  1.00  0.00    -0.389 OA
HETATM    9  H   UNL     1       3.213  26.010  53.181  1.00  0.00     0.210 HD
ENDBRANCH   7   8
BRANCH   7  10
HETATM   10  C   UNL     1       6.235  24.875  53.636  1.00  0.00    -0.028 A 
HETATM   11  C   UNL     1       7.022  24.392  52.581  1.00  0.00     0.012 A 
HETATM   12  C   UNL     1       8.018  23.440  52.815  1.00  0.00     0.037 A 
HETATM   13  C   UNL     1       8.249  22.953  54.102  1.00  0.00     0.068 A 
HETATM   14  C   UNL     1       7.461  23.415  55.155  1.00  0.00     0.037 A 
HETATM   15  C   UNL     1       6.461  24.368  54.922  1.00  0.00     0.012 A 
BRANCH  13  16
HETATM   16  O   UNL     1       9.258  22.035  54.194  1.00  0.00    -0.356 OA
HETATM   17  C   UNL     1       9.241  21.180  55.329  1.00  0.00     0.210 C 
ENDBRANCH  13  16
ENDBRANCH   7  10
ENDBRANCH   5   7
ENDBRANCH   1   5
BRANCH   2  18
HETATM   18  C   UNL     1       3.767  27.074  48.766  1.00  0.00     0.126 A 
HETATM   19  N   UNL     1       2.855  28.039  48.457  1.00  0.00    -0.224 NA
HETATM   20  C   UNL     1       1.920  27.712  47.521  1.00  0.00     0.151 A 
HETATM   21  C   UNL     1       1.876  26.465  46.896  1.00  0.00     0.052 A 
HETATM   22  C   UNL     1       2.826  25.505  47.238  1.00  0.00     0.006 A 
HETATM   23  C   UNL     1       3.792  25.810  48.191  1.00  0.00     0.037 A 
BRANCH  20  24
HETATM   24  N   UNL     1       0.939  28.692  47.174  1.00  0.00    -0.227 N 
HETATM   25  N   UNL     1      -0.103  28.420  46.341  1.00  0.00    -0.179 NA
HETATM   26  C   UNL     1      -0.783  29.567  46.276  1.00  0.00     0.141 A 
HETATM   27  C   UNL     1      -0.204  30.585  47.049  1.00  0.00     0.040 A 
HETATM   28  C   UNL     1       0.902  29.999  47.615  1.00  0.00     0.122 A 
ENDBRANCH  20  24
ENDBRANCH   2  18
TORSDOF 7
ENDMDL
MODEL 10
REMARK VINA RESULT:      -7.7      4.728      7.633
REMARK  7 active torsions:
REMARK  status: ('A' for Active; 'I' for Inactive)
REMARK    1  A    between atoms: C_2  and  N_3 
REMARK    2  A    between atoms: C_2  and  C_17 
REMARK       I    between atoms: N_3  and  C_4 
REMARK    3  A    between atoms: C_4  and  C_5 
REMARK    4  A    between atoms: C_7  and  N_8 
REMARK    5  A    between atoms: C_17  and  O_18 
REMARK    6  A    between atoms: C_17  and  C_19 
REMARK    7  A    between atoms: C_22  and  O_23 
ROOT
HETATM    1  N   UNL     1       5.592  26.794  54.506  1.00  0.00    -0.349 N 
HETATM    2  C   UNL     1       6.684  27.080  55.290  1.00  0.00     0.270 C 
HETATM    3  O   UNL     1       7.042  28.221  55.560  1.00  0.00    -0.266 OA
HETATM    4  H   UNL     1       5.409  25.805  54.355  1.00  0.00     0.163 HD
ENDROOT
BRANCH   1   5
HETATM    5  C   UNL     1       4.631  27.773  53.988  1.00  0.00     0.114 C 
HETATM    6  C   UNL     1       4.131  28.681  55.115  1.00  0.00     0.035 C 
BRANCH   5   7
HETATM    7  C   UNL     1       5.114  28.607  52.759  1.00  0.00     0.173 C 
BRANCH   7   8
HETATM    8  O   UNL     1       6.512  28.895  52.766  1.00  0.00    -0.389 OA
HETATM    9  H   UNL     1       6.699  29.409  53.581  1.00  0.00     0.210 HD
ENDBRANCH   7   8
BRANCH   7  10
HETATM   10  C   UNL     1       4.694  28.017  51.425  1.00  0.00    -0.028 A 
HETATM   11  C   UNL     1       5.259  26.810  50.988  1.00  0.00     0.012 A 
HETATM   12  C   UNL     1       4.882  26.251  49.764  1.00  0.00     0.037 A 
HETATM   13  C   UNL     1       3.937  26.881  48.954  1.00  0.00     0.068 A 
HETATM   14  C   UNL     1       3.382  28.089  49.372  1.00  0.00     0.037 A 
HETATM   15  C   UNL     1       3.759  28.652  50.598  1.00  0.00     0.012 A 
BRANCH  13  16
HETATM   16  O   UNL     1       3.652  26.222  47.790  1.00  0.00    -0.356 OA
HETATM   17  C   UNL     1       2.939  24.998  47.908  1.00  0.00     0.210 C 
ENDBRANCH  13  16
ENDBRANCH   7  10
ENDBRANCH   5   7
ENDBRANCH   1   5
BRANCH   2  18
HETATM   18  C   UNL     1       7.416  25.879  55.809  1.00  0.00     0.126 A 
HETATM   19  N   UNL     1       7.401  24.774  55.011  1.00  0.00    -0.224 NA
HETATM   20  C   UNL     1       8.040  23.670  55.490  1.00  0.00     0.151 A 
HETATM   21  C   UNL     1       8.686  23.646  56.728  1.00  0.00     0.052 A 
HETATM   22  C   UNL     1       8.681  24.796  57.514  1.00  0.00     0.006 A 
HETATM   23  C   UNL     1       8.035  25.936  57.051  1.00  0.00     0.037 A 
BRANCH  20  24
HETATM   24  N   UNL     1       8.040  22.487  54.690  1.00  0.00    -0.227 N 
HETATM   25  N   UNL     1       8.061  22.524  53.329  1.00  0.00    -0.179 NA
HETATM   26  C   UNL     1       8.062  21.241  52.962  1.00  0.00     0.141 A 
HETATM   27  C   UNL     1       8.041  20.364  54.057  1.00  0.00     0.040 A 
HETATM   28  C   UNL     1       8.027  21.188  55.157  1.00  0.00     0.122 A 
ENDBRANCH  20  24
ENDBRANCH   2  18
TORSDOF 7
ENDMDL
