MODEL 1
REMARK VINA RESULT:     -10.5      0.000      0.000
REMARK  4 active torsions:
REMARK  status: ('A' for Active; 'I' for Inactive)
REMARK    1  A    between atoms: C_6  and  C_7 
REMARK    2  A    between atoms: C_8  and  C_9 
REMARK       I    between atoms: C_9  and  N_10 
REMARK    3  A    between atoms: N_10  and  C_11 
REMARK    4  A    between atoms: C_18  and  C_19 
REMARK       I    between atoms: C_19  and  N_20 
ROOT
HETATM    1  C   UNL     1       7.360  27.578  56.075  1.00  0.00     0.035 A 
HETATM    2  C   UNL     1       8.330  28.477  56.539  1.00  0.00     0.046 A 
HETATM    3  C   UNL     1       7.962  29.504  57.435  1.00  0.00     0.030 A 
HETATM    4  C   UNL     1       6.637  29.598  57.837  1.00  0.00     0.063 A 
HETATM    5  N   UNL     1       6.595  30.662  58.695  1.00  0.00    -0.277 N 
HETATM    6  H   UNL     1       5.786  31.021  59.189  1.00  0.00     0.189 HD
HETATM    7  N   UNL     1       7.775  31.276  58.880  1.00  0.00    -0.168 NA
HETATM    8  C   UNL     1       8.631  30.572  58.104  1.00  0.00     0.156 A 
HETATM    9  C   UNL     1       5.641  28.727  57.390  1.00  0.00     0.034 A 
HETATM   10  C   UNL     1       6.032  27.720  56.497  1.00  0.00     0.032 A 
ENDROOT
BRANCH   1  11
HETATM   11  N   UNL     1       7.643  26.504  55.204  1.00  0.00    -0.327 N 
HETATM   12  C   UNL     1       7.432  26.465  53.842  1.00  0.00     0.227 C 
HETATM   13  O   UNL     1       6.900  27.316  53.148  1.00  0.00    -0.273 OA
HETATM   14  H   UNL     1       8.089  25.699  55.616  1.00  0.00     0.169 HD
BRANCH  12  15
HETATM   15  C   UNL     1       7.944  25.248  53.155  1.00  0.00     0.087 A 
HETATM   16  C   UNL     1       6.987  24.059  53.134  1.00  0.00     0.032 A 
HETATM   17  C   UNL     1       7.485  24.661  51.849  1.00  0.00     0.025 A 
BRANCH  16  18
HETATM   18  C   UNL     1       7.478  22.751  53.694  1.00  0.00    -0.051 A 
HETATM   19  C   UNL     1       7.648  22.536  55.070  1.00  0.00     0.031 A 
HETATM   20  C   UNL     1       8.145  21.321  55.549  1.00  0.00     0.034 A 
HETATM   21  C   UNL     1       8.489  20.298  54.669  1.00  0.00     0.024 A 
HETATM   22 CL   UNL     1       8.339  21.089  57.243  1.00  0.00    -0.084 Cl
HETATM   23  C   UNL     1       8.333  20.491  53.300  1.00  0.00     0.002 A 
HETATM   24  C   UNL     1       7.833  21.704  52.824  1.00  0.00     0.007 A 
ENDBRANCH  16  18
ENDBRANCH  12  15
ENDBRANCH   1  11
BRANCH   8  25
HETATM   25  C   UNL     1      10.054  30.931  58.020  1.00  0.00     0.270 C 
HETATM   26  N   UNL     1      10.844  29.959  57.468  1.00  0.00    -0.365 N 
HETATM   27  H   UNL     1      10.412  29.092  57.173  1.00  0.00     0.159 HD
HETATM   28  H   UNL     1      11.835  30.115  57.378  1.00  0.00     0.159 HD
HETATM   29  O   UNL     1      10.532  31.994  58.401  1.00  0.00    -0.266 OA
ENDBRANCH   8  25
TORSDOF 4
ENDMDL
MODEL 2
REMARK VINA RESULT:      -9.9      5.328     10.168
REMARK  4 active torsions:
REMARK  status: ('A' for Active; 'I' for Inactive)
REMARK    1  A    between atoms: C_6  and  C_7 
REMARK    2  A    between atoms: C_8  and  C_9 
REMARK       I    between atoms: C_9  and  N_10 
REMARK    3  A    between atoms: N_10  and  C_11 
REMARK    4  A    between atoms: C_18  and  C_19 
REMARK       I    between atoms: C_19  and  N_20 
ROOT
HETATM    1  C   UNL     1       8.547  29.810  58.070  1.00  0.00     0.035 A 
HETATM    2  C   UNL     1       7.318  29.348  57.581  1.00  0.00     0.046 A 
HETATM    3  C   UNL     1       7.217  28.905  56.244  1.00  0.00     0.030 A 
HETATM    4  C   UNL     1       8.349  28.937  55.442  1.00  0.00     0.063 A 
HETATM    5  N   UNL     1       7.947  28.445  54.231  1.00  0.00    -0.277 N 
HETATM    6  H   UNL     1       8.516  28.317  53.401  1.00  0.00     0.189 HD
HETATM    7  N   UNL     1       6.649  28.104  54.171  1.00  0.00    -0.168 NA
HETATM    8  C   UNL     1       6.183  28.385  55.409  1.00  0.00     0.156 A 
HETATM    9  C   UNL     1       9.589  29.398  55.891  1.00  0.00     0.034 A 
HETATM   10  C   UNL     1       9.660  29.838  57.219  1.00  0.00     0.032 A 
ENDROOT
BRANCH   1  11
HETATM   11  N   UNL     1       8.746  30.244  59.398  1.00  0.00    -0.327 N 
HETATM   12  C   UNL     1       9.111  31.507  59.811  1.00  0.00     0.227 C 
HETATM   13  O   UNL     1       9.399  32.463  59.110  1.00  0.00    -0.273 OA
HETATM   14  H   UNL     1       8.556  29.568  60.122  1.00  0.00     0.169 HD
BRANCH  12  15
HETATM   15  C   UNL     1       9.125  31.714  61.285  1.00  0.00     0.087 A 
HETATM   16  C   UNL     1       7.782  31.521  61.985  1.00  0.00     0.032 A 
HETATM   17  C   UNL     1       8.970  30.682  62.367  1.00  0.00     0.025 A 
BRANCH  16  18
HETATM   18  C   UNL     1       7.254  32.657  62.820  1.00  0.00    -0.051 A 
HETATM   19  C   UNL     1       6.388  33.632  62.304  1.00  0.00     0.031 A 
HETATM   20  C   UNL     1       5.950  34.695  63.100  1.00  0.00     0.034 A 
HETATM   21  C   UNL     1       6.372  34.812  64.421  1.00  0.00     0.024 A 
HETATM   22 CL   UNL     1       4.886  35.874  62.437  1.00  0.00    -0.084 Cl
HETATM   23  C   UNL     1       7.235  33.859  64.952  1.00  0.00     0.002 A 
HETATM   24  C   UNL     1       7.667  32.796  64.157  1.00  0.00     0.007 A 
ENDBRANCH  16  18
ENDBRANCH  12  15
ENDBRANCH   1  11
BRANCH   8  25
HETATM   25  C   UNL     1       4.776  28.154  55.764  1.00  0.00     0.270 C 
HETATM   26  N   UNL     1       4.586  27.143  56.667  1.00  0.00    -0.365 N 
HETATM   27  H   UNL     1       5.395  26.640  57.009  1.00  0.00     0.159 HD
HETATM   28  H   UNL     1       3.652  26.909  56.962  1.00  0.00     0.159 HD
HETATM   29  O   UNL     1       3.827  28.786  55.313  1.00  0.00    -0.266 OA
ENDBRANCH   8  25
TORSDOF 4
ENDMDL
MODEL 3
REMARK VINA RESULT:      -9.9      1.991      3.093
REMARK  4 active torsions:
REMARK  status: ('A' for Active; 'I' for Inactive)
REMARK    1  A    between atoms: C_6  and  C_7 
REMARK    2  A    between atoms: C_8  and  C_9 
REMARK       I    between atoms: C_9  and  N_10 
REMARK    3  A    between atoms: N_10  and  C_11 
REMARK    4  A    between atoms: C_18  and  C_19 
REMARK       I    between atoms: C_19  and  N_20 
ROOT
HETATM    1  C   UNL     1       8.116  28.551  57.495  1.00  0.00     0.035 A 
HETATM    2  C   UNL     1       7.648  29.463  58.450  1.00  0.00     0.046 A 
HETATM    3  C   UNL     1       8.440  30.576  58.804  1.00  0.00     0.030 A 
HETATM    4  C   UNL     1       9.674  30.742  58.190  1.00  0.00     0.063 A 
HETATM    5  N   UNL     1      10.189  31.892  58.720  1.00  0.00    -0.277 N 
HETATM    6  H   UNL     1      11.078  32.326  58.498  1.00  0.00     0.189 HD
HETATM    7  N   UNL     1       9.404  32.486  59.634  1.00  0.00    -0.168 NA
HETATM    8  C   UNL     1       8.318  31.682  59.699  1.00  0.00     0.156 A 
HETATM    9  C   UNL     1      10.178  29.851  57.239  1.00  0.00     0.034 A 
HETATM   10  C   UNL     1       9.374  28.751  56.911  1.00  0.00     0.032 A 
ENDROOT
BRANCH   1  11
HETATM   11  N   UNL     1       7.380  27.428  57.059  1.00  0.00    -0.327 N 
HETATM   12  C   UNL     1       6.710  27.292  55.863  1.00  0.00     0.227 C 
HETATM   13  O   UNL     1       6.565  28.134  54.991  1.00  0.00    -0.273 OA
HETATM   14  H   UNL     1       7.386  26.626  57.669  1.00  0.00     0.169 HD
BRANCH  12  15
HETATM   15  C   UNL     1       6.123  25.946  55.613  1.00  0.00     0.087 A 
HETATM   16  C   UNL     1       6.956  24.768  56.112  1.00  0.00     0.032 A 
HETATM   17  C   UNL     1       5.557  24.983  56.618  1.00  0.00     0.025 A 
BRANCH  16  18
HETATM   18  C   UNL     1       7.334  23.703  55.117  1.00  0.00    -0.051 A 
HETATM   19  C   UNL     1       7.679  22.400  55.502  1.00  0.00     0.031 A 
HETATM   20  C   UNL     1       8.064  21.450  54.551  1.00  0.00     0.034 A 
HETATM   21  C   UNL     1       8.121  21.781  53.200  1.00  0.00     0.024 A 
HETATM   22 CL   UNL     1       8.478  19.858  55.057  1.00  0.00    -0.084 Cl
HETATM   23  C   UNL     1       7.788  23.070  52.796  1.00  0.00     0.002 A 
HETATM   24  C   UNL     1       7.400  24.016  53.747  1.00  0.00     0.007 A 
ENDBRANCH  16  18
ENDBRANCH  12  15
ENDBRANCH   1  11
BRANCH   8  25
HETATM   25  C   UNL     1       7.200  31.983  60.603  1.00  0.00     0.270 C 
HETATM   26  N   UNL     1       7.134  31.169  61.701  1.00  0.00    -0.365 N 
HETATM   27  H   UNL     1       7.828  30.441  61.807  1.00  0.00     0.159 HD
HETATM   28  H   UNL     1       6.393  31.298  62.372  1.00  0.00     0.159 HD
HETATM   29  O   UNL     1       6.375  32.873  60.425  1.00  0.00    -0.266 OA
ENDBRANCH   8  25
TORSDOF 4
ENDMDL
MODEL 4
REMARK VINA RESULT:      -9.8      1.810      2.766
REMARK  4 active torsions:
REMARK  status: ('A' for Active; 'I' for Inactive)
REMARK    1  A    between atoms: C_6  and  C_7 
REMARK    2  A    between atoms: C_8  and  C_9 
REMARK       I    between atoms: C_9  and  N_10 
REMARK    3  A    between atoms: N_10  and  C_11 
REMARK    4  A    between atoms: C_18  and  C_19 
REMARK       I    between atoms: C_19  and  N_20 
ROOT
HETATM    1  C   UNL     1       7.711  28.114  56.220  1.00  0.00     0.035 A 
HETATM    2  C   UNL     1       6.521  28.780  56.541  1.00  0.00     0.046 A 
HETATM    3  C   UNL     1       6.543  29.855  57.454  1.00  0.00     0.030 A 
HETATM    4  C   UNL     1       7.756  30.230  58.016  1.00  0.00     0.063 A 
HETATM    5  N   UNL     1       7.463  31.287  58.834  1.00  0.00    -0.277 N 
HETATM    6  H   UNL     1       8.111  31.820  59.403  1.00  0.00     0.189 HD
HETATM    7  N   UNL     1       6.164  31.626  58.863  1.00  0.00    -0.168 NA
HETATM    8  C   UNL     1       5.581  30.748  58.015  1.00  0.00     0.156 A 
HETATM    9  C   UNL     1       8.961  29.587  57.728  1.00  0.00     0.034 A 
HETATM   10  C   UNL     1       8.910  28.518  56.822  1.00  0.00     0.032 A 
ENDROOT
BRANCH   1  11
HETATM   11  N   UNL     1       7.787  27.050  55.296  1.00  0.00    -0.327 N 
HETATM   12  C   UNL     1       7.465  27.092  53.957  1.00  0.00     0.227 C 
HETATM   13  O   UNL     1       6.987  28.028  53.336  1.00  0.00    -0.273 OA
HETATM   14  H   UNL     1       8.161  26.181  55.644  1.00  0.00     0.169 HD
BRANCH  12  15
HETATM   15  C   UNL     1       7.764  25.850  53.192  1.00  0.00     0.087 A 
HETATM   16  C   UNL     1       6.766  24.711  53.379  1.00  0.00     0.032 A 
HETATM   17  C   UNL     1       7.019  25.286  52.014  1.00  0.00     0.025 A 
BRANCH  16  18
HETATM   18  C   UNL     1       7.296  23.379  53.841  1.00  0.00    -0.051 A 
HETATM   19  C   UNL     1       7.493  23.075  55.196  1.00  0.00     0.031 A 
HETATM   20  C   UNL     1       8.025  21.842  55.584  1.00  0.00     0.034 A 
HETATM   21  C   UNL     1       8.380  20.891  54.630  1.00  0.00     0.024 A 
HETATM   22 CL   UNL     1       8.252  21.499  57.255  1.00  0.00    -0.084 Cl
HETATM   23  C   UNL     1       8.198  21.174  53.280  1.00  0.00     0.002 A 
HETATM   24  C   UNL     1       7.662  22.404  52.896  1.00  0.00     0.007 A 
ENDBRANCH  16  18
ENDBRANCH  12  15
ENDBRANCH   1  11
BRANCH   8  25
HETATM   25  C   UNL     1       4.134  30.779  57.761  1.00  0.00     0.270 C 
HETATM   26  N   UNL     1       3.376  30.282  58.786  1.00  0.00    -0.365 N 
HETATM   27  H   UNL     1       3.845  29.935  59.613  1.00  0.00     0.159 HD
HETATM   28  H   UNL     1       2.372  30.257  58.696  1.00  0.00     0.159 HD
HETATM   29  O   UNL     1       3.612  31.203  56.736  1.00  0.00    -0.266 OA
ENDBRANCH   8  25
TORSDOF 4
ENDMDL
MODEL 5
REMARK VINA RESULT:      -9.7      4.546      6.811
REMARK  4 active torsions:
REMARK  status: ('A' for Active; 'I' for Inactive)
REMARK    1  A    between atoms: C_6  and  C_7 
REMARK    2  A    between atoms: C_8  and  C_9 
REMARK       I    between atoms: C_9  and  N_10 
REMARK    3  A    between atoms: N_10  and  C_11 
REMARK    4  A    between atoms: C_18  and  C_19 
REMARK       I    between atoms: C_19  and  N_20 
ROOT
HETATM    1  C   UNL     1       4.814  27.492  52.186  1.00  0.00     0.035 A 
HETATM    2  C   UNL     1       4.877  27.280  50.802  1.00  0.00     0.046 A 
HETATM    3  C   UNL     1       4.203  28.159  49.927  1.00  0.00     0.030 A 
HETATM    4  C   UNL     1       3.490  29.222  50.464  1.00  0.00     0.063 A 
HETATM    5  N   UNL     1       2.969  29.887  49.389  1.00  0.00    -0.277 N 
HETATM    6  H   UNL     1       2.395  30.722  49.404  1.00  0.00     0.189 HD
HETATM    7  N   UNL     1       3.271  29.344  48.198  1.00  0.00    -0.168 NA
HETATM    8  C   UNL     1       4.033  28.273  48.514  1.00  0.00     0.156 A 
HETATM    9  C   UNL     1       3.398  29.462  51.837  1.00  0.00     0.034 A 
HETATM   10  C   UNL     1       4.071  28.570  52.684  1.00  0.00     0.032 A 
ENDROOT
BRANCH   1  11
HETATM   11  N   UNL     1       5.480  26.683  53.132  1.00  0.00    -0.327 N 
HETATM   12  C   UNL     1       5.223  25.360  53.416  1.00  0.00     0.227 C 
HETATM   13  O   UNL     1       4.332  24.661  52.960  1.00  0.00    -0.273 OA
HETATM   14  H   UNL     1       6.255  27.108  53.617  1.00  0.00     0.169 HD
BRANCH  12  15
HETATM   15  C   UNL     1       6.167  24.720  54.372  1.00  0.00     0.087 A 
HETATM   16  C   UNL     1       7.489  24.250  53.770  1.00  0.00     0.032 A 
HETATM   17  C   UNL     1       7.474  25.259  54.883  1.00  0.00     0.025 A 
BRANCH  16  18
HETATM   18  C   UNL     1       7.871  22.805  53.951  1.00  0.00    -0.051 A 
HETATM   19  C   UNL     1       8.288  22.285  55.185  1.00  0.00     0.031 A 
HETATM   20  C   UNL     1       8.673  20.946  55.304  1.00  0.00     0.034 A 
HETATM   21  C   UNL     1       8.657  20.101  54.197  1.00  0.00     0.024 A 
HETATM   22 CL   UNL     1       9.178  20.338  56.833  1.00  0.00    -0.084 Cl
HETATM   23  C   UNL     1       8.252  20.599  52.962  1.00  0.00     0.002 A 
HETATM   24  C   UNL     1       7.864  21.934  52.846  1.00  0.00     0.007 A 
ENDBRANCH  16  18
ENDBRANCH  12  15
ENDBRANCH   1  11
BRANCH   8  25
HETATM   25  C   UNL     1       4.576  27.389  47.473  1.00  0.00     0.270 C 
HETATM   26  N   UNL     1       5.890  27.624  47.170  1.00  0.00    -0.365 N 
HETATM   27  H   UNL     1       6.376  28.365  47.660  1.00  0.00     0.159 HD
HETATM   28  H   UNL     1       6.343  27.071  46.461  1.00  0.00     0.159 HD
HETATM   29  O   UNL     1       3.942  26.510  46.900  1.00  0.00    -0.266 OA
ENDBRANCH   8  25
TORSDOF 4
ENDMDL
MODEL 6
REMARK VINA RESULT:      -9.6      2.525      3.602
REMARK  4 active torsions:
REMARK  status: ('A' for Active; 'I' for Inactive)
REMARK    1  A    between atoms: C_6  and  C_7 
REMARK    2  A    between atoms: C_8  and  C_9 
REMARK       I    between atoms: C_9  and  N_10 
REMARK    3  A    between atoms: N_10  and  C_11 
REMARK    4  A    between atoms: C_18  and  C_19 
REMARK       I    between atoms: C_19  and  N_20 
ROOT
HETATM    1  C   UNL     1       7.470  28.799  57.060  1.00  0.00     0.035 A 
HETATM    2  C   UNL     1       6.280  29.463  57.385  1.00  0.00     0.046 A 
HETATM    3  C   UNL     1       6.317  30.595  58.228  1.00  0.00     0.030 A 
HETATM    4  C   UNL     1       7.543  31.025  58.717  1.00  0.00     0.063 A 
HETATM    5  N   UNL     1       7.262  32.126  59.478  1.00  0.00    -0.277 N 
HETATM    6  H   UNL     1       7.920  32.705  59.987  1.00  0.00     0.189 HD
HETATM    7  N   UNL     1       5.958  32.445  59.537  1.00  0.00    -0.168 NA
HETATM    8  C   UNL     1       5.360  31.505  58.770  1.00  0.00     0.156 A 
HETATM    9  C   UNL     1       8.749  30.385  58.422  1.00  0.00     0.034 A 
HETATM   10  C   UNL     1       8.683  29.260  57.588  1.00  0.00     0.032 A 
ENDROOT
BRANCH   1  11
HETATM   11  N   UNL     1       7.531  27.680  56.202  1.00  0.00    -0.327 N 
HETATM   12  C   UNL     1       7.788  26.374  56.561  1.00  0.00     0.227 C 
HETATM   13  O   UNL     1       8.080  25.952  57.667  1.00  0.00    -0.273 OA
HETATM   14  H   UNL     1       7.318  27.849  55.231  1.00  0.00     0.169 HD
BRANCH  12  15
HETATM   15  C   UNL     1       7.664  25.377  55.462  1.00  0.00     0.087 A 
HETATM   16  C   UNL     1       6.896  24.107  55.816  1.00  0.00     0.032 A 
HETATM   17  C   UNL     1       6.430  24.994  54.695  1.00  0.00     0.025 A 
BRANCH  16  18
HETATM   18  C   UNL     1       7.588  22.786  55.610  1.00  0.00    -0.051 A 
HETATM   19  C   UNL     1       7.688  22.176  54.351  1.00  0.00     0.031 A 
HETATM   20  C   UNL     1       8.304  20.929  54.206  1.00  0.00     0.034 A 
HETATM   21  C   UNL     1       8.823  20.261  55.312  1.00  0.00     0.024 A 
HETATM   22 CL   UNL     1       8.414  20.209  52.646  1.00  0.00    -0.084 Cl
HETATM   23  C   UNL     1       8.729  20.846  56.571  1.00  0.00     0.002 A 
HETATM   24  C   UNL     1       8.118  22.093  56.713  1.00  0.00     0.007 A 
ENDBRANCH  16  18
ENDBRANCH  12  15
ENDBRANCH   1  11
BRANCH   8  25
HETATM   25  C   UNL     1       3.904  31.496  58.572  1.00  0.00     0.270 C 
HETATM   26  N   UNL     1       3.244  30.556  59.315  1.00  0.00    -0.365 N 
HETATM   27  H   UNL     1       3.784  29.950  59.920  1.00  0.00     0.159 HD
HETATM   28  H   UNL     1       2.243  30.471  59.236  1.00  0.00     0.159 HD
HETATM   29  O   UNL     1       3.295  32.246  57.816  1.00  0.00    -0.266 OA
ENDBRANCH   8  25
TORSDOF 4
ENDMDL
MODEL 7
REMARK VINA RESULT:      -9.6      1.432      1.746
REMARK  4 active torsions:
REMARK  status: ('A' for Active; 'I' for Inactive)
REMARK    1  A    between atoms: C_6  and  C_7 
REMARK    2  A    between atoms: C_8  and  C_9 
REMARK       I    between atoms: C_9  and  N_10 
REMARK    3  A    between atoms: N_10  and  C_11 
REMARK    4  A    between atoms: C_18  and  C_19 
REMARK       I    between atoms: C_19  and  N_20 
ROOT
HETATM    1  C   UNL     1       6.819  28.329  56.154  1.00  0.00     0.035 A 
HETATM    2  C   UNL     1       7.776  29.123  56.799  1.00  0.00     0.046 A 
HETATM    3  C   UNL     1       7.361  30.148  57.677  1.00  0.00     0.030 A 
HETATM    4  C   UNL     1       6.001  30.344  57.880  1.00  0.00     0.063 A 
HETATM    5  N   UNL     1       5.915  31.377  58.771  1.00  0.00    -0.277 N 
HETATM    6  H   UNL     1       5.072  31.788  59.155  1.00  0.00     0.189 HD
HETATM    7  N   UNL     1       7.099  31.880  59.159  1.00  0.00    -0.168 NA
HETATM    8  C   UNL     1       8.004  31.130  58.488  1.00  0.00     0.156 A 
HETATM    9  C   UNL     1       5.018  29.578  57.249  1.00  0.00     0.034 A 
HETATM   10  C   UNL     1       5.458  28.572  56.379  1.00  0.00     0.032 A 
ENDROOT
BRANCH   1  11
HETATM   11  N   UNL     1       7.144  27.264  55.285  1.00  0.00    -0.327 N 
HETATM   12  C   UNL     1       7.157  27.295  53.908  1.00  0.00     0.227 C 
HETATM   13  O   UNL     1       6.825  28.218  53.182  1.00  0.00    -0.273 OA
HETATM   14  H   UNL     1       7.441  26.406  55.722  1.00  0.00     0.169 HD
BRANCH  12  15
HETATM   15  C   UNL     1       7.663  26.059  53.250  1.00  0.00     0.087 A 
HETATM   16  C   UNL     1       6.717  24.862  53.292  1.00  0.00     0.032 A 
HETATM   17  C   UNL     1       7.180  25.424  51.976  1.00  0.00     0.025 A 
BRANCH  16  18
HETATM   18  C   UNL     1       7.233  23.578  53.884  1.00  0.00    -0.051 A 
HETATM   19  C   UNL     1       7.682  22.510  53.094  1.00  0.00     0.031 A 
HETATM   20  C   UNL     1       8.116  21.318  53.681  1.00  0.00     0.034 A 
HETATM   21  C   UNL     1       8.105  21.162  55.064  1.00  0.00     0.024 A 
HETATM   22 CL   UNL     1       8.663  20.027  52.683  1.00  0.00    -0.084 Cl
HETATM   23  C   UNL     1       7.658  22.207  55.867  1.00  0.00     0.002 A 
HETATM   24  C   UNL     1       7.229  23.398  55.280  1.00  0.00     0.007 A 
ENDBRANCH  16  18
ENDBRANCH  12  15
ENDBRANCH   1  11
BRANCH   8  25
HETATM   25  C   UNL     1       9.447  31.366  58.634  1.00  0.00     0.270 C 
HETATM   26  N   UNL     1       9.805  31.922  59.832  1.00  0.00    -0.365 N 
HETATM   27  H   UNL     1       9.078  32.131  60.505  1.00  0.00     0.159 HD
HETATM   28  H   UNL     1      10.774  32.127  60.016  1.00  0.00     0.159 HD
HETATM   29  O   UNL     1      10.289  31.103  57.782  1.00  0.00    -0.266 OA
ENDBRANCH   8  25
TORSDOF 4
ENDMDL
MODEL 8
REMARK VINA RESULT:      -9.5      4.938      7.685
REMARK  4 active torsions:
REMARK  status: ('A' for Active; 'I' for Inactive)
REMARK    1  A    between atoms: C_6  and  C_7 
REMARK    2  A    between atoms: C_8  and  C_9 
REMARK       I    between atoms: C_9  and  N_10 
REMARK    3  A    between atoms: N_10  and  C_11 
REMARK    4  A    between atoms: C_18  and  C_19 
REMARK       I    between atoms: C_19  and  N_20 
ROOT
HETATM    1  C   UNL     1       7.064  31.774  62.133  1.00  0.00     0.035 A 
HETATM    2  C   UNL     1       5.754  32.271  62.163  1.00  0.00     0.046 A 
HETATM    3  C   UNL     1       5.366  33.163  63.185  1.00  0.00     0.030 A 
HETATM    4  C   UNL     1       6.301  33.530  64.144  1.00  0.00     0.063 A 
HETATM    5  N   UNL     1       5.645  34.395  64.975  1.00  0.00    -0.277 N 
HETATM    6  H   UNL     1       6.022  34.869  65.788  1.00  0.00     0.189 HD
HETATM    7  N   UNL     1       4.361  34.616  64.649  1.00  0.00    -0.168 NA
HETATM    8  C   UNL     1       4.173  33.859  63.544  1.00  0.00     0.156 A 
HETATM    9  C   UNL     1       7.613  33.050  64.152  1.00  0.00     0.034 A 
HETATM   10  C   UNL     1       7.970  32.161  63.129  1.00  0.00     0.032 A 
ENDROOT
BRANCH   1  11
HETATM   11  N   UNL     1       7.547  30.903  61.133  1.00  0.00    -0.327 N 
HETATM   12  C   UNL     1       8.106  31.259  59.925  1.00  0.00     0.227 C 
HETATM   13  O   UNL     1       8.223  32.382  59.462  1.00  0.00    -0.273 OA
HETATM   14  H   UNL     1       7.522  29.918  61.347  1.00  0.00     0.169 HD
BRANCH  12  15
HETATM   15  C   UNL     1       8.646  30.130  59.118  1.00  0.00     0.087 A 
HETATM   16  C   UNL     1       7.944  29.885  57.785  1.00  0.00     0.032 A 
HETATM   17  C   UNL     1       9.413  30.199  57.827  1.00  0.00     0.025 A 
BRANCH  16  18
HETATM   18  C   UNL     1       7.386  28.510  57.526  1.00  0.00    -0.051 A 
HETATM   19  C   UNL     1       8.199  27.370  57.447  1.00  0.00     0.031 A 
HETATM   20  C   UNL     1       7.648  26.116  57.166  1.00  0.00     0.034 A 
HETATM   21  C   UNL     1       6.280  25.974  56.949  1.00  0.00     0.024 A 
HETATM   22 CL   UNL     1       8.672  24.736  57.077  1.00  0.00    -0.084 Cl
HETATM   23  C   UNL     1       5.456  27.094  57.018  1.00  0.00     0.002 A 
HETATM   24  C   UNL     1       6.007  28.344  57.304  1.00  0.00     0.007 A 
ENDBRANCH  16  18
ENDBRANCH  12  15
ENDBRANCH   1  11
BRANCH   8  25
HETATM   25  C   UNL     1       2.871  33.815  62.862  1.00  0.00     0.270 C 
HETATM   26  N   UNL     1       1.797  33.778  63.709  1.00  0.00    -0.365 N 
HETATM   27  H   UNL     1       1.966  33.775  64.707  1.00  0.00     0.159 HD
HETATM   28  H   UNL     1       0.865  33.738  63.329  1.00  0.00     0.159 HD
HETATM   29  O   UNL     1       2.718  33.810  61.645  1.00  0.00    -0.266 OA
ENDBRANCH   8  25
TORSDOF 4
ENDMDL
MODEL 9
REMARK VINA RESULT:      -9.3      2.964      3.696
REMARK  4 active torsions:
REMARK  status: ('A' for Active; 'I' for Inactive)
REMARK    1  A    between atoms: C_6  and  C_7 
REMARK    2  A    between atoms: C_8  and  C_9 
REMARK       I    between atoms: C_9  and  N_10 
REMARK    3  A    between atoms: N_10  and  C_11 
REMARK    4  A    between atoms: C_18  and  C_19 
REMARK       I    between atoms: C_19  and  N_20 
ROOT
HETATM    1  C   UNL     1       5.400  28.540  54.081  1.00  0.00     0.035 A 
HETATM    2  C   UNL     1       5.157  29.194  55.296  1.00  0.00     0.046 A 
HETATM    3  C   UNL     1       4.135  30.165  55.377  1.00  0.00     0.030 A 
HETATM    4  C   UNL     1       3.390  30.449  54.241  1.00  0.00     0.063 A 
HETATM    5  N   UNL     1       2.489  31.401  54.629  1.00  0.00    -0.277 N 
HETATM    6  H   UNL     1       1.777  31.841  54.058  1.00  0.00     0.189 HD
HETATM    7  N   UNL     1       2.588  31.771  55.917  1.00  0.00    -0.168 NA
HETATM    8  C   UNL     1       3.605  31.016  56.393  1.00  0.00     0.156 A 
HETATM    9  C   UNL     1       3.608  29.823  53.011  1.00  0.00     0.034 A 
HETATM   10  C   UNL     1       4.632  28.868  52.956  1.00  0.00     0.032 A 
ENDROOT
BRANCH   1  11
HETATM   11  N   UNL     1       6.379  27.536  53.916  1.00  0.00    -0.327 N 
HETATM   12  C   UNL     1       6.273  26.210  54.274  1.00  0.00     0.227 C 
HETATM   13  O   UNL     1       5.350  25.670  54.862  1.00  0.00    -0.273 OA
HETATM   14  H   UNL     1       7.226  27.811  53.444  1.00  0.00     0.169 HD
BRANCH  12  15
HETATM   15  C   UNL     1       7.415  25.348  53.864  1.00  0.00     0.087 A 
HETATM   16  C   UNL     1       7.036  24.068  53.124  1.00  0.00     0.032 A 
HETATM   17  C   UNL     1       7.928  25.089  52.475  1.00  0.00     0.025 A 
BRANCH  16  18
HETATM   18  C   UNL     1       7.526  22.759  53.684  1.00  0.00    -0.051 A 
HETATM   19  C   UNL     1       7.658  22.531  55.062  1.00  0.00     0.031 A 
HETATM   20  C   UNL     1       8.155  21.316  55.542  1.00  0.00     0.034 A 
HETATM   21  C   UNL     1       8.538  20.308  54.661  1.00  0.00     0.024 A 
HETATM   22 CL   UNL     1       8.301  21.067  57.239  1.00  0.00    -0.084 Cl
HETATM   23  C   UNL     1       8.421  20.515  53.290  1.00  0.00     0.002 A 
HETATM   24  C   UNL     1       7.920  21.728  52.813  1.00  0.00     0.007 A 
ENDBRANCH  16  18
ENDBRANCH  12  15
ENDBRANCH   1  11
BRANCH   8  25
HETATM   25  C   UNL     1       4.043  31.122  57.792  1.00  0.00     0.270 C 
HETATM   26  N   UNL     1       3.700  30.049  58.568  1.00  0.00    -0.365 N 
HETATM   27  H   UNL     1       3.183  29.288  58.143  1.00  0.00     0.159 HD
HETATM   28  H   UNL     1       3.952  30.039  59.543  1.00  0.00     0.159 HD
HETATM   29  O   UNL     1       4.660  32.072  58.262  1.00  0.00    -0.266 OA
ENDBRANCH   8  25
TORSDOF 4
ENDMDL
MODEL 10
REMARK VINA RESULT:      -9.2      4.668      6.801
REMARK  4 active torsions:
REMARK  status: ('A' for Active; 'I' for Inactive)
REMARK    1  A    between atoms: C_6  and  C_7 
REMARK    2  A    between atoms: C_8  and  C_9 
REMARK       I    between atoms: C_9  and  N_10 
REMARK    3  A    between atoms: N_10  and  C_11 
REMARK    4  A    between atoms: C_18  and  C_19 
REMARK       I    between atoms: C_19  and  N_20 
ROOT
HETATM    1  C   UNL     1       4.984  26.515  50.610  1.00  0.00     0.035 A 
HETATM    2  C   UNL     1       5.254  27.876  50.417  1.00  0.00     0.046 A 
HETATM    3  C   UNL     1       4.882  28.500  49.207  1.00  0.00     0.030 A 
HETATM    4  C   UNL     1       4.251  27.742  48.230  1.00  0.00     0.063 A 
HETATM    5  N   UNL     1       4.010  28.609  47.201  1.00  0.00    -0.277 N 
HETATM    6  H   UNL     1       3.555  28.403  46.319  1.00  0.00     0.189 HD
HETATM    7  N   UNL     1       4.438  29.864  47.416  1.00  0.00    -0.168 NA
HETATM    8  C   UNL     1       4.983  29.812  48.654  1.00  0.00     0.156 A 
HETATM    9  C   UNL     1       3.972  26.382  48.382  1.00  0.00     0.034 A 
HETATM   10  C   UNL     1       4.357  25.786  49.591  1.00  0.00     0.032 A 
ENDROOT
BRANCH   1  11
HETATM   11  N   UNL     1       5.292  25.817  51.798  1.00  0.00    -0.327 N 
HETATM   12  C   UNL     1       4.994  26.204  53.087  1.00  0.00     0.227 C 
HETATM   13  O   UNL     1       4.477  27.249  53.448  1.00  0.00    -0.273 OA
HETATM   14  H   UNL     1       5.736  24.919  51.687  1.00  0.00     0.169 HD
BRANCH  12  15
HETATM   15  C   UNL     1       5.328  25.209  54.142  1.00  0.00     0.087 A 
HETATM   16  C   UNL     1       6.817  24.938  54.338  1.00  0.00     0.032 A 
HETATM   17  C   UNL     1       5.980  25.455  55.474  1.00  0.00     0.025 A 
BRANCH  16  18
HETATM   18  C   UNL     1       7.294  23.514  54.226  1.00  0.00    -0.051 A 
HETATM   19  C   UNL     1       7.467  22.687  55.346  1.00  0.00     0.031 A 
HETATM   20  C   UNL     1       7.950  21.383  55.205  1.00  0.00     0.034 A 
HETATM   21  C   UNL     1       8.277  20.879  53.949  1.00  0.00     0.024 A 
HETATM   22 CL   UNL     1       8.149  20.393  56.599  1.00  0.00    -0.084 Cl
HETATM   23  C   UNL     1       8.117  21.684  52.825  1.00  0.00     0.002 A 
HETATM   24  C   UNL     1       7.631  22.984  52.967  1.00  0.00     0.007 A 
ENDBRANCH  16  18
ENDBRANCH  12  15
ENDBRANCH   1  11
BRANCH   8  25
HETATM   25  C   UNL     1       5.580  31.002  49.274  1.00  0.00     0.270 C 
HETATM   26  N   UNL     1       4.820  32.134  49.159  1.00  0.00    -0.365 N 
HETATM   27  H   UNL     1       3.937  32.077  48.668  1.00  0.00     0.159 HD
HETATM   28  H   UNL     1       5.156  33.001  49.548  1.00  0.00     0.159 HD
HETATM   29  O   UNL     1       6.662  31.023  49.851  1.00  0.00    -0.266 OA
ENDBRANCH   8  25
TORSDOF 4
ENDMDL
