MODEL 1
REMARK VINA RESULT:     -10.4      0.000      0.000
REMARK  3 active torsions:
REMARK  status: ('A' for Active; 'I' for Inactive)
REMARK    1  A    between atoms: C_5  and  C_6 
REMARK       I    between atoms: C_6  and  N_7 
REMARK    2  A    between atoms: N_7  and  C_8 
REMARK    3  A    between atoms: C_15  and  C_16 
REMARK       I    between atoms: C_16  and  N_17 
ROOT
HETATM    1  C   UNL     1       8.631  28.586  56.826  1.00  0.00     0.035 A 
HETATM    2  C   UNL     1       7.914  29.478  57.640  1.00  0.00     0.046 A 
HETATM    3  C   UNL     1       8.586  30.560  58.249  1.00  0.00     0.030 A 
HETATM    4  C   UNL     1       9.956  30.685  58.063  1.00  0.00     0.063 A 
HETATM    5  N   UNL     1      10.318  31.796  58.774  1.00  0.00    -0.277 N 
HETATM    6  H   UNL     1      11.250  32.182  58.873  1.00  0.00     0.189 HD
HETATM    7  N   UNL     1       9.297  32.427  59.377  1.00  0.00    -0.168 NA
HETATM    8  C   UNL     1       8.219  31.675  59.059  1.00  0.00     0.156 A 
HETATM    9  C   UNL     1      10.702  29.797  57.288  1.00  0.00     0.034 A 
HETATM   10  C   UNL     1      10.008  28.753  56.663  1.00  0.00     0.032 A 
ENDROOT
BRANCH   1  11
HETATM   11  N   UNL     1       7.902  27.542  56.220  1.00  0.00    -0.326 N 
HETATM   12  C   UNL     1       7.574  26.317  56.787  1.00  0.00     0.240 C 
HETATM   13  O   UNL     1       7.923  25.940  57.908  1.00  0.00    -0.272 OA
HETATM   14  H   UNL     1       7.697  27.657  55.233  1.00  0.00     0.169 HD
BRANCH  12  15
HETATM   15  C   UNL     1       6.700  25.401  55.898  1.00  0.00     0.172 C 
HETATM   16  C   UNL     1       7.462  24.293  55.166  1.00  0.00    -0.029 A 
HETATM   17  C   UNL     1       7.197  23.912  53.833  1.00  0.00    -0.050 A 
HETATM   18  C   UNL     1       8.436  23.564  55.884  1.00  0.00     0.009 A 
HETATM   19  C   UNL     1       7.968  22.898  53.234  1.00  0.00     0.007 A 
HETATM   20  C   UNL     1       6.138  24.570  52.976  1.00  0.00     0.049 C 
HETATM   21  C   UNL     1       8.956  22.228  53.949  1.00  0.00     0.001 A 
HETATM   22  C   UNL     1       9.182  22.553  55.279  1.00  0.00     0.001 A 
HETATM   23  C   UNL     1       5.017  25.239  53.754  1.00  0.00     0.080 C 
HETATM   24  S   UNL     1       5.719  26.513  54.821  1.00  0.00    -0.149 SA
ENDBRANCH  12  15
ENDBRANCH   1  11
BRANCH   8  25
HETATM   25  C   UNL     1       6.869  32.043  59.508  1.00  0.00     0.270 C 
HETATM   26  N   UNL     1       6.553  31.587  60.758  1.00  0.00    -0.365 N 
HETATM   27  H   UNL     1       7.251  31.064  61.274  1.00  0.00     0.159 HD
HETATM   28  H   UNL     1       5.664  31.823  61.169  1.00  0.00     0.159 HD
HETATM   29  O   UNL     1       6.078  32.712  58.851  1.00  0.00    -0.266 OA
ENDBRANCH   8  25
TORSDOF 3
ENDMDL
MODEL 2
REMARK VINA RESULT:      -9.6      5.113      7.660
REMARK  3 active torsions:
REMARK  status: ('A' for Active; 'I' for Inactive)
REMARK    1  A    between atoms: C_5  and  C_6 
REMARK       I    between atoms: C_6  and  N_7 
REMARK    2  A    between atoms: N_7  and  C_8 
REMARK    3  A    between atoms: C_15  and  C_16 
REMARK       I    between atoms: C_16  and  N_17 
ROOT
HETATM    1  C   UNL     1       5.745  27.502  52.549  1.00  0.00     0.035 A 
HETATM    2  C   UNL     1       5.305  26.920  51.349  1.00  0.00     0.046 A 
HETATM    3  C   UNL     1       4.423  27.635  50.510  1.00  0.00     0.030 A 
HETATM    4  C   UNL     1       3.975  28.883  50.920  1.00  0.00     0.063 A 
HETATM    5  N   UNL     1       3.139  29.313  49.928  1.00  0.00    -0.277 N 
HETATM    6  H   UNL     1       2.622  30.184  49.897  1.00  0.00     0.189 HD
HETATM    7  N   UNL     1       3.031  28.469  48.888  1.00  0.00    -0.168 NA
HETATM    8  C   UNL     1       3.822  27.428  49.234  1.00  0.00     0.156 A 
HETATM    9  C   UNL     1       4.369  29.476  52.122  1.00  0.00     0.034 A 
HETATM   10  C   UNL     1       5.273  28.764  52.921  1.00  0.00     0.032 A 
ENDROOT
BRANCH   1  11
HETATM   11  N   UNL     1       6.649  26.754  53.332  1.00  0.00    -0.326 N 
HETATM   12  C   UNL     1       6.346  25.666  54.141  1.00  0.00     0.240 C 
HETATM   13  O   UNL     1       5.214  25.220  54.332  1.00  0.00    -0.272 OA
HETATM   14  H   UNL     1       7.592  27.122  53.396  1.00  0.00     0.169 HD
BRANCH  12  15
HETATM   15  C   UNL     1       7.567  25.004  54.824  1.00  0.00     0.172 C 
HETATM   16  C   UNL     1       7.780  23.529  54.475  1.00  0.00    -0.029 A 
HETATM   17  C   UNL     1       8.171  22.552  55.417  1.00  0.00    -0.050 A 
HETATM   18  C   UNL     1       7.647  23.134  53.125  1.00  0.00     0.009 A 
HETATM   19  C   UNL     1       8.317  21.213  55.009  1.00  0.00     0.007 A 
HETATM   20  C   UNL     1       8.407  22.857  56.880  1.00  0.00     0.049 C 
HETATM   21  C   UNL     1       8.133  20.841  53.681  1.00  0.00     0.001 A 
HETATM   22  C   UNL     1       7.809  21.805  52.735  1.00  0.00     0.001 A 
HETATM   23  C   UNL     1       8.759  24.304  57.178  1.00  0.00     0.080 C 
HETATM   24  S   UNL     1       7.415  25.367  56.614  1.00  0.00    -0.149 SA
ENDBRANCH  12  15
ENDBRANCH   1  11
BRANCH   8  25
HETATM   25  C   UNL     1       4.007  26.277  48.339  1.00  0.00     0.270 C 
HETATM   26  N   UNL     1       3.146  25.241  48.576  1.00  0.00    -0.365 N 
HETATM   27  H   UNL     1       2.456  25.343  49.311  1.00  0.00     0.159 HD
HETATM   28  H   UNL     1       3.170  24.424  47.988  1.00  0.00     0.159 HD
HETATM   29  O   UNL     1       4.839  26.225  47.439  1.00  0.00    -0.266 OA
ENDBRANCH   8  25
TORSDOF 3
ENDMDL
MODEL 3
REMARK VINA RESULT:      -9.2      5.121      6.645
REMARK  3 active torsions:
REMARK  status: ('A' for Active; 'I' for Inactive)
REMARK    1  A    between atoms: C_5  and  C_6 
REMARK       I    between atoms: C_6  and  N_7 
REMARK    2  A    between atoms: N_7  and  C_8 
REMARK    3  A    between atoms: C_15  and  C_16 
REMARK       I    between atoms: C_16  and  N_17 
ROOT
HETATM    1  C   UNL     1       5.927  26.691  51.847  1.00  0.00     0.035 A 
HETATM    2  C   UNL     1       5.588  28.035  52.075  1.00  0.00     0.046 A 
HETATM    3  C   UNL     1       4.694  28.687  51.198  1.00  0.00     0.030 A 
HETATM    4  C   UNL     1       4.209  27.990  50.100  1.00  0.00     0.063 A 
HETATM    5  N   UNL     1       3.396  28.871  49.442  1.00  0.00    -0.277 N 
HETATM    6  H   UNL     1       2.880  28.706  48.586  1.00  0.00     0.189 HD
HETATM    7  N   UNL     1       3.281  30.071  50.036  1.00  0.00    -0.168 NA
HETATM    8  C   UNL     1       4.077  29.970  51.125  1.00  0.00     0.156 A 
HETATM    9  C   UNL     1       4.551  26.665  49.827  1.00  0.00     0.034 A 
HETATM   10  C   UNL     1       5.410  26.027  50.731  1.00  0.00     0.032 A 
ENDROOT
BRANCH   1  11
HETATM   11  N   UNL     1       6.800  26.083  52.772  1.00  0.00    -0.326 N 
HETATM   12  C   UNL     1       6.445  25.273  53.844  1.00  0.00     0.240 C 
HETATM   13  O   UNL     1       5.289  25.004  54.174  1.00  0.00    -0.272 OA
HETATM   14  H   UNL     1       7.774  26.361  52.714  1.00  0.00     0.169 HD
BRANCH  12  15
HETATM   15  C   UNL     1       7.636  24.691  54.643  1.00  0.00     0.172 C 
HETATM   16  C   UNL     1       7.851  23.185  54.476  1.00  0.00    -0.029 A 
HETATM   17  C   UNL     1       8.201  22.323  55.538  1.00  0.00    -0.050 A 
HETATM   18  C   UNL     1       7.762  22.636  53.177  1.00  0.00     0.009 A 
HETATM   19  C   UNL     1       8.352  20.945  55.294  1.00  0.00     0.007 A 
HETATM   20  C   UNL     1       8.389  22.796  56.963  1.00  0.00     0.049 C 
HETATM   21  C   UNL     1       8.212  20.422  54.012  1.00  0.00     0.001 A 
HETATM   22  C   UNL     1       7.928  21.270  52.950  1.00  0.00     0.001 A 
HETATM   23  C   UNL     1       8.741  24.268  57.103  1.00  0.00     0.080 C 
HETATM   24  S   UNL     1       7.425  25.261  56.371  1.00  0.00    -0.149 SA
ENDBRANCH  12  15
ENDBRANCH   1  11
BRANCH   8  25
HETATM   25  C   UNL     1       4.213  31.079  52.078  1.00  0.00     0.270 C 
HETATM   26  N   UNL     1       5.040  32.083  51.653  1.00  0.00    -0.365 N 
HETATM   27  H   UNL     1       5.468  32.003  50.738  1.00  0.00     0.159 HD
HETATM   28  H   UNL     1       5.165  32.906  52.221  1.00  0.00     0.159 HD
HETATM   29  O   UNL     1       3.639  31.138  53.161  1.00  0.00    -0.266 OA
ENDBRANCH   8  25
TORSDOF 3
ENDMDL
MODEL 4
REMARK VINA RESULT:      -8.9      2.866      8.090
REMARK  3 active torsions:
REMARK  status: ('A' for Active; 'I' for Inactive)
REMARK    1  A    between atoms: C_5  and  C_6 
REMARK       I    between atoms: C_6  and  N_7 
REMARK    2  A    between atoms: N_7  and  C_8 
REMARK    3  A    between atoms: C_15  and  C_16 
REMARK       I    between atoms: C_16  and  N_17 
ROOT
HETATM    1  C   UNL     1       7.087  27.376  57.127  1.00  0.00     0.035 A 
HETATM    2  C   UNL     1       6.582  27.212  55.827  1.00  0.00     0.046 A 
HETATM    3  C   UNL     1       6.601  25.934  55.228  1.00  0.00     0.030 A 
HETATM    4  C   UNL     1       7.165  24.877  55.928  1.00  0.00     0.063 A 
HETATM    5  N   UNL     1       7.053  23.793  55.101  1.00  0.00    -0.277 N 
HETATM    6  H   UNL     1       7.371  22.849  55.283  1.00  0.00     0.189 HD
HETATM    7  N   UNL     1       6.432  24.045  53.937  1.00  0.00    -0.168 NA
HETATM    8  C   UNL     1       6.144  25.365  54.003  1.00  0.00     0.156 A 
HETATM    9  C   UNL     1       7.704  25.013  57.208  1.00  0.00     0.034 A 
HETATM   10  C   UNL     1       7.642  26.283  57.797  1.00  0.00     0.032 A 
ENDROOT
BRANCH   1  11
HETATM   11  N   UNL     1       7.015  28.669  57.685  1.00  0.00    -0.326 N 
HETATM   12  C   UNL     1       8.041  29.603  57.760  1.00  0.00     0.240 C 
HETATM   13  O   UNL     1       9.199  29.412  57.384  1.00  0.00    -0.272 OA
HETATM   14  H   UNL     1       6.159  28.892  58.183  1.00  0.00     0.169 HD
BRANCH  12  15
HETATM   15  C   UNL     1       7.637  30.968  58.367  1.00  0.00     0.172 C 
HETATM   16  C   UNL     1       7.865  31.097  59.875  1.00  0.00    -0.029 A 
HETATM   17  C   UNL     1       6.958  31.734  60.750  1.00  0.00    -0.050 A 
HETATM   18  C   UNL     1       9.080  30.615  60.412  1.00  0.00     0.009 A 
HETATM   19  C   UNL     1       7.241  31.781  62.129  1.00  0.00     0.007 A 
HETATM   20  C   UNL     1       5.653  32.346  60.292  1.00  0.00     0.049 C 
HETATM   21  C   UNL     1       8.423  31.256  62.640  1.00  0.00     0.001 A 
HETATM   22  C   UNL     1       9.349  30.682  61.779  1.00  0.00     0.001 A 
HETATM   23  C   UNL     1       5.620  32.749  58.828  1.00  0.00     0.080 C 
HETATM   24  S   UNL     1       5.923  31.292  57.808  1.00  0.00    -0.149 SA
ENDBRANCH  12  15
ENDBRANCH   1  11
BRANCH   8  25
HETATM   25  C   UNL     1       5.425  26.047  52.918  1.00  0.00     0.270 C 
HETATM   26  N   UNL     1       4.108  26.298  53.192  1.00  0.00    -0.365 N 
HETATM   27  H   UNL     1       3.741  26.025  54.096  1.00  0.00     0.159 HD
HETATM   28  H   UNL     1       3.543  26.798  52.525  1.00  0.00     0.159 HD
HETATM   29  O   UNL     1       5.934  26.387  51.855  1.00  0.00    -0.266 OA
ENDBRANCH   8  25
TORSDOF 3
ENDMDL
MODEL 5
REMARK VINA RESULT:      -8.9      1.936      2.867
REMARK  3 active torsions:
REMARK  status: ('A' for Active; 'I' for Inactive)
REMARK    1  A    between atoms: C_5  and  C_6 
REMARK       I    between atoms: C_6  and  N_7 
REMARK    2  A    between atoms: N_7  and  C_8 
REMARK    3  A    between atoms: C_15  and  C_16 
REMARK       I    between atoms: C_16  and  N_17 
ROOT
HETATM    1  C   UNL     1       5.991  28.913  56.390  1.00  0.00     0.035 A 
HETATM    2  C   UNL     1       7.216  29.467  56.792  1.00  0.00     0.046 A 
HETATM    3  C   UNL     1       7.232  30.494  57.761  1.00  0.00     0.030 A 
HETATM    4  C   UNL     1       6.024  30.962  58.258  1.00  0.00     0.063 A 
HETATM    5  N   UNL     1       6.354  31.946  59.149  1.00  0.00    -0.277 N 
HETATM    6  H   UNL     1       5.720  32.516  59.695  1.00  0.00     0.189 HD
HETATM    7  N   UNL     1       7.676  32.134  59.303  1.00  0.00    -0.168 NA
HETATM    8  C   UNL     1       8.231  31.241  58.452  1.00  0.00     0.156 A 
HETATM    9  C   UNL     1       4.788  30.455  57.855  1.00  0.00     0.034 A 
HETATM   10  C   UNL     1       4.798  29.412  56.920  1.00  0.00     0.032 A 
ENDROOT
BRANCH   1  11
HETATM   11  N   UNL     1       6.038  27.870  55.442  1.00  0.00    -0.326 N 
HETATM   12  C   UNL     1       5.576  26.570  55.609  1.00  0.00     0.240 C 
HETATM   13  O   UNL     1       5.091  26.121  56.649  1.00  0.00    -0.272 OA
HETATM   14  H   UNL     1       6.567  28.061  54.597  1.00  0.00     0.169 HD
BRANCH  12  15
HETATM   15  C   UNL     1       5.702  25.669  54.357  1.00  0.00     0.172 C 
HETATM   16  C   UNL     1       6.768  24.575  54.454  1.00  0.00    -0.029 A 
HETATM   17  C   UNL     1       7.619  24.217  53.385  1.00  0.00    -0.050 A 
HETATM   18  C   UNL     1       6.862  23.835  55.654  1.00  0.00     0.009 A 
HETATM   19  C   UNL     1       8.590  23.216  53.576  1.00  0.00     0.007 A 
HETATM   20  C   UNL     1       7.577  24.889  52.030  1.00  0.00     0.049 C 
HETATM   21  C   UNL     1       8.693  22.534  54.784  1.00  0.00     0.001 A 
HETATM   22  C   UNL     1       7.821  22.837  55.821  1.00  0.00     0.001 A 
HETATM   23  C   UNL     1       6.249  25.542  51.686  1.00  0.00     0.080 C 
HETATM   24  S   UNL     1       5.871  26.798  52.924  1.00  0.00    -0.149 SA
ENDBRANCH  12  15
ENDBRANCH   1  11
BRANCH   8  25
HETATM   25  C   UNL     1       9.689  31.101  58.334  1.00  0.00     0.270 C 
HETATM   26  N   UNL     1      10.104  29.843  57.993  1.00  0.00    -0.365 N 
HETATM   27  H   UNL     1       9.403  29.129  57.833  1.00  0.00     0.159 HD
HETATM   28  H   UNL     1      11.084  29.659  57.850  1.00  0.00     0.159 HD
HETATM   29  O   UNL     1      10.490  32.015  58.505  1.00  0.00    -0.266 OA
ENDBRANCH   8  25
TORSDOF 3
ENDMDL
MODEL 6
REMARK VINA RESULT:      -8.7      5.325      7.936
REMARK  3 active torsions:
REMARK  status: ('A' for Active; 'I' for Inactive)
REMARK    1  A    between atoms: C_5  and  C_6 
REMARK       I    between atoms: C_6  and  N_7 
REMARK    2  A    between atoms: N_7  and  C_8 
REMARK    3  A    between atoms: C_15  and  C_16 
REMARK       I    between atoms: C_16  and  N_17 
ROOT
HETATM    1  C   UNL     1       5.353  26.882  50.666  1.00  0.00     0.035 A 
HETATM    2  C   UNL     1       5.338  28.231  50.278  1.00  0.00     0.046 A 
HETATM    3  C   UNL     1       4.582  28.624  49.152  1.00  0.00     0.030 A 
HETATM    4  C   UNL     1       3.909  27.651  48.427  1.00  0.00     0.063 A 
HETATM    5  N   UNL     1       3.293  28.320  47.406  1.00  0.00    -0.277 N 
HETATM    6  H   UNL     1       2.720  27.922  46.671  1.00  0.00     0.189 HD
HETATM    7  N   UNL     1       3.476  29.650  47.424  1.00  0.00    -0.168 NA
HETATM    8  C   UNL     1       4.270  29.853  48.500  1.00  0.00     0.156 A 
HETATM    9  C   UNL     1       3.931  26.297  48.767  1.00  0.00     0.034 A 
HETATM   10  C   UNL     1       4.657  25.936  49.909  1.00  0.00     0.032 A 
ENDROOT
BRANCH   1  11
HETATM   11  N   UNL     1       6.100  26.553  51.816  1.00  0.00    -0.326 N 
HETATM   12  C   UNL     1       5.707  25.717  52.854  1.00  0.00     0.240 C 
HETATM   13  O   UNL     1       4.607  25.170  52.943  1.00  0.00    -0.272 OA
HETATM   14  H   UNL     1       6.963  27.071  51.950  1.00  0.00     0.169 HD
BRANCH  12  15
HETATM   15  C   UNL     1       6.777  25.491  53.949  1.00  0.00     0.172 C 
HETATM   16  C   UNL     1       7.217  24.036  54.132  1.00  0.00    -0.029 A 
HETATM   17  C   UNL     1       7.454  23.445  55.392  1.00  0.00    -0.050 A 
HETATM   18  C   UNL     1       7.466  23.262  52.977  1.00  0.00     0.009 A 
HETATM   19  C   UNL     1       7.830  22.090  55.464  1.00  0.00     0.007 A 
HETATM   20  C   UNL     1       7.285  24.184  56.702  1.00  0.00     0.049 C 
HETATM   21  C   UNL     1       8.022  21.335  54.312  1.00  0.00     0.001 A 
HETATM   22  C   UNL     1       7.851  21.924  53.066  1.00  0.00     0.001 A 
HETATM   23  C   UNL     1       7.406  25.695  56.597  1.00  0.00     0.080 C 
HETATM   24  S   UNL     1       6.148  26.312  55.462  1.00  0.00    -0.149 SA
ENDBRANCH  12  15
ENDBRANCH   1  11
BRANCH   8  25
HETATM   25  C   UNL     1       4.691  31.204  48.897  1.00  0.00     0.270 C 
HETATM   26  N   UNL     1       3.656  32.078  49.088  1.00  0.00    -0.365 N 
HETATM   27  H   UNL     1       2.708  31.740  48.966  1.00  0.00     0.159 HD
HETATM   28  H   UNL     1       3.843  33.017  49.400  1.00  0.00     0.159 HD
HETATM   29  O   UNL     1       5.857  31.546  49.065  1.00  0.00    -0.266 OA
ENDBRANCH   8  25
TORSDOF 3
ENDMDL
MODEL 7
REMARK VINA RESULT:      -8.6      4.310      7.317
REMARK  3 active torsions:
REMARK  status: ('A' for Active; 'I' for Inactive)
REMARK    1  A    between atoms: C_5  and  C_6 
REMARK       I    between atoms: C_6  and  N_7 
REMARK    2  A    between atoms: N_7  and  C_8 
REMARK    3  A    between atoms: C_15  and  C_16 
REMARK       I    between atoms: C_16  and  N_17 
ROOT
HETATM    1  C   UNL     1       6.823  32.152  61.813  1.00  0.00     0.035 A 
HETATM    2  C   UNL     1       5.636  32.736  62.284  1.00  0.00     0.046 A 
HETATM    3  C   UNL     1       5.618  33.352  63.553  1.00  0.00     0.030 A 
HETATM    4  C   UNL     1       6.770  33.322  64.327  1.00  0.00     0.063 A 
HETATM    5  N   UNL     1       6.446  33.971  65.486  1.00  0.00    -0.277 N 
HETATM    6  H   UNL     1       7.046  34.129  66.287  1.00  0.00     0.189 HD
HETATM    7  N   UNL     1       5.193  34.455  65.520  1.00  0.00    -0.168 NA
HETATM    8  C   UNL     1       4.670  34.081  64.330  1.00  0.00     0.156 A 
HETATM    9  C   UNL     1       7.956  32.721  63.902  1.00  0.00     0.034 A 
HETATM   10  C   UNL     1       7.961  32.148  62.624  1.00  0.00     0.032 A 
ENDROOT
BRANCH   1  11
HETATM   11  N   UNL     1       6.790  31.578  60.526  1.00  0.00    -0.326 N 
HETATM   12  C   UNL     1       7.655  31.846  59.471  1.00  0.00     0.240 C 
HETATM   13  O   UNL     1       8.564  32.676  59.497  1.00  0.00    -0.272 OA
HETATM   14  H   UNL     1       5.983  30.998  60.317  1.00  0.00     0.169 HD
BRANCH  12  15
HETATM   15  C   UNL     1       7.409  31.002  58.198  1.00  0.00     0.172 C 
HETATM   16  C   UNL     1       5.962  30.992  57.699  1.00  0.00    -0.029 A 
HETATM   17  C   UNL     1       5.317  29.840  57.199  1.00  0.00    -0.050 A 
HETATM   18  C   UNL     1       5.255  32.214  57.670  1.00  0.00     0.009 A 
HETATM   19  C   UNL     1       3.973  29.920  56.787  1.00  0.00     0.007 A 
HETATM   20  C   UNL     1       5.983  28.484  57.117  1.00  0.00     0.049 C 
HETATM   21  C   UNL     1       3.283  31.128  56.814  1.00  0.00     0.001 A 
HETATM   22  C   UNL     1       3.928  32.279  57.246  1.00  0.00     0.001 A 
HETATM   23  C   UNL     1       7.501  28.526  57.052  1.00  0.00     0.080 C 
HETATM   24  S   UNL     1       8.132  29.351  58.527  1.00  0.00    -0.149 SA
ENDBRANCH  12  15
ENDBRANCH   1  11
BRANCH   8  25
HETATM   25  C   UNL     1       3.298  34.444  63.950  1.00  0.00     0.270 C 
HETATM   26  N   UNL     1       3.130  35.772  63.666  1.00  0.00    -0.365 N 
HETATM   27  H   UNL     1       3.936  36.384  63.717  1.00  0.00     0.159 HD
HETATM   28  H   UNL     1       2.233  36.110  63.356  1.00  0.00     0.159 HD
HETATM   29  O   UNL     1       2.367  33.650  63.870  1.00  0.00    -0.266 OA
ENDBRANCH   8  25
TORSDOF 3
ENDMDL
MODEL 8
REMARK VINA RESULT:      -8.5      3.527      8.569
REMARK  3 active torsions:
REMARK  status: ('A' for Active; 'I' for Inactive)
REMARK    1  A    between atoms: C_5  and  C_6 
REMARK       I    between atoms: C_6  and  N_7 
REMARK    2  A    between atoms: N_7  and  C_8 
REMARK    3  A    between atoms: C_15  and  C_16 
REMARK       I    between atoms: C_16  and  N_17 
ROOT
HETATM    1  C   UNL     1       4.955  29.973  57.380  1.00  0.00     0.035 A 
HETATM    2  C   UNL     1       5.584  28.720  57.304  1.00  0.00     0.046 A 
HETATM    3  C   UNL     1       5.364  27.898  56.177  1.00  0.00     0.030 A 
HETATM    4  C   UNL     1       4.489  28.334  55.192  1.00  0.00     0.063 A 
HETATM    5  N   UNL     1       4.470  27.337  54.256  1.00  0.00    -0.277 N 
HETATM    6  H   UNL     1       3.929  27.311  53.400  1.00  0.00     0.189 HD
HETATM    7  N   UNL     1       5.285  26.304  54.528  1.00  0.00    -0.168 NA
HETATM    8  C   UNL     1       5.847  26.639  55.713  1.00  0.00     0.156 A 
HETATM    9  C   UNL     1       3.823  29.559  55.254  1.00  0.00     0.034 A 
HETATM   10  C   UNL     1       4.085  30.374  56.363  1.00  0.00     0.032 A 
ENDROOT
BRANCH   1  11
HETATM   11  N   UNL     1       5.234  30.763  58.514  1.00  0.00    -0.326 N 
HETATM   12  C   UNL     1       5.571  32.112  58.527  1.00  0.00     0.240 C 
HETATM   13  O   UNL     1       5.723  32.812  57.524  1.00  0.00    -0.272 OA
HETATM   14  H   UNL     1       5.308  30.267  59.396  1.00  0.00     0.169 HD
BRANCH  12  15
HETATM   15  C   UNL     1       5.751  32.724  59.936  1.00  0.00     0.172 C 
HETATM   16  C   UNL     1       7.044  32.327  60.653  1.00  0.00    -0.029 A 
HETATM   17  C   UNL     1       7.111  32.022  62.030  1.00  0.00    -0.050 A 
HETATM   18  C   UNL     1       8.247  32.332  59.914  1.00  0.00     0.009 A 
HETATM   19  C   UNL     1       8.341  31.640  62.597  1.00  0.00     0.007 A 
HETATM   20  C   UNL     1       5.906  32.042  62.945  1.00  0.00     0.049 C 
HETATM   21  C   UNL     1       9.506  31.606  61.836  1.00  0.00     0.001 A 
HETATM   22  C   UNL     1       9.461  31.963  60.495  1.00  0.00     0.001 A 
HETATM   23  C   UNL     1       4.766  32.929  62.474  1.00  0.00     0.080 C 
HETATM   24  S   UNL     1       4.207  32.363  60.856  1.00  0.00    -0.149 SA
ENDBRANCH  12  15
ENDBRANCH   1  11
BRANCH   8  25
HETATM   25  C   UNL     1       6.841  25.772  56.360  1.00  0.00     0.270 C 
HETATM   26  N   UNL     1       6.404  25.189  57.518  1.00  0.00    -0.365 N 
HETATM   27  H   UNL     1       5.456  25.373  57.825  1.00  0.00     0.159 HD
HETATM   28  H   UNL     1       7.001  24.546  58.013  1.00  0.00     0.159 HD
HETATM   29  O   UNL     1       7.966  25.557  55.920  1.00  0.00    -0.266 OA
ENDBRANCH   8  25
TORSDOF 3
ENDMDL
MODEL 9
REMARK VINA RESULT:      -8.4      4.948      7.807
REMARK  3 active torsions:
REMARK  status: ('A' for Active; 'I' for Inactive)
REMARK    1  A    between atoms: C_5  and  C_6 
REMARK       I    between atoms: C_6  and  N_7 
REMARK    2  A    between atoms: N_7  and  C_8 
REMARK    3  A    between atoms: C_15  and  C_16 
REMARK       I    between atoms: C_16  and  N_17 
ROOT
HETATM    1  C   UNL     1       5.563  25.972  54.934  1.00  0.00     0.035 A 
HETATM    2  C   UNL     1       6.199  24.835  54.412  1.00  0.00     0.046 A 
HETATM    3  C   UNL     1       6.982  24.022  55.260  1.00  0.00     0.030 A 
HETATM    4  C   UNL     1       7.141  24.400  56.586  1.00  0.00     0.063 A 
HETATM    5  N   UNL     1       7.948  23.446  57.142  1.00  0.00    -0.277 N 
HETATM    6  H   UNL     1       8.282  23.407  58.097  1.00  0.00     0.189 HD
HETATM    7  N   UNL     1       8.299  22.458  56.301  1.00  0.00    -0.168 NA
HETATM    8  C   UNL     1       7.707  22.801  55.134  1.00  0.00     0.156 A 
HETATM    9  C   UNL     1       6.549  25.542  57.128  1.00  0.00     0.034 A 
HETATM   10  C   UNL     1       5.746  26.313  56.277  1.00  0.00     0.032 A 
ENDROOT
BRANCH   1  11
HETATM   11  N   UNL     1       4.770  26.729  54.047  1.00  0.00    -0.326 N 
HETATM   12  C   UNL     1       5.208  27.720  53.177  1.00  0.00     0.240 C 
HETATM   13  O   UNL     1       6.369  28.121  53.089  1.00  0.00    -0.272 OA
HETATM   14  H   UNL     1       3.766  26.614  54.139  1.00  0.00     0.169 HD
BRANCH  12  15
HETATM   15  C   UNL     1       4.107  28.324  52.272  1.00  0.00     0.172 C 
HETATM   16  C   UNL     1       4.279  28.051  50.776  1.00  0.00    -0.029 A 
HETATM   17  C   UNL     1       4.026  29.012  49.772  1.00  0.00    -0.050 A 
HETATM   18  C   UNL     1       4.644  26.748  50.371  1.00  0.00     0.009 A 
HETATM   19  C   UNL     1       4.238  28.677  48.422  1.00  0.00     0.007 A 
HETATM   20  C   UNL     1       3.570  30.423  50.070  1.00  0.00     0.049 C 
HETATM   21  C   UNL     1       4.645  27.399  48.052  1.00  0.00     0.001 A 
HETATM   22  C   UNL     1       4.837  26.430  49.027  1.00  0.00     0.001 A 
HETATM   23  C   UNL     1       2.863  30.593  51.404  1.00  0.00     0.080 C 
HETATM   24  S   UNL     1       3.977  30.093  52.731  1.00  0.00    -0.149 SA
ENDBRANCH  12  15
ENDBRANCH   1  11
BRANCH   8  25
HETATM   25  C   UNL     1       7.822  21.953  53.940  1.00  0.00     0.270 C 
HETATM   26  N   UNL     1       7.806  20.611  54.204  1.00  0.00    -0.365 N 
HETATM   27  H   UNL     1       7.700  20.308  55.165  1.00  0.00     0.159 HD
HETATM   28  H   UNL     1       7.839  19.949  53.445  1.00  0.00     0.159 HD
HETATM   29  O   UNL     1       7.911  22.378  52.792  1.00  0.00    -0.266 OA
ENDBRANCH   8  25
TORSDOF 3
ENDMDL
MODEL 10
REMARK VINA RESULT:      -8.4      5.033      8.093
REMARK  3 active torsions:
REMARK  status: ('A' for Active; 'I' for Inactive)
REMARK    1  A    between atoms: C_5  and  C_6 
REMARK       I    between atoms: C_6  and  N_7 
REMARK    2  A    between atoms: N_7  and  C_8 
REMARK    3  A    between atoms: C_15  and  C_16 
REMARK       I    between atoms: C_16  and  N_17 
ROOT
HETATM    1  C   UNL     1       7.236  25.249  54.643  1.00  0.00     0.035 A 
HETATM    2  C   UNL     1       7.554  23.906  54.389  1.00  0.00     0.046 A 
HETATM    3  C   UNL     1       7.896  23.055  55.463  1.00  0.00     0.030 A 
HETATM    4  C   UNL     1       7.953  23.587  56.744  1.00  0.00     0.063 A 
HETATM    5  N   UNL     1       8.318  22.547  57.553  1.00  0.00    -0.277 N 
HETATM    6  H   UNL     1       8.467  22.573  58.555  1.00  0.00     0.189 HD
HETATM    7  N   UNL     1       8.468  21.374  56.915  1.00  0.00    -0.168 NA
HETATM    8  C   UNL     1       8.208  21.673  55.622  1.00  0.00     0.156 A 
HETATM    9  C   UNL     1       7.674  24.925  57.025  1.00  0.00     0.034 A 
HETATM   10  C   UNL     1       7.302  25.742  55.949  1.00  0.00     0.032 A 
ENDROOT
BRANCH   1  11
HETATM   11  N   UNL     1       6.873  26.043  53.536  1.00  0.00    -0.326 N 
HETATM   12  C   UNL     1       5.624  26.109  52.931  1.00  0.00     0.240 C 
HETATM   13  O   UNL     1       4.646  25.433  53.254  1.00  0.00    -0.272 OA
HETATM   14  H   UNL     1       7.633  26.526  53.066  1.00  0.00     0.169 HD
BRANCH  12  15
HETATM   15  C   UNL     1       5.513  27.131  51.774  1.00  0.00     0.172 C 
HETATM   16  C   UNL     1       4.698  28.386  52.097  1.00  0.00    -0.029 A 
HETATM   17  C   UNL     1       3.802  28.990  51.189  1.00  0.00    -0.050 A 
HETATM   18  C   UNL     1       4.904  29.016  53.345  1.00  0.00     0.009 A 
HETATM   19  C   UNL     1       3.074  30.129  51.585  1.00  0.00     0.007 A 
HETATM   20  C   UNL     1       3.539  28.452  49.800  1.00  0.00     0.049 C 
HETATM   21  C   UNL     1       3.260  30.702  52.839  1.00  0.00     0.001 A 
HETATM   22  C   UNL     1       4.185  30.151  53.716  1.00  0.00     0.001 A 
HETATM   23  C   UNL     1       4.661  27.604  49.225  1.00  0.00     0.080 C 
HETATM   24  S   UNL     1       4.947  26.191  50.308  1.00  0.00    -0.149 SA
ENDBRANCH  12  15
ENDBRANCH   1  11
BRANCH   8  25
HETATM   25  C   UNL     1       8.237  20.641  54.577  1.00  0.00     0.270 C 
HETATM   26  N   UNL     1       9.063  19.587  54.856  1.00  0.00    -0.365 N 
HETATM   27  H   UNL     1       9.562  19.583  55.738  1.00  0.00     0.159 HD
HETATM   28  H   UNL     1       9.119  18.810  54.218  1.00  0.00     0.159 HD
HETATM   29  O   UNL     1       7.579  20.682  53.542  1.00  0.00    -0.266 OA
ENDBRANCH   8  25
TORSDOF 3
ENDMDL
