MODEL 1
REMARK VINA RESULT:      -8.9      0.000      0.000
REMARK  8 active torsions:
REMARK  status: ('A' for Active; 'I' for Inactive)
REMARK    1  A    between atoms: C_2  and  C_3 
REMARK    2  A    between atoms: C_3  and  N_4 
REMARK       I    between atoms: N_4  and  C_5 
REMARK    3  A    between atoms: N_4  and  C_20 
REMARK    4  A    between atoms: C_5  and  C_6 
REMARK    5  A    between atoms: C_10  and  C_11 
REMARK    6  A    between atoms: C_12  and  O_13 
REMARK    7  A    between atoms: C_20  and  C_21 
REMARK    8  A    between atoms: C_21  and  C_22 
ROOT
HETATM    1  C   UNL     1       6.085  27.787  55.583  1.00  0.00     0.120 A 
HETATM    2  N   UNL     1       6.013  27.356  56.880  1.00  0.00    -0.272 N 
HETATM    3  H   UNL     1       5.435  26.596  57.228  1.00  0.00     0.189 HD
HETATM    4  N   UNL     1       6.794  28.031  57.739  1.00  0.00    -0.174 NA
HETATM    5  C   UNL     1       7.451  28.917  56.969  1.00  0.00     0.092 A 
HETATM    6  C   UNL     1       7.060  28.765  55.608  1.00  0.00     0.071 A 
ENDROOT
BRANCH   1   7
HETATM    7  C   UNL     1       5.293  27.139  54.562  1.00  0.00     0.271 C 
HETATM    8  N   UNL     1       5.710  25.927  53.983  1.00  0.00    -0.346 N 
HETATM    9  O   UNL     1       4.246  27.680  54.201  1.00  0.00    -0.266 OA
BRANCH   8  10
HETATM   10  C   UNL     1       4.697  25.169  53.235  1.00  0.00     0.126 C 
BRANCH  10  11
HETATM   11  C   UNL     1       5.115  24.863  51.794  1.00  0.00     0.015 C 
HETATM   12  C   UNL     1       5.315  26.116  50.956  1.00  0.00     0.006 C 
ENDBRANCH  10  11
ENDBRANCH   8  10
BRANCH   8  13
HETATM   13  C   UNL     1       7.030  25.313  54.211  1.00  0.00     0.130 C 
BRANCH  13  14
HETATM   14  C   UNL     1       7.087  24.207  55.281  1.00  0.00     0.058 C 
BRANCH  14  15
HETATM   15  C   UNL     1       7.469  22.830  54.777  1.00  0.00    -0.057 A 
HETATM   16  C   UNL     1       7.691  22.652  53.401  1.00  0.00     0.007 A 
HETATM   17  C   UNL     1       8.082  21.413  52.890  1.00  0.00     0.001 A 
HETATM   18  C   UNL     1       8.267  20.333  53.748  1.00  0.00     0.000 A 
HETATM   19  C   UNL     1       8.070  20.496  55.117  1.00  0.00     0.001 A 
HETATM   20  C   UNL     1       7.684  21.738  55.630  1.00  0.00     0.007 A 
ENDBRANCH  14  15
ENDBRANCH  13  14
ENDBRANCH   8  13
ENDBRANCH   1   7
BRANCH   5  21
HETATM   21  C   UNL     1       8.431  29.849  57.550  1.00  0.00     0.028 A 
HETATM   22  C   UNL     1       8.089  30.723  58.599  1.00  0.00     0.078 A 
HETATM   23  C   UNL     1       9.023  31.600  59.149  1.00  0.00     0.037 A 
HETATM   24  C   UNL     1      10.324  31.628  58.652  1.00  0.00     0.003 A 
HETATM   25  C   UNL     1      10.685  30.779  57.608  1.00  0.00     0.001 A 
HETATM   26  C   UNL     1       9.747  29.896  57.061  1.00  0.00     0.017 A 
BRANCH  22  27
HETATM   27  O   UNL     1       6.830  30.772  59.143  1.00  0.00    -0.360 OA
HETATM   28  H   UNL     1       6.537  29.836  59.237  1.00  0.00     0.217 HD
ENDBRANCH  22  27
ENDBRANCH   5  21
TORSDOF 8
ENDMDL
MODEL 2
REMARK VINA RESULT:      -8.5      3.592      6.839
REMARK  8 active torsions:
REMARK  status: ('A' for Active; 'I' for Inactive)
REMARK    1  A    between atoms: C_2  and  C_3 
REMARK    2  A    between atoms: C_3  and  N_4 
REMARK       I    between atoms: N_4  and  C_5 
REMARK    3  A    between atoms: N_4  and  C_20 
REMARK    4  A    between atoms: C_5  and  C_6 
REMARK    5  A    between atoms: C_10  and  C_11 
REMARK    6  A    between atoms: C_12  and  O_13 
REMARK    7  A    between atoms: C_20  and  C_21 
REMARK    8  A    between atoms: C_21  and  C_22 
ROOT
HETATM    1  C   UNL     1       6.251  25.130  52.110  1.00  0.00     0.120 A 
HETATM    2  N   UNL     1       7.561  25.022  51.729  1.00  0.00    -0.272 N 
HETATM    3  H   UNL     1       8.020  25.563  51.001  1.00  0.00     0.189 HD
HETATM    4  N   UNL     1       8.268  24.102  52.404  1.00  0.00    -0.174 NA
HETATM    5  C   UNL     1       7.402  23.612  53.309  1.00  0.00     0.092 A 
HETATM    6  C   UNL     1       6.141  24.262  53.179  1.00  0.00     0.071 A 
ENDROOT
BRANCH   1   7
HETATM    7  C   UNL     1       5.386  26.087  51.460  1.00  0.00     0.271 C 
HETATM    8  N   UNL     1       5.353  27.431  51.872  1.00  0.00    -0.346 N 
HETATM    9  O   UNL     1       4.667  25.696  50.539  1.00  0.00    -0.266 OA
BRANCH   8  10
HETATM   10  C   UNL     1       4.734  28.391  50.948  1.00  0.00     0.126 C 
BRANCH  10  11
HETATM   11  C   UNL     1       5.721  28.968  49.929  1.00  0.00     0.015 C 
HETATM   12  C   UNL     1       5.390  28.576  48.497  1.00  0.00     0.006 C 
ENDBRANCH  10  11
ENDBRANCH   8  10
BRANCH   8  13
HETATM   13  C   UNL     1       6.028  27.942  53.079  1.00  0.00     0.130 C 
BRANCH  13  14
HETATM   14  C   UNL     1       5.254  27.796  54.402  1.00  0.00     0.058 C 
BRANCH  14  15
HETATM   15  C   UNL     1       5.988  27.070  55.511  1.00  0.00    -0.057 A 
HETATM   16  C   UNL     1       7.298  27.466  55.826  1.00  0.00     0.007 A 
HETATM   17  C   UNL     1       8.003  26.856  56.866  1.00  0.00     0.001 A 
HETATM   18  C   UNL     1       7.407  25.845  57.613  1.00  0.00     0.000 A 
HETATM   19  C   UNL     1       6.101  25.453  57.327  1.00  0.00     0.001 A 
HETATM   20  C   UNL     1       5.392  26.067  56.290  1.00  0.00     0.007 A 
ENDBRANCH  14  15
ENDBRANCH  13  14
ENDBRANCH   8  13
ENDBRANCH   1   7
BRANCH   5  21
HETATM   21  C   UNL     1       7.811  22.571  54.266  1.00  0.00     0.028 A 
HETATM   22  C   UNL     1       8.068  21.249  53.857  1.00  0.00     0.078 A 
HETATM   23  C   UNL     1       8.460  20.269  54.768  1.00  0.00     0.037 A 
HETATM   24  C   UNL     1       8.594  20.589  56.116  1.00  0.00     0.003 A 
HETATM   25  C   UNL     1       8.337  21.889  56.548  1.00  0.00     0.001 A 
HETATM   26  C   UNL     1       7.948  22.872  55.631  1.00  0.00     0.017 A 
BRANCH  22  27
HETATM   27  O   UNL     1       7.949  20.841  52.553  1.00  0.00    -0.360 OA
HETATM   28  H   UNL     1       7.072  20.398  52.485  1.00  0.00     0.217 HD
ENDBRANCH  22  27
ENDBRANCH   5  21
TORSDOF 8
ENDMDL
MODEL 3
REMARK VINA RESULT:      -8.5      9.116     13.076
REMARK  8 active torsions:
REMARK  status: ('A' for Active; 'I' for Inactive)
REMARK    1  A    between atoms: C_2  and  C_3 
REMARK    2  A    between atoms: C_3  and  N_4 
REMARK       I    between atoms: N_4  and  C_5 
REMARK    3  A    between atoms: N_4  and  C_20 
REMARK    4  A    between atoms: C_5  and  C_6 
REMARK    5  A    between atoms: C_10  and  C_11 
REMARK    6  A    between atoms: C_12  and  O_13 
REMARK    7  A    between atoms: C_20  and  C_21 
REMARK    8  A    between atoms: C_21  and  C_22 
ROOT
HETATM    1  C   UNL     1       5.220  34.708  66.761  1.00  0.00     0.120 A 
HETATM    2  N   UNL     1       4.186  34.172  67.478  1.00  0.00    -0.272 N 
HETATM    3  H   UNL     1       3.220  34.094  67.171  1.00  0.00     0.189 HD
HETATM    4  N   UNL     1       4.524  33.722  68.698  1.00  0.00    -0.174 NA
HETATM    5  C   UNL     1       5.852  33.922  68.773  1.00  0.00     0.092 A 
HETATM    6  C   UNL     1       6.327  34.502  67.562  1.00  0.00     0.071 A 
ENDROOT
BRANCH   1   7
HETATM    7  C   UNL     1       4.986  35.226  65.432  1.00  0.00     0.271 C 
HETATM    8  N   UNL     1       5.197  34.426  64.296  1.00  0.00    -0.346 N 
HETATM    9  O   UNL     1       4.605  36.392  65.316  1.00  0.00    -0.266 OA
BRANCH   8  10
HETATM   10  C   UNL     1       4.604  34.896  63.036  1.00  0.00     0.126 C 
BRANCH  10  11
HETATM   11  C   UNL     1       3.706  33.852  62.366  1.00  0.00     0.015 C 
HETATM   12  C   UNL     1       3.987  33.697  60.879  1.00  0.00     0.006 C 
ENDBRANCH  10  11
ENDBRANCH   8  10
BRANCH   8  13
HETATM   13  C   UNL     1       5.831  33.095  64.328  1.00  0.00     0.130 C 
BRANCH  13  14
HETATM   14  C   UNL     1       7.352  33.063  64.092  1.00  0.00     0.058 C 
BRANCH  14  15
HETATM   15  C   UNL     1       7.801  32.385  62.814  1.00  0.00    -0.057 A 
HETATM   16  C   UNL     1       7.496  32.993  61.584  1.00  0.00     0.007 A 
HETATM   17  C   UNL     1       7.920  32.429  60.379  1.00  0.00     0.001 A 
HETATM   18  C   UNL     1       8.664  31.253  60.384  1.00  0.00     0.000 A 
HETATM   19  C   UNL     1       8.991  30.647  61.594  1.00  0.00     0.001 A 
HETATM   20  C   UNL     1       8.572  31.214  62.802  1.00  0.00     0.007 A 
ENDBRANCH  14  15
ENDBRANCH  13  14
ENDBRANCH   8  13
ENDBRANCH   1   7
BRANCH   5  21
HETATM   21  C   UNL     1       6.611  33.538  69.974  1.00  0.00     0.028 A 
HETATM   22  C   UNL     1       6.250  32.423  70.752  1.00  0.00     0.078 A 
HETATM   23  C   UNL     1       6.977  32.061  71.886  1.00  0.00     0.037 A 
HETATM   24  C   UNL     1       8.080  32.818  72.273  1.00  0.00     0.003 A 
HETATM   25  C   UNL     1       8.452  33.933  71.524  1.00  0.00     0.001 A 
HETATM   26  C   UNL     1       7.724  34.290  70.384  1.00  0.00     0.017 A 
BRANCH  22  27
HETATM   27  O   UNL     1       5.173  31.627  70.454  1.00  0.00    -0.360 OA
HETATM   28  H   UNL     1       5.033  31.712  69.482  1.00  0.00     0.217 HD
ENDBRANCH  22  27
ENDBRANCH   5  21
TORSDOF 8
ENDMDL
MODEL 4
REMARK VINA RESULT:      -8.4      2.193      6.961
REMARK  8 active torsions:
REMARK  status: ('A' for Active; 'I' for Inactive)
REMARK    1  A    between atoms: C_2  and  C_3 
REMARK    2  A    between atoms: C_3  and  N_4 
REMARK       I    between atoms: N_4  and  C_5 
REMARK    3  A    between atoms: N_4  and  C_20 
REMARK    4  A    between atoms: C_5  and  C_6 
REMARK    5  A    between atoms: C_10  and  C_11 
REMARK    6  A    between atoms: C_12  and  O_13 
REMARK    7  A    between atoms: C_20  and  C_21 
REMARK    8  A    between atoms: C_21  and  C_22 
ROOT
HETATM    1  C   UNL     1       7.636  25.856  56.574  1.00  0.00     0.120 A 
HETATM    2  N   UNL     1       6.367  25.391  56.363  1.00  0.00    -0.272 N 
HETATM    3  H   UNL     1       5.504  25.891  56.562  1.00  0.00     0.189 HD
HETATM    4  N   UNL     1       6.301  24.152  55.849  1.00  0.00    -0.174 NA
HETATM    5  C   UNL     1       7.586  23.799  55.662  1.00  0.00     0.092 A 
HETATM    6  C   UNL     1       8.447  24.858  56.069  1.00  0.00     0.071 A 
ENDROOT
BRANCH   1   7
HETATM    7  C   UNL     1       7.839  27.178  57.122  1.00  0.00     0.271 C 
HETATM    8  N   UNL     1       8.007  28.292  56.282  1.00  0.00    -0.346 N 
HETATM    9  O   UNL     1       7.873  27.305  58.347  1.00  0.00    -0.266 OA
BRANCH   8  10
HETATM   10  C   UNL     1       7.849  29.616  56.900  1.00  0.00     0.126 C 
BRANCH  10  11
HETATM   11  C   UNL     1       9.088  30.072  57.675  1.00  0.00     0.015 C 
HETATM   12  C   UNL     1      10.369  29.957  56.864  1.00  0.00     0.006 C 
ENDBRANCH  10  11
ENDBRANCH   8  10
BRANCH   8  13
HETATM   13  C   UNL     1       8.173  28.207  54.820  1.00  0.00     0.130 C 
BRANCH  13  14
HETATM   14  C   UNL     1       6.888  28.341  53.983  1.00  0.00     0.058 C 
BRANCH  14  15
HETATM   15  C   UNL     1       6.387  27.061  53.344  1.00  0.00    -0.057 A 
HETATM   16  C   UNL     1       7.312  26.219  52.705  1.00  0.00     0.007 A 
HETATM   17  C   UNL     1       6.909  25.010  52.135  1.00  0.00     0.001 A 
HETATM   18  C   UNL     1       5.575  24.619  52.201  1.00  0.00     0.000 A 
HETATM   19  C   UNL     1       4.648  25.432  52.848  1.00  0.00     0.001 A 
HETATM   20  C   UNL     1       5.052  26.641  53.424  1.00  0.00     0.007 A 
ENDBRANCH  14  15
ENDBRANCH  13  14
ENDBRANCH   8  13
ENDBRANCH   1   7
BRANCH   5  21
HETATM   21  C   UNL     1       7.938  22.490  55.091  1.00  0.00     0.028 A 
HETATM   22  C   UNL     1       8.300  21.400  55.904  1.00  0.00     0.078 A 
HETATM   23  C   UNL     1       8.627  20.160  55.356  1.00  0.00     0.037 A 
HETATM   24  C   UNL     1       8.609  19.986  53.975  1.00  0.00     0.003 A 
HETATM   25  C   UNL     1       8.263  21.052  53.147  1.00  0.00     0.001 A 
HETATM   26  C   UNL     1       7.930  22.294  53.700  1.00  0.00     0.017 A 
BRANCH  22  27
HETATM   27  O   UNL     1       8.356  21.482  57.272  1.00  0.00    -0.360 OA
HETATM   28  H   UNL     1       8.928  20.736  57.567  1.00  0.00     0.217 HD
ENDBRANCH  22  27
ENDBRANCH   5  21
TORSDOF 8
ENDMDL
MODEL 5
REMARK VINA RESULT:      -8.2      2.115      6.445
REMARK  8 active torsions:
REMARK  status: ('A' for Active; 'I' for Inactive)
REMARK    1  A    between atoms: C_2  and  C_3 
REMARK    2  A    between atoms: C_3  and  N_4 
REMARK       I    between atoms: N_4  and  C_5 
REMARK    3  A    between atoms: N_4  and  C_20 
REMARK    4  A    between atoms: C_5  and  C_6 
REMARK    5  A    between atoms: C_10  and  C_11 
REMARK    6  A    between atoms: C_12  and  O_13 
REMARK    7  A    between atoms: C_20  and  C_21 
REMARK    8  A    between atoms: C_21  and  C_22 
ROOT
HETATM    1  C   UNL     1       5.413  27.866  54.110  1.00  0.00     0.120 A 
HETATM    2  N   UNL     1       4.077  27.704  53.863  1.00  0.00    -0.272 N 
HETATM    3  H   UNL     1       3.341  27.643  54.562  1.00  0.00     0.189 HD
HETATM    4  N   UNL     1       3.753  27.620  52.563  1.00  0.00    -0.174 NA
HETATM    5  C   UNL     1       4.921  27.785  51.916  1.00  0.00     0.092 A 
HETATM    6  C   UNL     1       5.975  27.980  52.853  1.00  0.00     0.071 A 
ENDROOT
BRANCH   1   7
HETATM    7  C   UNL     1       5.888  27.972  55.471  1.00  0.00     0.271 C 
HETATM    8  N   UNL     1       6.405  26.852  56.146  1.00  0.00    -0.346 N 
HETATM    9  O   UNL     1       5.821  29.066  56.032  1.00  0.00    -0.266 OA
BRANCH   8  10
HETATM   10  C   UNL     1       7.182  27.115  57.365  1.00  0.00     0.126 C 
BRANCH  10  11
HETATM   11  C   UNL     1       8.639  27.493  57.082  1.00  0.00     0.015 C 
HETATM   12  C   UNL     1       8.959  28.934  57.448  1.00  0.00     0.006 C 
ENDBRANCH  10  11
ENDBRANCH   8  10
BRANCH   8  13
HETATM   13  C   UNL     1       6.346  25.473  55.627  1.00  0.00     0.130 C 
BRANCH  13  14
HETATM   14  C   UNL     1       7.476  25.063  54.665  1.00  0.00     0.058 C 
BRANCH  14  15
HETATM   15  C   UNL     1       7.663  23.571  54.474  1.00  0.00    -0.057 A 
HETATM   16  C   UNL     1       7.594  22.734  55.600  1.00  0.00     0.007 A 
HETATM   17  C   UNL     1       7.721  21.349  55.474  1.00  0.00     0.001 A 
HETATM   18  C   UNL     1       7.910  20.778  54.219  1.00  0.00     0.000 A 
HETATM   19  C   UNL     1       7.962  21.592  53.090  1.00  0.00     0.001 A 
HETATM   20  C   UNL     1       7.829  22.978  53.215  1.00  0.00     0.007 A 
ENDBRANCH  14  15
ENDBRANCH  13  14
ENDBRANCH   8  13
ENDBRANCH   1   7
BRANCH   5  21
HETATM   21  C   UNL     1       4.983  27.770  50.446  1.00  0.00     0.028 A 
HETATM   22  C   UNL     1       4.638  26.626  49.702  1.00  0.00     0.078 A 
HETATM   23  C   UNL     1       4.694  26.620  48.308  1.00  0.00     0.037 A 
HETATM   24  C   UNL     1       5.108  27.761  47.626  1.00  0.00     0.003 A 
HETATM   25  C   UNL     1       5.464  28.904  48.340  1.00  0.00     0.001 A 
HETATM   26  C   UNL     1       5.402  28.909  49.738  1.00  0.00     0.017 A 
BRANCH  22  27
HETATM   27  O   UNL     1       4.230  25.455  50.288  1.00  0.00    -0.360 OA
HETATM   28  H   UNL     1       4.398  25.561  51.254  1.00  0.00     0.217 HD
ENDBRANCH  22  27
ENDBRANCH   5  21
TORSDOF 8
ENDMDL
MODEL 6
REMARK VINA RESULT:      -8.2      2.905      6.549
REMARK  8 active torsions:
REMARK  status: ('A' for Active; 'I' for Inactive)
REMARK    1  A    between atoms: C_2  and  C_3 
REMARK    2  A    between atoms: C_3  and  N_4 
REMARK       I    between atoms: N_4  and  C_5 
REMARK    3  A    between atoms: N_4  and  C_20 
REMARK    4  A    between atoms: C_5  and  C_6 
REMARK    5  A    between atoms: C_10  and  C_11 
REMARK    6  A    between atoms: C_12  and  O_13 
REMARK    7  A    between atoms: C_20  and  C_21 
REMARK    8  A    between atoms: C_21  and  C_22 
ROOT
HETATM    1  C   UNL     1       5.337  27.671  53.678  1.00  0.00     0.120 A 
HETATM    2  N   UNL     1       6.205  28.587  53.148  1.00  0.00    -0.272 N 
HETATM    3  H   UNL     1       6.908  29.114  53.661  1.00  0.00     0.189 HD
HETATM    4  N   UNL     1       6.080  28.778  51.825  1.00  0.00    -0.174 NA
HETATM    5  C   UNL     1       5.120  27.913  51.451  1.00  0.00     0.092 A 
HETATM    6  C   UNL     1       4.661  27.176  52.580  1.00  0.00     0.071 A 
ENDROOT
BRANCH   1   7
HETATM    7  C   UNL     1       5.374  27.375  55.092  1.00  0.00     0.271 C 
HETATM    8  N   UNL     1       5.702  26.089  55.554  1.00  0.00    -0.346 N 
HETATM    9  O   UNL     1       5.099  28.276  55.886  1.00  0.00    -0.266 OA
BRANCH   8  10
HETATM   10  C   UNL     1       6.063  25.968  56.973  1.00  0.00     0.126 C 
BRANCH  10  11
HETATM   11  C   UNL     1       7.503  26.396  57.268  1.00  0.00     0.015 C 
HETATM   12  C   UNL     1       8.411  25.225  57.611  1.00  0.00     0.006 C 
ENDBRANCH  10  11
ENDBRANCH   8  10
BRANCH   8  13
HETATM   13  C   UNL     1       5.855  24.911  54.681  1.00  0.00     0.130 C 
BRANCH  13  14
HETATM   14  C   UNL     1       7.292  24.573  54.244  1.00  0.00     0.058 C 
BRANCH  14  15
HETATM   15  C   UNL     1       7.634  23.097  54.207  1.00  0.00    -0.057 A 
HETATM   16  C   UNL     1       7.605  22.368  55.408  1.00  0.00     0.007 A 
HETATM   17  C   UNL     1       7.875  20.998  55.423  1.00  0.00     0.001 A 
HETATM   18  C   UNL     1       8.169  20.333  54.237  1.00  0.00     0.000 A 
HETATM   19  C   UNL     1       8.183  21.036  53.035  1.00  0.00     0.001 A 
HETATM   20  C   UNL     1       7.908  22.407  53.018  1.00  0.00     0.007 A 
ENDBRANCH  14  15
ENDBRANCH  13  14
ENDBRANCH   8  13
ENDBRANCH   1   7
BRANCH   5  21
HETATM   21  C   UNL     1       4.698  27.809  50.045  1.00  0.00     0.028 A 
HETATM   22  C   UNL     1       4.317  28.941  49.301  1.00  0.00     0.078 A 
HETATM   23  C   UNL     1       3.923  28.836  47.967  1.00  0.00     0.037 A 
HETATM   24  C   UNL     1       3.891  27.588  47.350  1.00  0.00     0.003 A 
HETATM   25  C   UNL     1       4.255  26.451  48.068  1.00  0.00     0.001 A 
HETATM   26  C   UNL     1       4.655  26.560  49.404  1.00  0.00     0.017 A 
BRANCH  22  27
HETATM   27  O   UNL     1       4.306  30.207  49.830  1.00  0.00    -0.360 OA
HETATM   28  H   UNL     1       4.689  30.794  49.137  1.00  0.00     0.217 HD
ENDBRANCH  22  27
ENDBRANCH   5  21
TORSDOF 8
ENDMDL
MODEL 7
REMARK VINA RESULT:      -8.1      3.767      7.320
REMARK  8 active torsions:
REMARK  status: ('A' for Active; 'I' for Inactive)
REMARK    1  A    between atoms: C_2  and  C_3 
REMARK    2  A    between atoms: C_3  and  N_4 
REMARK       I    between atoms: N_4  and  C_5 
REMARK    3  A    between atoms: N_4  and  C_20 
REMARK    4  A    between atoms: C_5  and  C_6 
REMARK    5  A    between atoms: C_10  and  C_11 
REMARK    6  A    between atoms: C_12  and  O_13 
REMARK    7  A    between atoms: C_20  and  C_21 
REMARK    8  A    between atoms: C_21  and  C_22 
ROOT
HETATM    1  C   UNL     1       6.123  25.872  54.560  1.00  0.00     0.120 A 
HETATM    2  N   UNL     1       7.187  26.015  55.408  1.00  0.00    -0.272 N 
HETATM    3  H   UNL     1       7.446  26.862  55.909  1.00  0.00     0.189 HD
HETATM    4  N   UNL     1       7.934  24.910  55.561  1.00  0.00    -0.174 NA
HETATM    5  C   UNL     1       7.308  23.977  54.822  1.00  0.00     0.092 A 
HETATM    6  C   UNL     1       6.148  24.535  54.213  1.00  0.00     0.071 A 
ENDROOT
BRANCH   1   7
HETATM    7  C   UNL     1       5.241  26.990  54.313  1.00  0.00     0.271 C 
HETATM    8  N   UNL     1       5.034  27.474  53.009  1.00  0.00    -0.346 N 
HETATM    9  O   UNL     1       4.679  27.517  55.274  1.00  0.00    -0.266 OA
BRANCH   8  10
HETATM   10  C   UNL     1       3.874  28.354  52.807  1.00  0.00     0.126 C 
BRANCH  10  11
HETATM   11  C   UNL     1       4.261  29.816  52.570  1.00  0.00     0.015 C 
HETATM   12  C   UNL     1       3.901  30.720  53.739  1.00  0.00     0.006 C 
ENDBRANCH  10  11
ENDBRANCH   8  10
BRANCH   8  13
HETATM   13  C   UNL     1       5.805  27.034  51.832  1.00  0.00     0.130 C 
BRANCH  13  14
HETATM   14  C   UNL     1       5.125  25.989  50.929  1.00  0.00     0.058 C 
BRANCH  14  15
HETATM   15  C   UNL     1       4.554  26.520  49.630  1.00  0.00    -0.057 A 
HETATM   16  C   UNL     1       4.886  27.826  49.230  1.00  0.00     0.007 A 
HETATM   17  C   UNL     1       4.418  28.349  48.023  1.00  0.00     0.001 A 
HETATM   18  C   UNL     1       3.616  27.572  47.192  1.00  0.00     0.000 A 
HETATM   19  C   UNL     1       3.293  26.270  47.563  1.00  0.00     0.001 A 
HETATM   20  C   UNL     1       3.766  25.743  48.769  1.00  0.00     0.007 A 
ENDBRANCH  14  15
ENDBRANCH  13  14
ENDBRANCH   8  13
ENDBRANCH   1   7
BRANCH   5  21
HETATM   21  C   UNL     1       7.822  22.601  54.742  1.00  0.00     0.028 A 
HETATM   22  C   UNL     1       8.321  21.930  55.875  1.00  0.00     0.078 A 
HETATM   23  C   UNL     1       8.801  20.623  55.793  1.00  0.00     0.037 A 
HETATM   24  C   UNL     1       8.804  19.960  54.569  1.00  0.00     0.003 A 
HETATM   25  C   UNL     1       8.325  20.606  53.431  1.00  0.00     0.001 A 
HETATM   26  C   UNL     1       7.838  21.915  53.516  1.00  0.00     0.017 A 
BRANCH  22  27
HETATM   27  O   UNL     1       8.368  22.508  57.118  1.00  0.00    -0.360 OA
HETATM   28  H   UNL     1       9.150  22.115  57.571  1.00  0.00     0.217 HD
ENDBRANCH  22  27
ENDBRANCH   5  21
TORSDOF 8
ENDMDL
MODEL 8
REMARK VINA RESULT:      -7.7      2.210      3.385
REMARK  8 active torsions:
REMARK  status: ('A' for Active; 'I' for Inactive)
REMARK    1  A    between atoms: C_2  and  C_3 
REMARK    2  A    between atoms: C_3  and  N_4 
REMARK       I    between atoms: N_4  and  C_5 
REMARK    3  A    between atoms: N_4  and  C_20 
REMARK    4  A    between atoms: C_5  and  C_6 
REMARK    5  A    between atoms: C_10  and  C_11 
REMARK    6  A    between atoms: C_12  and  O_13 
REMARK    7  A    between atoms: C_20  and  C_21 
REMARK    8  A    between atoms: C_21  and  C_22 
ROOT
HETATM    1  C   UNL     1       5.343  28.323  52.407  1.00  0.00     0.120 A 
HETATM    2  N   UNL     1       4.243  28.294  53.221  1.00  0.00    -0.272 N 
HETATM    3  H   UNL     1       3.283  28.139  52.926  1.00  0.00     0.189 HD
HETATM    4  N   UNL     1       4.504  28.497  54.522  1.00  0.00    -0.174 NA
HETATM    5  C   UNL     1       5.842  28.615  54.581  1.00  0.00     0.092 A 
HETATM    6  C   UNL     1       6.403  28.472  53.280  1.00  0.00     0.071 A 
ENDROOT
BRANCH   1   7
HETATM    7  C   UNL     1       5.194  28.116  50.984  1.00  0.00     0.271 C 
HETATM    8  N   UNL     1       5.096  26.820  50.448  1.00  0.00    -0.346 N 
HETATM    9  O   UNL     1       5.166  29.103  50.248  1.00  0.00    -0.266 OA
BRANCH   8  10
HETATM   10  C   UNL     1       4.595  26.710  49.071  1.00  0.00     0.126 C 
BRANCH  10  11
HETATM   11  C   UNL     1       3.762  25.448  48.830  1.00  0.00     0.015 C 
HETATM   12  C   UNL     1       3.102  25.426  47.461  1.00  0.00     0.006 C 
ENDBRANCH  10  11
ENDBRANCH   8  10
BRANCH   8  13
HETATM   13  C   UNL     1       5.313  25.585  51.224  1.00  0.00     0.130 C 
BRANCH  13  14
HETATM   14  C   UNL     1       6.772  25.269  51.601  1.00  0.00     0.058 C 
BRANCH  14  15
HETATM   15  C   UNL     1       6.960  24.487  52.885  1.00  0.00    -0.057 A 
HETATM   16  C   UNL     1       7.682  23.282  52.841  1.00  0.00     0.007 A 
HETATM   17  C   UNL     1       7.918  22.543  54.002  1.00  0.00     0.001 A 
HETATM   18  C   UNL     1       7.442  23.001  55.227  1.00  0.00     0.000 A 
HETATM   19  C   UNL     1       6.741  24.202  55.292  1.00  0.00     0.001 A 
HETATM   20  C   UNL     1       6.510  24.946  54.131  1.00  0.00     0.007 A 
ENDBRANCH  14  15
ENDBRANCH  13  14
ENDBRANCH   8  13
ENDBRANCH   1   7
BRANCH   5  21
HETATM   21  C   UNL     1       6.529  28.837  55.864  1.00  0.00     0.028 A 
HETATM   22  C   UNL     1       6.335  30.011  56.615  1.00  0.00     0.078 A 
HETATM   23  C   UNL     1       6.985  30.212  57.832  1.00  0.00     0.037 A 
HETATM   24  C   UNL     1       7.855  29.242  58.322  1.00  0.00     0.003 A 
HETATM   25  C   UNL     1       8.071  28.075  57.594  1.00  0.00     0.001 A 
HETATM   26  C   UNL     1       7.414  27.873  56.375  1.00  0.00     0.017 A 
BRANCH  22  27
HETATM   27  O   UNL     1       5.506  31.025  56.205  1.00  0.00    -0.360 OA
HETATM   28  H   UNL     1       5.215  30.787  55.294  1.00  0.00     0.217 HD
ENDBRANCH  22  27
ENDBRANCH   5  21
TORSDOF 8
ENDMDL
MODEL 9
REMARK VINA RESULT:      -7.6      9.862     14.872
REMARK  8 active torsions:
REMARK  status: ('A' for Active; 'I' for Inactive)
REMARK    1  A    between atoms: C_2  and  C_3 
REMARK    2  A    between atoms: C_3  and  N_4 
REMARK       I    between atoms: N_4  and  C_5 
REMARK    3  A    between atoms: N_4  and  C_20 
REMARK    4  A    between atoms: C_5  and  C_6 
REMARK    5  A    between atoms: C_10  and  C_11 
REMARK    6  A    between atoms: C_12  and  O_13 
REMARK    7  A    between atoms: C_20  and  C_21 
REMARK    8  A    between atoms: C_21  and  C_22 
ROOT
HETATM    1  C   UNL     1       5.349  33.921  66.123  1.00  0.00     0.120 A 
HETATM    2  N   UNL     1       4.346  33.879  67.053  1.00  0.00    -0.272 N 
HETATM    3  H   UNL     1       3.364  33.694  66.868  1.00  0.00     0.189 HD
HETATM    4  N   UNL     1       4.742  34.114  68.315  1.00  0.00    -0.174 NA
HETATM    5  C   UNL     1       6.075  34.268  68.224  1.00  0.00     0.092 A 
HETATM    6  C   UNL     1       6.494  34.114  66.872  1.00  0.00     0.071 A 
ENDROOT
BRANCH   1   7
HETATM    7  C   UNL     1       5.051  33.683  64.729  1.00  0.00     0.271 C 
HETATM    8  N   UNL     1       5.090  34.730  63.791  1.00  0.00    -0.346 N 
HETATM    9  O   UNL     1       4.751  32.540  64.381  1.00  0.00    -0.266 OA
BRANCH   8  10
HETATM   10  C   UNL     1       5.131  34.346  62.373  1.00  0.00     0.126 C 
BRANCH  10  11
HETATM   11  C   UNL     1       6.526  33.927  61.901  1.00  0.00     0.015 C 
HETATM   12  C   UNL     1       6.521  32.613  61.136  1.00  0.00     0.006 C 
ENDBRANCH  10  11
ENDBRANCH   8  10
BRANCH   8  13
HETATM   13  C   UNL     1       5.249  36.152  64.146  1.00  0.00     0.130 C 
BRANCH  13  14
HETATM   14  C   UNL     1       4.930  37.167  63.034  1.00  0.00     0.058 C 
BRANCH  14  15
HETATM   15  C   UNL     1       5.895  38.330  62.915  1.00  0.00    -0.057 A 
HETATM   16  C   UNL     1       6.149  39.115  64.052  1.00  0.00     0.007 A 
HETATM   17  C   UNL     1       7.058  40.174  64.005  1.00  0.00     0.001 A 
HETATM   18  C   UNL     1       7.735  40.460  62.823  1.00  0.00     0.000 A 
HETATM   19  C   UNL     1       7.509  39.680  61.692  1.00  0.00     0.001 A 
HETATM   20  C   UNL     1       6.603  38.616  61.739  1.00  0.00     0.007 A 
ENDBRANCH  14  15
ENDBRANCH  13  14
ENDBRANCH   8  13
ENDBRANCH   1   7
BRANCH   5  21
HETATM   21  C   UNL     1       6.892  34.532  69.420  1.00  0.00     0.028 A 
HETATM   22  C   UNL     1       7.109  33.546  70.401  1.00  0.00     0.078 A 
HETATM   23  C   UNL     1       7.888  33.801  71.529  1.00  0.00     0.037 A 
HETATM   24  C   UNL     1       8.462  35.057  71.706  1.00  0.00     0.003 A 
HETATM   25  C   UNL     1       8.254  36.053  70.754  1.00  0.00     0.001 A 
HETATM   26  C   UNL     1       7.476  35.793  69.620  1.00  0.00     0.017 A 
BRANCH  22  27
HETATM   27  O   UNL     1       6.574  32.285  70.316  1.00  0.00    -0.360 OA
HETATM   28  H   UNL     1       5.603  32.393  70.445  1.00  0.00     0.217 HD
ENDBRANCH  22  27
ENDBRANCH   5  21
TORSDOF 8
ENDMDL
MODEL 10
REMARK VINA RESULT:      -7.6      4.086      6.970
REMARK  8 active torsions:
REMARK  status: ('A' for Active; 'I' for Inactive)
REMARK    1  A    between atoms: C_2  and  C_3 
REMARK    2  A    between atoms: C_3  and  N_4 
REMARK       I    between atoms: N_4  and  C_5 
REMARK    3  A    between atoms: N_4  and  C_20 
REMARK    4  A    between atoms: C_5  and  C_6 
REMARK    5  A    between atoms: C_10  and  C_11 
REMARK    6  A    between atoms: C_12  and  O_13 
REMARK    7  A    between atoms: C_20  and  C_21 
REMARK    8  A    between atoms: C_21  and  C_22 
ROOT
HETATM    1  C   UNL     1       5.707  28.161  52.912  1.00  0.00     0.120 A 
HETATM    2  N   UNL     1       6.869  28.489  53.556  1.00  0.00    -0.272 N 
HETATM    3  H   UNL     1       7.176  29.429  53.796  1.00  0.00     0.189 HD
HETATM    4  N   UNL     1       7.646  27.443  53.879  1.00  0.00    -0.174 NA
HETATM    5  C   UNL     1       6.945  26.368  53.477  1.00  0.00     0.092 A 
HETATM    6  C   UNL     1       5.708  26.779  52.903  1.00  0.00     0.071 A 
ENDROOT
BRANCH   1   7
HETATM    7  C   UNL     1       4.783  29.199  52.514  1.00  0.00     0.271 C 
HETATM    8  N   UNL     1       4.709  29.627  51.176  1.00  0.00    -0.346 N 
HETATM    9  O   UNL     1       4.067  29.709  53.376  1.00  0.00    -0.266 OA
BRANCH   8  10
HETATM   10  C   UNL     1       3.523  30.407  50.797  1.00  0.00     0.126 C 
BRANCH  10  11
HETATM   11  C   UNL     1       2.228  29.591  50.835  1.00  0.00     0.015 C 
HETATM   12  C   UNL     1       1.427  29.691  49.546  1.00  0.00     0.006 C 
ENDBRANCH  10  11
ENDBRANCH   8  10
BRANCH   8  13
HETATM   13  C   UNL     1       5.653  29.214  50.123  1.00  0.00     0.130 C 
BRANCH  13  14
HETATM   14  C   UNL     1       5.059  29.032  48.714  1.00  0.00     0.058 C 
BRANCH  14  15
HETATM   15  C   UNL     1       4.334  27.723  48.474  1.00  0.00    -0.057 A 
HETATM   16  C   UNL     1       3.530  27.596  47.330  1.00  0.00     0.007 A 
HETATM   17  C   UNL     1       2.871  26.399  47.042  1.00  0.00     0.001 A 
HETATM   18  C   UNL     1       3.013  25.305  47.891  1.00  0.00     0.000 A 
HETATM   19  C   UNL     1       3.822  25.407  49.020  1.00  0.00     0.001 A 
HETATM   20  C   UNL     1       4.486  26.604  49.306  1.00  0.00     0.007 A 
ENDBRANCH  14  15
ENDBRANCH  13  14
ENDBRANCH   8  13
ENDBRANCH   1   7
BRANCH   5  21
HETATM   21  C   UNL     1       7.465  25.006  53.672  1.00  0.00     0.028 A 
HETATM   22  C   UNL     1       7.885  24.547  54.935  1.00  0.00     0.078 A 
HETATM   23  C   UNL     1       8.372  23.253  55.114  1.00  0.00     0.037 A 
HETATM   24  C   UNL     1       8.461  22.389  54.026  1.00  0.00     0.003 A 
HETATM   25  C   UNL     1       8.060  22.822  52.763  1.00  0.00     0.001 A 
HETATM   26  C   UNL     1       7.567  24.119  52.587  1.00  0.00     0.017 A 
BRANCH  22  27
HETATM   27  O   UNL     1       7.845  25.332  56.060  1.00  0.00    -0.360 OA
HETATM   28  H   UNL     1       7.021  25.868  55.988  1.00  0.00     0.217 HD
ENDBRANCH  22  27
ENDBRANCH   5  21
TORSDOF 8
ENDMDL
