MODEL 1
REMARK VINA RESULT:      -9.8      0.000      0.000
REMARK  4 active torsions:
REMARK  status: ('A' for Active; 'I' for Inactive)
REMARK    1  A    between atoms: C_2  and  C_3 
REMARK    2  A    between atoms: C_4  and  C_5 
REMARK       I    between atoms: C_5  and  N_6 
REMARK    3  A    between atoms: N_6  and  C_7 
REMARK    4  A    between atoms: C_14  and  C_15 
REMARK       I    between atoms: C_15  and  N_16 
ROOT
HETATM    1  C   UNL     1       8.570  28.766  57.062  1.00  0.00     0.035 A 
HETATM    2  C   UNL     1       7.912  29.564  58.009  1.00  0.00     0.046 A 
HETATM    3  C   UNL     1       8.591  30.660  58.589  1.00  0.00     0.030 A 
HETATM    4  C   UNL     1       9.898  30.921  58.200  1.00  0.00     0.063 A 
HETATM    5  N   UNL     1      10.280  32.016  58.923  1.00  0.00    -0.277 N 
HETATM    6  H   UNL     1      11.179  32.485  58.898  1.00  0.00     0.189 HD
HETATM    7  N   UNL     1       9.337  32.496  59.748  1.00  0.00    -0.168 NA
HETATM    8  C   UNL     1       8.284  31.669  59.552  1.00  0.00     0.156 A 
HETATM    9  C   UNL     1      10.581  30.153  57.255  1.00  0.00     0.034 A 
HETATM   10  C   UNL     1       9.887  29.074  56.696  1.00  0.00     0.032 A 
ENDROOT
BRANCH   1  11
HETATM   11  N   UNL     1       7.988  27.641  56.440  1.00  0.00    -0.327 N 
HETATM   12  C   UNL     1       7.063  27.625  55.417  1.00  0.00     0.227 C 
HETATM   13  O   UNL     1       6.583  28.594  54.847  1.00  0.00    -0.273 OA
HETATM   14  H   UNL     1       8.256  26.747  56.821  1.00  0.00     0.169 HD
BRANCH  12  15
HETATM   15  C   UNL     1       6.583  26.274  54.992  1.00  0.00     0.087 A 
HETATM   16  C   UNL     1       7.294  25.574  53.841  1.00  0.00     0.032 A 
HETATM   17  C   UNL     1       5.834  25.950  53.727  1.00  0.00     0.025 A 
BRANCH  16  18
HETATM   18  C   UNL     1       7.700  24.128  53.977  1.00  0.00    -0.053 A 
HETATM   19  C   UNL     1       7.472  23.208  52.939  1.00  0.00     0.009 A 
HETATM   20  C   UNL     1       7.872  21.873  53.047  1.00  0.00     0.024 A 
HETATM   21  C   UNL     1       8.515  21.436  54.202  1.00  0.00     0.034 A 
HETATM   22  C   UNL     1       8.761  22.324  55.244  1.00  0.00     0.024 A 
HETATM   23 CL   UNL     1       9.013  19.796  54.336  1.00  0.00    -0.084 Cl
HETATM   24  C   UNL     1       8.359  23.658  55.127  1.00  0.00     0.009 A 
ENDBRANCH  16  18
ENDBRANCH  12  15
ENDBRANCH   1  11
BRANCH   8  25
HETATM   25  C   UNL     1       7.023  31.860  60.282  1.00  0.00     0.270 C 
HETATM   26  N   UNL     1       6.993  31.257  61.510  1.00  0.00    -0.365 N 
HETATM   27  H   UNL     1       7.810  30.743  61.818  1.00  0.00     0.159 HD
HETATM   28  H   UNL     1       6.169  31.335  62.085  1.00  0.00     0.159 HD
HETATM   29  O   UNL     1       6.061  32.495  59.864  1.00  0.00    -0.266 OA
ENDBRANCH   8  25
TORSDOF 4
ENDMDL
MODEL 2
REMARK VINA RESULT:      -9.4      5.234      9.937
REMARK  4 active torsions:
REMARK  status: ('A' for Active; 'I' for Inactive)
REMARK    1  A    between atoms: C_2  and  C_3 
REMARK    2  A    between atoms: C_4  and  C_5 
REMARK       I    between atoms: C_5  and  N_6 
REMARK    3  A    between atoms: N_6  and  C_7 
REMARK    4  A    between atoms: C_14  and  C_15 
REMARK       I    between atoms: C_15  and  N_16 
ROOT
HETATM    1  C   UNL     1       8.058  29.642  58.217  1.00  0.00     0.035 A 
HETATM    2  C   UNL     1       6.926  29.199  57.519  1.00  0.00     0.046 A 
HETATM    3  C   UNL     1       7.047  28.823  56.162  1.00  0.00     0.030 A 
HETATM    4  C   UNL     1       8.292  28.900  55.553  1.00  0.00     0.063 A 
HETATM    5  N   UNL     1       8.094  28.486  54.266  1.00  0.00    -0.277 N 
HETATM    6  H   UNL     1       8.788  28.416  53.530  1.00  0.00     0.189 HD
HETATM    7  N   UNL     1       6.829  28.141  53.981  1.00  0.00    -0.168 NA
HETATM    8  C   UNL     1       6.168  28.341  55.144  1.00  0.00     0.156 A 
HETATM    9  C   UNL     1       9.442  29.330  56.219  1.00  0.00     0.034 A 
HETATM   10  C   UNL     1       9.296  29.696  57.562  1.00  0.00     0.032 A 
ENDROOT
BRANCH   1  11
HETATM   11  N   UNL     1       8.040  30.056  59.566  1.00  0.00    -0.327 N 
HETATM   12  C   UNL     1       7.664  31.284  60.068  1.00  0.00     0.227 C 
HETATM   13  O   UNL     1       7.260  32.245  59.430  1.00  0.00    -0.273 OA
HETATM   14  H   UNL     1       8.381  29.381  60.232  1.00  0.00     0.169 HD
BRANCH  12  15
HETATM   15  C   UNL     1       7.797  31.453  61.548  1.00  0.00     0.087 A 
HETATM   16  C   UNL     1       7.834  32.862  62.123  1.00  0.00     0.032 A 
HETATM   17  C   UNL     1       9.018  31.936  62.284  1.00  0.00     0.025 A 
BRANCH  16  18
HETATM   18  C   UNL     1       6.973  33.211  63.312  1.00  0.00    -0.053 A 
HETATM   19  C   UNL     1       5.573  33.269  63.204  1.00  0.00     0.009 A 
HETATM   20  C   UNL     1       4.768  33.563  64.309  1.00  0.00     0.024 A 
HETATM   21  C   UNL     1       5.357  33.800  65.548  1.00  0.00     0.034 A 
HETATM   22  C   UNL     1       6.739  33.744  65.688  1.00  0.00     0.024 A 
HETATM   23 CL   UNL     1       4.370  34.157  66.910  1.00  0.00    -0.084 Cl
HETATM   24  C   UNL     1       7.537  33.447  64.578  1.00  0.00     0.009 A 
ENDBRANCH  16  18
ENDBRANCH  12  15
ENDBRANCH   1  11
BRANCH   8  25
HETATM   25  C   UNL     1       4.728  28.072  55.256  1.00  0.00     0.270 C 
HETATM   26  N   UNL     1       4.391  27.264  56.308  1.00  0.00    -0.365 N 
HETATM   27  H   UNL     1       5.129  26.923  56.913  1.00  0.00     0.159 HD
HETATM   28  H   UNL     1       3.425  27.026  56.466  1.00  0.00     0.159 HD
HETATM   29  O   UNL     1       3.872  28.513  54.497  1.00  0.00    -0.266 OA
ENDBRANCH   8  25
TORSDOF 4
ENDMDL
MODEL 3
REMARK VINA RESULT:      -9.4      4.606      9.746
REMARK  4 active torsions:
REMARK  status: ('A' for Active; 'I' for Inactive)
REMARK    1  A    between atoms: C_2  and  C_3 
REMARK    2  A    between atoms: C_4  and  C_5 
REMARK       I    between atoms: C_5  and  N_6 
REMARK    3  A    between atoms: N_6  and  C_7 
REMARK    4  A    between atoms: C_14  and  C_15 
REMARK       I    between atoms: C_15  and  N_16 
ROOT
HETATM    1  C   UNL     1       7.392  28.995  57.947  1.00  0.00     0.035 A 
HETATM    2  C   UNL     1       7.691  27.650  57.686  1.00  0.00     0.046 A 
HETATM    3  C   UNL     1       7.328  27.085  56.442  1.00  0.00     0.030 A 
HETATM    4  C   UNL     1       6.683  27.883  55.506  1.00  0.00     0.063 A 
HETATM    5  N   UNL     1       6.460  27.071  54.429  1.00  0.00    -0.277 N 
HETATM    6  H   UNL     1       6.005  27.319  53.557  1.00  0.00     0.189 HD
HETATM    7  N   UNL     1       6.904  25.814  54.578  1.00  0.00    -0.168 NA
HETATM    8  C   UNL     1       7.446  25.806  55.818  1.00  0.00     0.156 A 
HETATM    9  C   UNL     1       6.377  29.226  55.729  1.00  0.00     0.034 A 
HETATM   10  C   UNL     1       6.747  29.762  56.968  1.00  0.00     0.032 A 
ENDROOT
BRANCH   1  11
HETATM   11  N   UNL     1       7.696  29.647  59.162  1.00  0.00    -0.327 N 
HETATM   12  C   UNL     1       8.840  30.348  59.482  1.00  0.00     0.227 C 
HETATM   13  O   UNL     1       9.804  30.546  58.759  1.00  0.00    -0.273 OA
HETATM   14  H   UNL     1       7.006  29.551  59.890  1.00  0.00     0.169 HD
BRANCH  12  15
HETATM   15  C   UNL     1       8.904  30.891  60.874  1.00  0.00     0.087 A 
HETATM   16  C   UNL     1       8.449  32.323  61.122  1.00  0.00     0.032 A 
HETATM   17  C   UNL     1       9.880  31.914  61.388  1.00  0.00     0.025 A 
BRANCH  16  18
HETATM   18  C   UNL     1       7.518  32.627  62.269  1.00  0.00    -0.053 A 
HETATM   19  C   UNL     1       8.010  32.833  63.570  1.00  0.00     0.009 A 
HETATM   20  C   UNL     1       7.155  33.145  64.632  1.00  0.00     0.024 A 
HETATM   21  C   UNL     1       5.787  33.262  64.404  1.00  0.00     0.034 A 
HETATM   22  C   UNL     1       5.271  33.071  63.127  1.00  0.00     0.024 A 
HETATM   23 CL   UNL     1       4.734  33.650  65.707  1.00  0.00    -0.084 Cl
HETATM   24  C   UNL     1       6.133  32.762  62.071  1.00  0.00     0.009 A 
ENDBRANCH  16  18
ENDBRANCH  12  15
ENDBRANCH   1  11
BRANCH   8  25
HETATM   25  C   UNL     1       8.058  24.590  56.372  1.00  0.00     0.270 C 
HETATM   26  N   UNL     1       7.444  23.430  55.982  1.00  0.00    -0.365 N 
HETATM   27  H   UNL     1       6.644  23.489  55.363  1.00  0.00     0.159 HD
HETATM   28  H   UNL     1       7.794  22.545  56.311  1.00  0.00     0.159 HD
HETATM   29  O   UNL     1       9.030  24.572  57.118  1.00  0.00    -0.266 OA
ENDBRANCH   8  25
TORSDOF 4
ENDMDL
MODEL 4
REMARK VINA RESULT:      -9.1      2.058      2.660
REMARK  4 active torsions:
REMARK  status: ('A' for Active; 'I' for Inactive)
REMARK    1  A    between atoms: C_2  and  C_3 
REMARK    2  A    between atoms: C_4  and  C_5 
REMARK       I    between atoms: C_5  and  N_6 
REMARK    3  A    between atoms: N_6  and  C_7 
REMARK    4  A    between atoms: C_14  and  C_15 
REMARK       I    between atoms: C_15  and  N_16 
ROOT
HETATM    1  C   UNL     1       5.975  28.781  55.854  1.00  0.00     0.035 A 
HETATM    2  C   UNL     1       6.816  29.158  56.910  1.00  0.00     0.046 A 
HETATM    3  C   UNL     1       6.616  30.403  57.550  1.00  0.00     0.030 A 
HETATM    4  C   UNL     1       5.582  31.222  57.114  1.00  0.00     0.063 A 
HETATM    5  N   UNL     1       5.644  32.335  57.905  1.00  0.00    -0.277 N 
HETATM    6  H   UNL     1       5.039  33.149  57.867  1.00  0.00     0.189 HD
HETATM    7  N   UNL     1       6.623  32.314  58.822  1.00  0.00    -0.168 NA
HETATM    8  C   UNL     1       7.233  31.124  58.617  1.00  0.00     0.156 A 
HETATM    9  C   UNL     1       4.722  30.875  56.072  1.00  0.00     0.034 A 
HETATM   10  C   UNL     1       4.941  29.638  55.455  1.00  0.00     0.032 A 
ENDROOT
BRANCH   1  11
HETATM   11  N   UNL     1       6.103  27.570  55.140  1.00  0.00    -0.327 N 
HETATM   12  C   UNL     1       6.381  27.405  53.800  1.00  0.00     0.227 C 
HETATM   13  O   UNL     1       6.584  28.287  52.979  1.00  0.00    -0.273 OA
HETATM   14  H   UNL     1       5.930  26.732  55.672  1.00  0.00     0.169 HD
BRANCH  12  15
HETATM   15  C   UNL     1       6.405  25.993  53.307  1.00  0.00     0.087 A 
HETATM   16  C   UNL     1       7.749  25.296  53.147  1.00  0.00     0.032 A 
HETATM   17  C   UNL     1       6.858  25.529  51.949  1.00  0.00     0.025 A 
BRANCH  16  18
HETATM   18  C   UNL     1       7.943  23.903  53.693  1.00  0.00    -0.053 A 
HETATM   19  C   UNL     1       7.950  22.784  52.843  1.00  0.00     0.009 A 
HETATM   20  C   UNL     1       8.159  21.493  53.339  1.00  0.00     0.024 A 
HETATM   21  C   UNL     1       8.371  21.304  54.701  1.00  0.00     0.034 A 
HETATM   22  C   UNL     1       8.377  22.392  55.567  1.00  0.00     0.024 A 
HETATM   23 CL   UNL     1       8.634  19.719  55.314  1.00  0.00    -0.084 Cl
HETATM   24  C   UNL     1       8.169  23.680  55.063  1.00  0.00     0.009 A 
ENDBRANCH  16  18
ENDBRANCH  12  15
ENDBRANCH   1  11
BRANCH   8  25
HETATM   25  C   UNL     1       8.380  30.708  59.436  1.00  0.00     0.270 C 
HETATM   26  N   UNL     1       8.084  30.528  60.760  1.00  0.00    -0.365 N 
HETATM   27  H   UNL     1       7.132  30.686  61.070  1.00  0.00     0.159 HD
HETATM   28  H   UNL     1       8.807  30.240  61.399  1.00  0.00     0.159 HD
HETATM   29  O   UNL     1       9.516  30.526  59.011  1.00  0.00    -0.266 OA
ENDBRANCH   8  25
TORSDOF 4
ENDMDL
MODEL 5
REMARK VINA RESULT:      -8.9      4.111      9.143
REMARK  4 active torsions:
REMARK  status: ('A' for Active; 'I' for Inactive)
REMARK    1  A    between atoms: C_2  and  C_3 
REMARK    2  A    between atoms: C_4  and  C_5 
REMARK       I    between atoms: C_5  and  N_6 
REMARK    3  A    between atoms: N_6  and  C_7 
REMARK    4  A    between atoms: C_14  and  C_15 
REMARK       I    between atoms: C_15  and  N_16 
ROOT
HETATM    1  C   UNL     1       6.733  27.853  55.802  1.00  0.00     0.035 A 
HETATM    2  C   UNL     1       7.031  26.595  55.261  1.00  0.00     0.046 A 
HETATM    3  C   UNL     1       6.142  26.008  54.330  1.00  0.00     0.030 A 
HETATM    4  C   UNL     1       4.993  26.701  53.973  1.00  0.00     0.063 A 
HETATM    5  N   UNL     1       4.345  25.893  53.081  1.00  0.00    -0.277 N 
HETATM    6  H   UNL     1       3.465  26.079  52.612  1.00  0.00     0.189 HD
HETATM    7  N   UNL     1       4.971  24.736  52.821  1.00  0.00    -0.168 NA
HETATM    8  C   UNL     1       6.086  24.792  53.584  1.00  0.00     0.156 A 
HETATM    9  C   UNL     1       4.669  27.958  54.485  1.00  0.00     0.034 A 
HETATM   10  C   UNL     1       5.565  28.517  55.404  1.00  0.00     0.032 A 
ENDROOT
BRANCH   1  11
HETATM   11  N   UNL     1       7.544  28.514  56.749  1.00  0.00    -0.327 N 
HETATM   12  C   UNL     1       8.731  29.180  56.527  1.00  0.00     0.227 C 
HETATM   13  O   UNL     1       9.297  29.333  55.455  1.00  0.00    -0.273 OA
HETATM   14  H   UNL     1       7.232  28.454  57.705  1.00  0.00     0.169 HD
BRANCH  12  15
HETATM   15  C   UNL     1       9.400  29.744  57.741  1.00  0.00     0.087 A 
HETATM   16  C   UNL     1       9.152  31.202  58.101  1.00  0.00     0.032 A 
HETATM   17  C   UNL     1      10.543  30.723  57.756  1.00  0.00     0.025 A 
BRANCH  16  18
HETATM   18  C   UNL     1       8.806  31.577  59.521  1.00  0.00    -0.053 A 
HETATM   19  C   UNL     1       7.471  31.754  59.922  1.00  0.00     0.009 A 
HETATM   20  C   UNL     1       7.143  32.072  61.244  1.00  0.00     0.024 A 
HETATM   21  C   UNL     1       8.153  32.214  62.191  1.00  0.00     0.034 A 
HETATM   22  C   UNL     1       9.483  32.039  61.826  1.00  0.00     0.024 A 
HETATM   23 CL   UNL     1       7.753  32.601  63.818  1.00  0.00    -0.084 Cl
HETATM   24  C   UNL     1       9.803  31.719  60.503  1.00  0.00     0.009 A 
ENDBRANCH  16  18
ENDBRANCH  12  15
ENDBRANCH   1  11
BRANCH   8  25
HETATM   25  C   UNL     1       7.062  23.693  53.585  1.00  0.00     0.270 C 
HETATM   26  N   UNL     1       7.165  23.039  54.783  1.00  0.00    -0.365 N 
HETATM   27  H   UNL     1       6.582  23.345  55.554  1.00  0.00     0.159 HD
HETATM   28  H   UNL     1       7.807  22.269  54.878  1.00  0.00     0.159 HD
HETATM   29  O   UNL     1       7.743  23.360  52.621  1.00  0.00    -0.266 OA
ENDBRANCH   8  25
TORSDOF 4
ENDMDL
MODEL 6
REMARK VINA RESULT:      -8.9      4.394      8.863
REMARK  4 active torsions:
REMARK  status: ('A' for Active; 'I' for Inactive)
REMARK    1  A    between atoms: C_2  and  C_3 
REMARK    2  A    between atoms: C_4  and  C_5 
REMARK       I    between atoms: C_5  and  N_6 
REMARK    3  A    between atoms: N_6  and  C_7 
REMARK    4  A    between atoms: C_14  and  C_15 
REMARK       I    between atoms: C_15  and  N_16 
ROOT
HETATM    1  C   UNL     1       7.544  25.339  54.258  1.00  0.00     0.035 A 
HETATM    2  C   UNL     1       7.886  24.236  55.053  1.00  0.00     0.046 A 
HETATM    3  C   UNL     1       8.104  22.979  54.444  1.00  0.00     0.030 A 
HETATM    4  C   UNL     1       7.975  22.871  53.065  1.00  0.00     0.063 A 
HETATM    5  N   UNL     1       8.234  21.560  52.778  1.00  0.00    -0.277 N 
HETATM    6  H   UNL     1       8.228  21.118  51.865  1.00  0.00     0.189 HD
HETATM    7  N   UNL     1       8.525  20.802  53.847  1.00  0.00    -0.168 NA
HETATM    8  C   UNL     1       8.451  21.666  54.886  1.00  0.00     0.156 A 
HETATM    9  C   UNL     1       7.643  23.948  52.243  1.00  0.00     0.034 A 
HETATM   10  C   UNL     1       7.432  25.182  52.870  1.00  0.00     0.032 A 
ENDROOT
BRANCH   1  11
HETATM   11  N   UNL     1       7.289  26.629  54.770  1.00  0.00    -0.327 N 
HETATM   12  C   UNL     1       6.083  27.298  54.814  1.00  0.00     0.227 C 
HETATM   13  O   UNL     1       5.001  26.885  54.426  1.00  0.00    -0.273 OA
HETATM   14  H   UNL     1       8.096  27.130  55.106  1.00  0.00     0.169 HD
BRANCH  12  15
HETATM   15  C   UNL     1       6.127  28.685  55.372  1.00  0.00     0.087 A 
HETATM   16  C   UNL     1       5.688  28.909  56.812  1.00  0.00     0.032 A 
HETATM   17  C   UNL     1       4.942  29.563  55.672  1.00  0.00     0.025 A 
BRANCH  16  18
HETATM   18  C   UNL     1       6.543  29.738  57.738  1.00  0.00    -0.053 A 
HETATM   19  C   UNL     1       7.785  29.266  58.198  1.00  0.00     0.009 A 
HETATM   20  C   UNL     1       8.595  30.043  59.033  1.00  0.00     0.024 A 
HETATM   21  C   UNL     1       8.174  31.312  59.417  1.00  0.00     0.034 A 
HETATM   22  C   UNL     1       6.953  31.809  58.973  1.00  0.00     0.024 A 
HETATM   23 CL   UNL     1       9.170  32.271  60.440  1.00  0.00    -0.084 Cl
HETATM   24  C   UNL     1       6.150  31.027  58.137  1.00  0.00     0.009 A 
ENDBRANCH  16  18
ENDBRANCH  12  15
ENDBRANCH   1  11
BRANCH   8  25
HETATM   25  C   UNL     1       8.710  21.222  56.263  1.00  0.00     0.270 C 
HETATM   26  N   UNL     1       9.462  20.081  56.348  1.00  0.00    -0.365 N 
HETATM   27  H   UNL     1       9.776  19.642  55.491  1.00  0.00     0.159 HD
HETATM   28  H   UNL     1       9.693  19.702  57.252  1.00  0.00     0.159 HD
HETATM   29  O   UNL     1       8.308  21.792  57.270  1.00  0.00    -0.266 OA
ENDBRANCH   8  25
TORSDOF 4
ENDMDL
MODEL 7
REMARK VINA RESULT:      -8.8      6.032      8.732
REMARK  4 active torsions:
REMARK  status: ('A' for Active; 'I' for Inactive)
REMARK    1  A    between atoms: C_2  and  C_3 
REMARK    2  A    between atoms: C_4  and  C_5 
REMARK       I    between atoms: C_5  and  N_6 
REMARK    3  A    between atoms: N_6  and  C_7 
REMARK    4  A    between atoms: C_14  and  C_15 
REMARK       I    between atoms: C_15  and  N_16 
ROOT
HETATM    1  C   UNL     1       6.709  25.128  54.484  1.00  0.00     0.035 A 
HETATM    2  C   UNL     1       7.085  23.790  54.302  1.00  0.00     0.046 A 
HETATM    3  C   UNL     1       7.644  23.070  55.383  1.00  0.00     0.030 A 
HETATM    4  C   UNL     1       7.803  23.711  56.605  1.00  0.00     0.063 A 
HETATM    5  N   UNL     1       8.361  22.779  57.434  1.00  0.00    -0.277 N 
HETATM    6  H   UNL     1       8.619  22.900  58.407  1.00  0.00     0.189 HD
HETATM    7  N   UNL     1       8.578  21.584  56.863  1.00  0.00    -0.168 NA
HETATM    8  C   UNL     1       8.137  21.746  55.594  1.00  0.00     0.156 A 
HETATM    9  C   UNL     1       7.433  25.039  56.824  1.00  0.00     0.034 A 
HETATM   10  C   UNL     1       6.882  25.730  55.738  1.00  0.00     0.032 A 
ENDROOT
BRANCH   1  11
HETATM   11  N   UNL     1       6.160  25.937  53.466  1.00  0.00    -0.327 N 
HETATM   12  C   UNL     1       5.002  25.723  52.749  1.00  0.00     0.227 C 
HETATM   13  O   UNL     1       4.221  24.792  52.877  1.00  0.00    -0.273 OA
HETATM   14  H   UNL     1       6.707  26.744  53.211  1.00  0.00     0.169 HD
BRANCH  12  15
HETATM   15  C   UNL     1       4.696  26.732  51.688  1.00  0.00     0.087 A 
HETATM   16  C   UNL     1       4.918  26.351  50.231  1.00  0.00     0.032 A 
HETATM   17  C   UNL     1       5.699  27.484  50.856  1.00  0.00     0.025 A 
BRANCH  16  18
HETATM   18  C   UNL     1       3.847  26.638  49.208  1.00  0.00    -0.053 A 
HETATM   19  C   UNL     1       3.513  25.694  48.221  1.00  0.00     0.009 A 
HETATM   20  C   UNL     1       2.501  25.943  47.288  1.00  0.00     0.024 A 
HETATM   21  C   UNL     1       1.801  27.145  47.333  1.00  0.00     0.034 A 
HETATM   22  C   UNL     1       2.105  28.096  48.301  1.00  0.00     0.024 A 
HETATM   23 CL   UNL     1       0.553  27.452  46.190  1.00  0.00    -0.084 Cl
HETATM   24  C   UNL     1       3.116  27.839  49.232  1.00  0.00     0.009 A 
ENDBRANCH  16  18
ENDBRANCH  12  15
ENDBRANCH   1  11
BRANCH   8  25
HETATM   25  C   UNL     1       8.198  20.646  54.623  1.00  0.00     0.270 C 
HETATM   26  N   UNL     1       9.021  19.617  54.996  1.00  0.00    -0.365 N 
HETATM   27  H   UNL     1       9.510  19.684  55.881  1.00  0.00     0.159 HD
HETATM   28  H   UNL     1       9.125  18.817  54.394  1.00  0.00     0.159 HD
HETATM   29  O   UNL     1       7.583  20.611  53.563  1.00  0.00    -0.266 OA
ENDBRANCH   8  25
TORSDOF 4
ENDMDL
MODEL 8
REMARK VINA RESULT:      -8.8      2.258      2.923
REMARK  4 active torsions:
REMARK  status: ('A' for Active; 'I' for Inactive)
REMARK    1  A    between atoms: C_2  and  C_3 
REMARK    2  A    between atoms: C_4  and  C_5 
REMARK       I    between atoms: C_5  and  N_6 
REMARK    3  A    between atoms: N_6  and  C_7 
REMARK    4  A    between atoms: C_14  and  C_15 
REMARK       I    between atoms: C_15  and  N_16 
ROOT
HETATM    1  C   UNL     1       6.005  30.380  56.725  1.00  0.00     0.035 A 
HETATM    2  C   UNL     1       6.701  30.430  57.941  1.00  0.00     0.046 A 
HETATM    3  C   UNL     1       6.433  31.475  58.855  1.00  0.00     0.030 A 
HETATM    4  C   UNL     1       5.479  32.428  58.523  1.00  0.00     0.063 A 
HETATM    5  N   UNL     1       5.448  33.294  59.580  1.00  0.00    -0.277 N 
HETATM    6  H   UNL     1       4.866  34.118  59.681  1.00  0.00     0.189 HD
HETATM    7  N   UNL     1       6.294  32.988  60.575  1.00  0.00    -0.168 NA
HETATM    8  C   UNL     1       6.910  31.864  60.143  1.00  0.00     0.156 A 
HETATM    9  C   UNL     1       4.763  32.405  57.325  1.00  0.00     0.034 A 
HETATM   10  C   UNL     1       5.046  31.361  56.437  1.00  0.00     0.032 A 
ENDROOT
BRANCH   1  11
HETATM   11  N   UNL     1       6.212  29.391  55.739  1.00  0.00    -0.327 N 
HETATM   12  C   UNL     1       5.730  28.099  55.724  1.00  0.00     0.227 C 
HETATM   13  O   UNL     1       5.016  27.573  56.564  1.00  0.00    -0.273 OA
HETATM   14  H   UNL     1       6.818  29.657  54.978  1.00  0.00     0.169 HD
BRANCH  12  15
HETATM   15  C   UNL     1       6.159  27.256  54.565  1.00  0.00     0.087 A 
HETATM   16  C   UNL     1       7.501  26.542  54.638  1.00  0.00     0.032 A 
HETATM   17  C   UNL     1       7.243  27.586  53.575  1.00  0.00     0.025 A 
BRANCH  16  18
HETATM   18  C   UNL     1       7.598  25.084  54.265  1.00  0.00    -0.053 A 
HETATM   19  C   UNL     1       7.398  24.074  55.222  1.00  0.00     0.009 A 
HETATM   20  C   UNL     1       7.457  22.720  54.876  1.00  0.00     0.024 A 
HETATM   21  C   UNL     1       7.714  22.355  53.557  1.00  0.00     0.034 A 
HETATM   22  C   UNL     1       7.910  23.332  52.587  1.00  0.00     0.024 A 
HETATM   23 CL   UNL     1       7.782  20.692  53.127  1.00  0.00    -0.084 Cl
HETATM   24  C   UNL     1       7.847  24.683  52.940  1.00  0.00     0.009 A 
ENDBRANCH  16  18
ENDBRANCH  12  15
ENDBRANCH   1  11
BRANCH   8  25
HETATM   25  C   UNL     1       7.930  31.194  60.962  1.00  0.00     0.270 C 
HETATM   26  N   UNL     1       7.480  30.784  62.188  1.00  0.00    -0.365 N 
HETATM   27  H   UNL     1       6.513  30.962  62.434  1.00  0.00     0.159 HD
HETATM   28  H   UNL     1       8.108  30.313  62.819  1.00  0.00     0.159 HD
HETATM   29  O   UNL     1       9.090  31.000  60.616  1.00  0.00    -0.266 OA
ENDBRANCH   8  25
TORSDOF 4
ENDMDL
MODEL 9
REMARK VINA RESULT:      -8.7      3.529      6.422
REMARK  4 active torsions:
REMARK  status: ('A' for Active; 'I' for Inactive)
REMARK    1  A    between atoms: C_2  and  C_3 
REMARK    2  A    between atoms: C_4  and  C_5 
REMARK       I    between atoms: C_5  and  N_6 
REMARK    3  A    between atoms: N_6  and  C_7 
REMARK    4  A    between atoms: C_14  and  C_15 
REMARK       I    between atoms: C_15  and  N_16 
ROOT
HETATM    1  C   UNL     1       6.854  32.026  61.709  1.00  0.00     0.035 A 
HETATM    2  C   UNL     1       5.570  32.564  61.878  1.00  0.00     0.046 A 
HETATM    3  C   UNL     1       5.219  33.156  63.113  1.00  0.00     0.030 A 
HETATM    4  C   UNL     1       6.162  33.190  64.132  1.00  0.00     0.063 A 
HETATM    5  N   UNL     1       5.540  33.805  65.182  1.00  0.00    -0.277 N 
HETATM    6  H   UNL     1       5.930  34.000  66.098  1.00  0.00     0.189 HD
HETATM    7  N   UNL     1       4.274  34.178  64.939  1.00  0.00    -0.168 NA
HETATM    8  C   UNL     1       4.061  33.786  63.661  1.00  0.00     0.156 A 
HETATM    9  C   UNL     1       7.451  32.671  63.997  1.00  0.00     0.034 A 
HETATM   10  C   UNL     1       7.774  32.092  62.764  1.00  0.00     0.032 A 
ENDROOT
BRANCH   1  11
HETATM   11  N   UNL     1       7.295  31.400  60.524  1.00  0.00    -0.327 N 
HETATM   12  C   UNL     1       8.266  31.837  59.648  1.00  0.00     0.227 C 
HETATM   13  O   UNL     1       8.940  32.852  59.747  1.00  0.00    -0.273 OA
HETATM   14  H   UNL     1       6.810  30.552  60.275  1.00  0.00     0.169 HD
BRANCH  12  15
HETATM   15  C   UNL     1       8.487  30.984  58.440  1.00  0.00     0.087 A 
HETATM   16  C   UNL     1       8.560  29.473  58.614  1.00  0.00     0.032 A 
HETATM   17  C   UNL     1       9.750  30.244  58.089  1.00  0.00     0.025 A 
BRANCH  16  18
HETATM   18  C   UNL     1       7.771  28.572  57.697  1.00  0.00    -0.053 A 
HETATM   19  C   UNL     1       8.398  27.544  56.972  1.00  0.00     0.009 A 
HETATM   20  C   UNL     1       7.668  26.687  56.143  1.00  0.00     0.024 A 
HETATM   21  C   UNL     1       6.289  26.844  56.031  1.00  0.00     0.034 A 
HETATM   22  C   UNL     1       5.639  27.847  56.741  1.00  0.00     0.024 A 
HETATM   23 CL   UNL     1       5.387  25.788  55.017  1.00  0.00    -0.084 Cl
HETATM   24  C   UNL     1       6.377  28.699  57.569  1.00  0.00     0.009 A 
ENDBRANCH  16  18
ENDBRANCH  12  15
ENDBRANCH   1  11
BRANCH   8  25
HETATM   25  C   UNL     1       2.768  34.018  63.002  1.00  0.00     0.270 C 
HETATM   26  N   UNL     1       1.683  33.784  63.803  1.00  0.00    -0.365 N 
HETATM   27  H   UNL     1       1.841  33.479  64.756  1.00  0.00     0.159 HD
HETATM   28  H   UNL     1       0.755  33.918  63.437  1.00  0.00     0.159 HD
HETATM   29  O   UNL     1       2.630  34.390  61.842  1.00  0.00    -0.266 OA
ENDBRANCH   8  25
TORSDOF 4
ENDMDL
MODEL 10
REMARK VINA RESULT:      -8.5      6.109      8.921
REMARK  4 active torsions:
REMARK  status: ('A' for Active; 'I' for Inactive)
REMARK    1  A    between atoms: C_2  and  C_3 
REMARK    2  A    between atoms: C_4  and  C_5 
REMARK       I    between atoms: C_5  and  N_6 
REMARK    3  A    between atoms: N_6  and  C_7 
REMARK    4  A    between atoms: C_14  and  C_15 
REMARK       I    between atoms: C_15  and  N_16 
ROOT
HETATM    1  C   UNL     1       5.175  27.342  50.126  1.00  0.00     0.035 A 
HETATM    2  C   UNL     1       4.071  27.073  49.305  1.00  0.00     0.046 A 
HETATM    3  C   UNL     1       3.348  28.147  48.735  1.00  0.00     0.030 A 
HETATM    4  C   UNL     1       3.756  29.447  49.005  1.00  0.00     0.063 A 
HETATM    5  N   UNL     1       2.876  30.249  48.334  1.00  0.00    -0.277 N 
HETATM    6  H   UNL     1       2.869  31.263  48.306  1.00  0.00     0.189 HD
HETATM    7  N   UNL     1       1.932  29.588  47.647  1.00  0.00    -0.168 NA
HETATM    8  C   UNL     1       2.211  28.286  47.883  1.00  0.00     0.156 A 
HETATM    9  C   UNL     1       4.854  29.751  49.811  1.00  0.00     0.034 A 
HETATM   10  C   UNL     1       5.553  28.670  50.362  1.00  0.00     0.032 A 
ENDROOT
BRANCH   1  11
HETATM   11  N   UNL     1       5.950  26.344  50.755  1.00  0.00    -0.327 N 
HETATM   12  C   UNL     1       5.634  25.614  51.881  1.00  0.00     0.227 C 
HETATM   13  O   UNL     1       4.608  25.688  52.540  1.00  0.00    -0.273 OA
HETATM   14  H   UNL     1       6.858  26.179  50.349  1.00  0.00     0.169 HD
BRANCH  12  15
HETATM   15  C   UNL     1       6.681  24.653  52.351  1.00  0.00     0.087 A 
HETATM   16  C   UNL     1       7.584  25.063  53.506  1.00  0.00     0.032 A 
HETATM   17  C   UNL     1       8.166  24.778  52.140  1.00  0.00     0.025 A 
BRANCH  16  18
HETATM   18  C   UNL     1       7.822  24.108  54.649  1.00  0.00    -0.053 A 
HETATM   19  C   UNL     1       8.177  24.576  55.926  1.00  0.00     0.009 A 
HETATM   20  C   UNL     1       8.370  23.697  56.997  1.00  0.00     0.024 A 
HETATM   21  C   UNL     1       8.204  22.329  56.805  1.00  0.00     0.034 A 
HETATM   22  C   UNL     1       7.847  21.836  55.555  1.00  0.00     0.024 A 
HETATM   23 CL   UNL     1       8.436  21.246  58.120  1.00  0.00    -0.084 Cl
HETATM   24  C   UNL     1       7.654  22.721  54.490  1.00  0.00     0.009 A 
ENDBRANCH  16  18
ENDBRANCH  12  15
ENDBRANCH   1  11
BRANCH   8  25
HETATM   25  C   UNL     1       1.393  27.215  47.296  1.00  0.00     0.270 C 
HETATM   26  N   UNL     1       2.104  26.320  46.543  1.00  0.00    -0.365 N 
HETATM   27  H   UNL     1       3.104  26.452  46.449  1.00  0.00     0.159 HD
HETATM   28  H   UNL     1       1.628  25.549  46.102  1.00  0.00     0.159 HD
HETATM   29  O   UNL     1       0.182  27.098  47.444  1.00  0.00    -0.266 OA
ENDBRANCH   8  25
TORSDOF 4
ENDMDL
