MODEL 1
REMARK VINA RESULT:      -8.9      0.000      0.000
REMARK  7 active torsions:
REMARK  status: ('A' for Active; 'I' for Inactive)
REMARK    1  A    between atoms: C_2  and  C_3 
REMARK    2  A    between atoms: C_3  and  N_4 
REMARK    3  A    between atoms: C_7  and  C_8 
REMARK    4  A    between atoms: C_8  and  N_9 
REMARK       I    between atoms: N_9  and  C_10 
REMARK       I    between atoms: C_10  and  N_11 
REMARK    5  A    between atoms: N_11  and  C_12 
REMARK    6  A    between atoms: C_16  and  N_17 
REMARK       I    between atoms: N_17  and  C_18 
REMARK    7  A    between atoms: C_18  and  C_19 
ROOT
HETATM    1  C   UNL     1       7.155  28.971  56.360  1.00  0.00     0.036 A 
HETATM    2  C   UNL     1       6.283  30.042  56.550  1.00  0.00     0.038 A 
HETATM    3  C   UNL     1       6.321  30.812  57.731  1.00  0.00    -0.033 A 
HETATM    4  C   UNL     1       5.368  31.971  57.861  1.00  0.00     0.050 C 
HETATM    5  C   UNL     1       7.225  30.465  58.757  1.00  0.00     0.041 A 
HETATM    6  C   UNL     1       8.120  29.413  58.537  1.00  0.00     0.032 A 
HETATM    7  C   UNL     1       8.098  28.686  57.345  1.00  0.00     0.032 A 
ENDROOT
BRANCH   1   8
HETATM    8  N   UNL     1       7.150  28.157  55.212  1.00  0.00    -0.309 N 
HETATM    9  C   UNL     1       6.269  27.139  54.942  1.00  0.00     0.320 C 
HETATM   10  N   UNL     1       6.571  26.538  53.735  1.00  0.00    -0.342 N 
HETATM   11  O   UNL     1       5.392  26.701  55.677  1.00  0.00    -0.247 OA
HETATM   12  H   UNL     1       6.864  27.201  53.026  1.00  0.00     0.164 HD
HETATM   13  H   UNL     1       7.999  28.155  54.666  1.00  0.00     0.170 HD
BRANCH  10  14
HETATM   14  C   UNL     1       5.802  25.403  53.265  1.00  0.00     0.130 C 
BRANCH  14  15
HETATM   15  C   UNL     1       6.571  24.080  53.264  1.00  0.00     0.031 C 
HETATM   16  C   UNL     1       7.037  23.580  54.623  1.00  0.00     0.241 C 
HETATM   17  N   UNL     1       8.062  22.497  54.275  1.00  0.00    -0.071 N 
HETATM   18  H   UNL     1       8.860  22.658  54.904  1.00  0.00     0.279 HD
HETATM   19  C   UNL     1       8.513  22.766  52.849  1.00  0.00     0.235 C 
HETATM   20  C   UNL     1       7.873  24.091  52.474  1.00  0.00     0.035 C 
BRANCH  17  21
HETATM   21  C   UNL     1       7.553  21.101  54.525  1.00  0.00     0.234 C 
BRANCH  21  22
HETATM   22  C   UNL     1       7.707  20.689  55.987  1.00  0.00     0.023 C 
HETATM   23  C   UNL     1       9.140  20.362  56.382  1.00  0.00     0.007 C 
ENDBRANCH  21  22
ENDBRANCH  17  21
ENDBRANCH  14  15
ENDBRANCH  10  14
ENDBRANCH   1   8
BRANCH   5  24
HETATM   24  N   UNL     1       7.202  31.189  59.967  1.00  0.00    -0.321 N 
HETATM   25  C   UNL     1       8.050  32.206  60.375  1.00  0.00     0.279 C 
HETATM   26  O   UNL     1       8.993  32.648  59.726  1.00  0.00    -0.265 OA
HETATM   27  H   UNL     1       6.541  30.898  60.679  1.00  0.00     0.169 HD
BRANCH  25  28
HETATM   28  C   UNL     1       7.738  32.692  61.706  1.00  0.00     0.142 A 
HETATM   29  O   UNL     1       6.736  33.615  61.871  1.00  0.00    -0.317 OA
HETATM   30  C   UNL     1       6.665  33.894  63.199  1.00  0.00     0.143 A 
HETATM   31  C   UNL     1       7.591  33.157  63.899  1.00  0.00     0.027 A 
HETATM   32  C   UNL     1       8.285  32.383  62.938  1.00  0.00     0.045 A 
ENDBRANCH  25  28
ENDBRANCH   5  24
TORSDOF 7
ENDMDL
MODEL 2
REMARK VINA RESULT:      -8.8      2.073      3.444
REMARK  7 active torsions:
REMARK  status: ('A' for Active; 'I' for Inactive)
REMARK    1  A    between atoms: C_2  and  C_3 
REMARK    2  A    between atoms: C_3  and  N_4 
REMARK    3  A    between atoms: C_7  and  C_8 
REMARK    4  A    between atoms: C_8  and  N_9 
REMARK       I    between atoms: N_9  and  C_10 
REMARK       I    between atoms: C_10  and  N_11 
REMARK    5  A    between atoms: N_11  and  C_12 
REMARK    6  A    between atoms: C_16  and  N_17 
REMARK       I    between atoms: N_17  and  C_18 
REMARK    7  A    between atoms: C_18  and  C_19 
ROOT
HETATM    1  C   UNL     1       7.512  30.725  58.569  1.00  0.00     0.036 A 
HETATM    2  C   UNL     1       8.310  30.421  59.671  1.00  0.00     0.038 A 
HETATM    3  C   UNL     1       8.028  30.959  60.944  1.00  0.00    -0.033 A 
HETATM    4  C   UNL     1       8.916  30.570  62.097  1.00  0.00     0.050 C 
HETATM    5  C   UNL     1       6.949  31.854  61.097  1.00  0.00     0.041 A 
HETATM    6  C   UNL     1       6.134  32.119  59.991  1.00  0.00     0.032 A 
HETATM    7  C   UNL     1       6.401  31.547  58.745  1.00  0.00     0.032 A 
ENDROOT
BRANCH   1   8
HETATM    8  N   UNL     1       7.755  30.234  57.272  1.00  0.00    -0.309 N 
HETATM    9  C   UNL     1       6.910  29.445  56.531  1.00  0.00     0.320 C 
HETATM   10  N   UNL     1       7.478  29.132  55.311  1.00  0.00    -0.342 N 
HETATM   11  O   UNL     1       5.845  28.957  56.888  1.00  0.00    -0.247 OA
HETATM   12  H   UNL     1       7.991  29.907  54.903  1.00  0.00     0.164 HD
HETATM   13  H   UNL     1       8.715  30.256  56.962  1.00  0.00     0.170 HD
BRANCH  10  14
HETATM   14  C   UNL     1       6.787  28.265  54.377  1.00  0.00     0.130 C 
BRANCH  14  15
HETATM   15  C   UNL     1       7.316  26.830  54.341  1.00  0.00     0.031 C 
HETATM   16  C   UNL     1       6.460  25.825  53.586  1.00  0.00     0.241 C 
HETATM   17  N   UNL     1       7.016  24.471  54.036  1.00  0.00    -0.071 N 
HETATM   18  H   UNL     1       6.193  23.884  54.231  1.00  0.00     0.279 HD
HETATM   19  C   UNL     1       7.753  24.714  55.342  1.00  0.00     0.235 C 
HETATM   20  C   UNL     1       7.456  26.160  55.701  1.00  0.00     0.035 C 
BRANCH  17  21
HETATM   21  C   UNL     1       7.829  23.784  52.970  1.00  0.00     0.234 C 
BRANCH  21  22
HETATM   22  C   UNL     1       8.571  22.564  53.513  1.00  0.00     0.023 C 
HETATM   23  C   UNL     1       7.969  21.237  53.075  1.00  0.00     0.007 C 
ENDBRANCH  21  22
ENDBRANCH  17  21
ENDBRANCH  14  15
ENDBRANCH  10  14
ENDBRANCH   1   8
BRANCH   5  24
HETATM   24  N   UNL     1       6.723  32.450  62.355  1.00  0.00    -0.321 N 
HETATM   25  C   UNL     1       5.765  32.120  63.300  1.00  0.00     0.279 C 
HETATM   26  O   UNL     1       4.929  31.231  63.184  1.00  0.00    -0.265 OA
HETATM   27  H   UNL     1       7.263  33.274  62.590  1.00  0.00     0.169 HD
BRANCH  25  28
HETATM   28  C   UNL     1       5.814  32.982  64.467  1.00  0.00     0.142 A 
HETATM   29  O   UNL     1       4.665  33.222  65.178  1.00  0.00    -0.317 OA
HETATM   30  C   UNL     1       4.995  34.055  66.199  1.00  0.00     0.143 A 
HETATM   31  C   UNL     1       6.338  34.346  66.172  1.00  0.00     0.027 A 
HETATM   32  C   UNL     1       6.867  33.657  65.055  1.00  0.00     0.045 A 
ENDBRANCH  25  28
ENDBRANCH   5  24
TORSDOF 7
ENDMDL
MODEL 3
REMARK VINA RESULT:      -8.8      2.500     10.947
REMARK  7 active torsions:
REMARK  status: ('A' for Active; 'I' for Inactive)
REMARK    1  A    between atoms: C_2  and  C_3 
REMARK    2  A    between atoms: C_3  and  N_4 
REMARK    3  A    between atoms: C_7  and  C_8 
REMARK    4  A    between atoms: C_8  and  N_9 
REMARK       I    between atoms: N_9  and  C_10 
REMARK       I    between atoms: C_10  and  N_11 
REMARK    5  A    between atoms: N_11  and  C_12 
REMARK    6  A    between atoms: C_16  and  N_17 
REMARK       I    between atoms: N_17  and  C_18 
REMARK    7  A    between atoms: C_18  and  C_19 
ROOT
HETATM    1  C   UNL     1       6.732  27.872  57.023  1.00  0.00     0.036 A 
HETATM    2  C   UNL     1       7.025  27.808  55.661  1.00  0.00     0.038 A 
HETATM    3  C   UNL     1       7.202  26.568  55.012  1.00  0.00    -0.033 A 
HETATM    4  C   UNL     1       7.492  26.568  53.535  1.00  0.00     0.050 C 
HETATM    5  C   UNL     1       7.127  25.375  55.762  1.00  0.00     0.041 A 
HETATM    6  C   UNL     1       6.794  25.453  57.118  1.00  0.00     0.032 A 
HETATM    7  C   UNL     1       6.581  26.687  57.738  1.00  0.00     0.032 A 
ENDROOT
BRANCH   1   8
HETATM    8  N   UNL     1       6.564  29.080  57.726  1.00  0.00    -0.309 N 
HETATM    9  C   UNL     1       7.547  29.785  58.376  1.00  0.00     0.320 C 
HETATM   10  N   UNL     1       7.023  30.912  58.979  1.00  0.00    -0.342 N 
HETATM   11  O   UNL     1       8.716  29.455  58.535  1.00  0.00    -0.247 OA
HETATM   12  H   UNL     1       6.314  31.368  58.415  1.00  0.00     0.164 HD
HETATM   13  H   UNL     1       5.616  29.315  57.983  1.00  0.00     0.170 HD
BRANCH  10  14
HETATM   14  C   UNL     1       7.869  31.788  59.766  1.00  0.00     0.130 C 
BRANCH  14  15
HETATM   15  C   UNL     1       7.460  31.905  61.235  1.00  0.00     0.031 C 
HETATM   16  C   UNL     1       6.563  33.083  61.584  1.00  0.00     0.241 C 
HETATM   17  N   UNL     1       6.642  33.154  63.111  1.00  0.00    -0.071 N 
HETATM   18  H   UNL     1       6.760  34.151  63.337  1.00  0.00     0.279 HD
HETATM   19  C   UNL     1       7.907  32.416  63.517  1.00  0.00     0.235 C 
HETATM   20  C   UNL     1       8.613  32.092  62.212  1.00  0.00     0.035 C 
BRANCH  17  21
HETATM   21  C   UNL     1       5.385  32.674  63.790  1.00  0.00     0.234 C 
BRANCH  21  22
HETATM   22  C   UNL     1       4.629  33.815  64.468  1.00  0.00     0.023 C 
HETATM   23  C   UNL     1       4.844  33.880  65.973  1.00  0.00     0.007 C 
ENDBRANCH  21  22
ENDBRANCH  17  21
ENDBRANCH  14  15
ENDBRANCH  10  14
ENDBRANCH   1   8
BRANCH   5  24
HETATM   24  N   UNL     1       7.385  24.144  55.123  1.00  0.00    -0.321 N 
HETATM   25  C   UNL     1       8.507  23.339  55.235  1.00  0.00     0.279 C 
HETATM   26  O   UNL     1       9.491  23.583  55.925  1.00  0.00    -0.265 OA
HETATM   27  H   UNL     1       6.717  23.822  54.433  1.00  0.00     0.169 HD
BRANCH  25  28
HETATM   28  C   UNL     1       8.430  22.157  54.397  1.00  0.00     0.142 A 
HETATM   29  O   UNL     1       8.927  20.965  54.862  1.00  0.00    -0.317 OA
HETATM   30  C   UNL     1       8.733  20.043  53.883  1.00  0.00     0.143 A 
HETATM   31  C   UNL     1       8.105  20.611  52.800  1.00  0.00     0.027 A 
HETATM   32  C   UNL     1       7.911  21.974  53.129  1.00  0.00     0.045 A 
ENDBRANCH  25  28
ENDBRANCH   5  24
TORSDOF 7
ENDMDL
MODEL 4
REMARK VINA RESULT:      -8.7      2.057      3.147
REMARK  7 active torsions:
REMARK  status: ('A' for Active; 'I' for Inactive)
REMARK    1  A    between atoms: C_2  and  C_3 
REMARK    2  A    between atoms: C_3  and  N_4 
REMARK    3  A    between atoms: C_7  and  C_8 
REMARK    4  A    between atoms: C_8  and  N_9 
REMARK       I    between atoms: N_9  and  C_10 
REMARK       I    between atoms: C_10  and  N_11 
REMARK    5  A    between atoms: N_11  and  C_12 
REMARK    6  A    between atoms: C_16  and  N_17 
REMARK       I    between atoms: N_17  and  C_18 
REMARK    7  A    between atoms: C_18  and  C_19 
ROOT
HETATM    1  C   UNL     1       7.637  30.709  58.554  1.00  0.00     0.036 A 
HETATM    2  C   UNL     1       6.613  31.643  58.698  1.00  0.00     0.038 A 
HETATM    3  C   UNL     1       6.355  32.255  59.943  1.00  0.00    -0.033 A 
HETATM    4  C   UNL     1       5.249  33.274  60.023  1.00  0.00     0.050 C 
HETATM    5  C   UNL     1       7.116  31.882  61.070  1.00  0.00     0.041 A 
HETATM    6  C   UNL     1       8.165  30.973  60.903  1.00  0.00     0.032 A 
HETATM    7  C   UNL     1       8.435  30.406  59.655  1.00  0.00     0.032 A 
ENDROOT
BRANCH   1   8
HETATM    8  N   UNL     1       7.929  30.053  57.343  1.00  0.00    -0.309 N 
HETATM    9  C   UNL     1       7.022  29.436  56.515  1.00  0.00     0.320 C 
HETATM   10  N   UNL     1       7.659  28.877  55.424  1.00  0.00    -0.342 N 
HETATM   11  O   UNL     1       5.826  29.270  56.717  1.00  0.00    -0.247 OA
HETATM   12  H   UNL     1       8.412  29.455  55.066  1.00  0.00     0.164 HD
HETATM   13  H   UNL     1       8.895  29.802  57.195  1.00  0.00     0.170 HD
BRANCH  10  14
HETATM   14  C   UNL     1       6.907  28.129  54.436  1.00  0.00     0.130 C 
BRANCH  14  15
HETATM   15  C   UNL     1       7.217  26.631  54.411  1.00  0.00     0.031 C 
HETATM   16  C   UNL     1       6.348  25.788  53.490  1.00  0.00     0.241 C 
HETATM   17  N   UNL     1       6.621  24.354  53.953  1.00  0.00    -0.071 N 
HETATM   18  H   UNL     1       5.700  23.896  53.995  1.00  0.00     0.279 HD
HETATM   19  C   UNL     1       7.175  24.450  55.365  1.00  0.00     0.235 C 
HETATM   20  C   UNL     1       7.044  25.915  55.743  1.00  0.00     0.035 C 
BRANCH  17  21
HETATM   21  C   UNL     1       7.479  23.576  52.989  1.00  0.00     0.234 C 
BRANCH  21  22
HETATM   22  C   UNL     1       8.274  22.476  53.689  1.00  0.00     0.023 C 
HETATM   23  C   UNL     1       8.066  21.094  53.087  1.00  0.00     0.007 C 
ENDBRANCH  21  22
ENDBRANCH  17  21
ENDBRANCH  14  15
ENDBRANCH  10  14
ENDBRANCH   1   8
BRANCH   5  24
HETATM   24  N   UNL     1       6.799  32.437  62.327  1.00  0.00    -0.321 N 
HETATM   25  C   UNL     1       5.763  32.094  63.180  1.00  0.00     0.279 C 
HETATM   26  O   UNL     1       4.922  31.227  62.964  1.00  0.00    -0.265 OA
HETATM   27  H   UNL     1       7.334  33.241  62.637  1.00  0.00     0.169 HD
BRANCH  25  28
HETATM   28  C   UNL     1       5.733  32.912  64.379  1.00  0.00     0.142 A 
HETATM   29  O   UNL     1       4.543  33.107  65.034  1.00  0.00    -0.317 OA
HETATM   30  C   UNL     1       4.802  33.906  66.102  1.00  0.00     0.143 A 
HETATM   31  C   UNL     1       6.140  34.219  66.159  1.00  0.00     0.027 A 
HETATM   32  C   UNL     1       6.741  33.581  65.048  1.00  0.00     0.045 A 
ENDBRANCH  25  28
ENDBRANCH   5  24
TORSDOF 7
ENDMDL
MODEL 5
REMARK VINA RESULT:      -8.3      2.532     10.725
REMARK  7 active torsions:
REMARK  status: ('A' for Active; 'I' for Inactive)
REMARK    1  A    between atoms: C_2  and  C_3 
REMARK    2  A    between atoms: C_3  and  N_4 
REMARK    3  A    between atoms: C_7  and  C_8 
REMARK    4  A    between atoms: C_8  and  N_9 
REMARK       I    between atoms: N_9  and  C_10 
REMARK       I    between atoms: C_10  and  N_11 
REMARK    5  A    between atoms: N_11  and  C_12 
REMARK    6  A    between atoms: C_16  and  N_17 
REMARK       I    between atoms: N_17  and  C_18 
REMARK    7  A    between atoms: C_18  and  C_19 
ROOT
HETATM    1  C   UNL     1       5.702  27.679  57.133  1.00  0.00     0.036 A 
HETATM    2  C   UNL     1       6.869  27.050  57.565  1.00  0.00     0.038 A 
HETATM    3  C   UNL     1       7.326  25.864  56.955  1.00  0.00    -0.033 A 
HETATM    4  C   UNL     1       8.607  25.250  57.455  1.00  0.00     0.050 C 
HETATM    5  C   UNL     1       6.567  25.278  55.920  1.00  0.00     0.041 A 
HETATM    6  C   UNL     1       5.420  25.940  55.471  1.00  0.00     0.032 A 
HETATM    7  C   UNL     1       5.002  27.137  56.057  1.00  0.00     0.032 A 
ENDROOT
BRANCH   1   8
HETATM    8  N   UNL     1       5.188  28.853  57.715  1.00  0.00    -0.309 N 
HETATM    9  C   UNL     1       5.643  30.131  57.502  1.00  0.00     0.320 C 
HETATM   10  N   UNL     1       4.919  31.038  58.252  1.00  0.00    -0.342 N 
HETATM   11  O   UNL     1       6.618  30.473  56.845  1.00  0.00    -0.247 OA
HETATM   12  H   UNL     1       3.930  30.816  58.296  1.00  0.00     0.164 HD
HETATM   13  H   UNL     1       4.610  28.726  58.533  1.00  0.00     0.170 HD
BRANCH  10  14
HETATM   14  C   UNL     1       5.254  32.448  58.227  1.00  0.00     0.130 C 
BRANCH  14  15
HETATM   15  C   UNL     1       5.110  33.154  59.576  1.00  0.00     0.031 C 
HETATM   16  C   UNL     1       5.873  32.532  60.736  1.00  0.00     0.241 C 
HETATM   17  N   UNL     1       5.252  33.193  61.970  1.00  0.00    -0.071 N 
HETATM   18  H   UNL     1       5.105  32.433  62.648  1.00  0.00     0.279 HD
HETATM   19  C   UNL     1       3.893  33.724  61.542  1.00  0.00     0.235 C 
HETATM   20  C   UNL     1       3.692  33.206  60.129  1.00  0.00     0.035 C 
BRANCH  17  21
HETATM   21  C   UNL     1       6.156  34.214  62.611  1.00  0.00     0.234 C 
BRANCH  21  22
HETATM   22  C   UNL     1       6.807  33.681  63.886  1.00  0.00     0.023 C 
HETATM   23  C   UNL     1       7.943  32.701  63.629  1.00  0.00     0.007 C 
ENDBRANCH  21  22
ENDBRANCH  17  21
ENDBRANCH  14  15
ENDBRANCH  10  14
ENDBRANCH   1   8
BRANCH   5  24
HETATM   24  N   UNL     1       6.987  24.049  55.370  1.00  0.00    -0.321 N 
HETATM   25  C   UNL     1       7.691  23.831  54.197  1.00  0.00     0.279 C 
HETATM   26  O   UNL     1       8.066  24.703  53.421  1.00  0.00    -0.265 OA
HETATM   27  H   UNL     1       6.684  23.198  55.830  1.00  0.00     0.169 HD
BRANCH  25  28
HETATM   28  C   UNL     1       7.917  22.421  53.936  1.00  0.00     0.142 A 
HETATM   29  O   UNL     1       8.036  21.550  54.990  1.00  0.00    -0.317 OA
HETATM   30  C   UNL     1       8.245  20.315  54.465  1.00  0.00     0.143 A 
HETATM   31  C   UNL     1       8.248  20.367  53.091  1.00  0.00     0.027 A 
HETATM   32  C   UNL     1       8.038  21.724  52.749  1.00  0.00     0.045 A 
ENDBRANCH  25  28
ENDBRANCH   5  24
TORSDOF 7
ENDMDL
MODEL 6
REMARK VINA RESULT:      -7.7      2.387     10.772
REMARK  7 active torsions:
REMARK  status: ('A' for Active; 'I' for Inactive)
REMARK    1  A    between atoms: C_2  and  C_3 
REMARK    2  A    between atoms: C_3  and  N_4 
REMARK    3  A    between atoms: C_7  and  C_8 
REMARK    4  A    between atoms: C_8  and  N_9 
REMARK       I    between atoms: N_9  and  C_10 
REMARK       I    between atoms: C_10  and  N_11 
REMARK    5  A    between atoms: N_11  and  C_12 
REMARK    6  A    between atoms: C_16  and  N_17 
REMARK       I    between atoms: N_17  and  C_18 
REMARK    7  A    between atoms: C_18  and  C_19 
ROOT
HETATM    1  C   UNL     1       5.010  29.639  57.429  1.00  0.00     0.036 A 
HETATM    2  C   UNL     1       6.311  29.173  57.613  1.00  0.00     0.038 A 
HETATM    3  C   UNL     1       6.820  28.109  56.838  1.00  0.00    -0.033 A 
HETATM    4  C   UNL     1       8.242  27.671  57.071  1.00  0.00     0.050 C 
HETATM    5  C   UNL     1       5.985  27.477  55.894  1.00  0.00     0.041 A 
HETATM    6  C   UNL     1       4.695  27.979  55.694  1.00  0.00     0.032 A 
HETATM    7  C   UNL     1       4.219  29.060  56.439  1.00  0.00     0.032 A 
ENDROOT
BRANCH   1   8
HETATM    8  N   UNL     1       4.442  30.682  58.184  1.00  0.00    -0.309 N 
HETATM    9  C   UNL     1       5.024  31.896  58.458  1.00  0.00     0.320 C 
HETATM   10  N   UNL     1       4.193  32.671  59.244  1.00  0.00    -0.342 N 
HETATM   11  O   UNL     1       6.160  32.256  58.173  1.00  0.00    -0.247 OA
HETATM   12  H   UNL     1       3.215  32.585  58.989  1.00  0.00     0.164 HD
HETATM   13  H   UNL     1       3.661  30.431  58.772  1.00  0.00     0.170 HD
BRANCH  10  14
HETATM   14  C   UNL     1       4.618  33.979  59.700  1.00  0.00     0.130 C 
BRANCH  14  15
HETATM   15  C   UNL     1       4.703  34.118  61.221  1.00  0.00     0.031 C 
HETATM   16  C   UNL     1       4.283  32.897  62.025  1.00  0.00     0.241 C 
HETATM   17  N   UNL     1       4.109  33.444  63.445  1.00  0.00    -0.071 N 
HETATM   18  H   UNL     1       3.231  33.037  63.794  1.00  0.00     0.279 HD
HETATM   19  C   UNL     1       3.922  34.947  63.313  1.00  0.00     0.235 C 
HETATM   20  C   UNL     1       3.818  35.203  61.819  1.00  0.00     0.035 C 
BRANCH  17  21
HETATM   21  C   UNL     1       5.215  33.024  64.378  1.00  0.00     0.234 C 
BRANCH  21  22
HETATM   22  C   UNL     1       6.434  33.939  64.271  1.00  0.00     0.023 C 
HETATM   23  C   UNL     1       7.748  33.188  64.105  1.00  0.00     0.007 C 
ENDBRANCH  21  22
ENDBRANCH  17  21
ENDBRANCH  14  15
ENDBRANCH  10  14
ENDBRANCH   1   8
BRANCH   5  24
HETATM   24  N   UNL     1       6.474  26.362  55.181  1.00  0.00    -0.321 N 
HETATM   25  C   UNL     1       6.387  25.022  55.520  1.00  0.00     0.279 C 
HETATM   26  O   UNL     1       5.859  24.578  56.534  1.00  0.00    -0.265 OA
HETATM   27  H   UNL     1       7.029  26.539  54.352  1.00  0.00     0.169 HD
BRANCH  25  28
HETATM   28  C   UNL     1       7.039  24.159  54.553  1.00  0.00     0.142 A 
HETATM   29  O   UNL     1       7.797  23.102  54.993  1.00  0.00    -0.317 OA
HETATM   30  C   UNL     1       8.288  22.478  53.891  1.00  0.00     0.143 A 
HETATM   31  C   UNL     1       7.850  23.100  52.746  1.00  0.00     0.027 A 
HETATM   32  C   UNL     1       7.047  24.185  53.171  1.00  0.00     0.045 A 
ENDBRANCH  25  28
ENDBRANCH   5  24
TORSDOF 7
ENDMDL
MODEL 7
REMARK VINA RESULT:      -7.7      2.892      4.023
REMARK  7 active torsions:
REMARK  status: ('A' for Active; 'I' for Inactive)
REMARK    1  A    between atoms: C_2  and  C_3 
REMARK    2  A    between atoms: C_3  and  N_4 
REMARK    3  A    between atoms: C_7  and  C_8 
REMARK    4  A    between atoms: C_8  and  N_9 
REMARK       I    between atoms: N_9  and  C_10 
REMARK       I    between atoms: C_10  and  N_11 
REMARK    5  A    between atoms: N_11  and  C_12 
REMARK    6  A    between atoms: C_16  and  N_17 
REMARK       I    between atoms: N_17  and  C_18 
REMARK    7  A    between atoms: C_18  and  C_19 
ROOT
HETATM    1  C   UNL     1       5.834  31.906  58.201  1.00  0.00     0.036 A 
HETATM    2  C   UNL     1       4.870  32.766  58.727  1.00  0.00     0.038 A 
HETATM    3  C   UNL     1       4.931  33.193  60.070  1.00  0.00    -0.033 A 
HETATM    4  C   UNL     1       3.872  34.140  60.568  1.00  0.00     0.050 C 
HETATM    5  C   UNL     1       5.957  32.707  60.907  1.00  0.00     0.041 A 
HETATM    6  C   UNL     1       6.939  31.877  60.356  1.00  0.00     0.032 A 
HETATM    7  C   UNL     1       6.888  31.495  59.013  1.00  0.00     0.032 A 
ENDROOT
BRANCH   1   8
HETATM    8  N   UNL     1       5.814  31.432  56.876  1.00  0.00    -0.309 N 
HETATM    9  C   UNL     1       4.897  30.562  56.338  1.00  0.00     0.320 C 
HETATM   10  N   UNL     1       5.193  30.296  55.015  1.00  0.00    -0.342 N 
HETATM   11  O   UNL     1       3.994  29.979  56.924  1.00  0.00    -0.247 OA
HETATM   12  H   UNL     1       5.523  31.113  54.512  1.00  0.00     0.164 HD
HETATM   13  H   UNL     1       6.670  31.542  56.352  1.00  0.00     0.170 HD
BRANCH  10  14
HETATM   14  C   UNL     1       4.388  29.363  54.253  1.00  0.00     0.130 C 
BRANCH  14  15
HETATM   15  C   UNL     1       4.800  27.898  54.415  1.00  0.00     0.031 C 
HETATM   16  C   UNL     1       6.270  27.650  54.714  1.00  0.00     0.241 C 
HETATM   17  N   UNL     1       6.444  26.153  54.445  1.00  0.00    -0.071 N 
HETATM   18  H   UNL     1       7.318  26.066  53.909  1.00  0.00     0.279 HD
HETATM   19  C   UNL     1       5.289  25.734  53.549  1.00  0.00     0.235 C 
HETATM   20  C   UNL     1       4.582  27.028  53.184  1.00  0.00     0.035 C 
BRANCH  17  21
HETATM   21  C   UNL     1       6.593  25.340  55.705  1.00  0.00     0.234 C 
BRANCH  21  22
HETATM   22  C   UNL     1       7.611  25.955  56.665  1.00  0.00     0.023 C 
HETATM   23  C   UNL     1       8.597  24.946  57.236  1.00  0.00     0.007 C 
ENDBRANCH  21  22
ENDBRANCH  17  21
ENDBRANCH  14  15
ENDBRANCH  10  14
ENDBRANCH   1   8
BRANCH   5  24
HETATM   24  N   UNL     1       5.966  33.074  62.269  1.00  0.00    -0.321 N 
HETATM   25  C   UNL     1       5.448  32.376  63.348  1.00  0.00     0.279 C 
HETATM   26  O   UNL     1       4.873  31.295  63.286  1.00  0.00    -0.265 OA
HETATM   27  H   UNL     1       6.320  33.993  62.508  1.00  0.00     0.169 HD
BRANCH  25  28
HETATM   28  C   UNL     1       5.614  33.087  64.603  1.00  0.00     0.142 A 
HETATM   29  O   UNL     1       4.523  33.302  65.407  1.00  0.00    -0.317 OA
HETATM   30  C   UNL     1       4.959  33.986  66.497  1.00  0.00     0.143 A 
HETATM   31  C   UNL     1       6.314  34.205  66.420  1.00  0.00     0.027 A 
HETATM   32  C   UNL     1       6.738  33.627  65.200  1.00  0.00     0.045 A 
ENDBRANCH  25  28
ENDBRANCH   5  24
TORSDOF 7
ENDMDL
MODEL 8
REMARK VINA RESULT:      -7.4      2.356     10.407
REMARK  7 active torsions:
REMARK  status: ('A' for Active; 'I' for Inactive)
REMARK    1  A    between atoms: C_2  and  C_3 
REMARK    2  A    between atoms: C_3  and  N_4 
REMARK    3  A    between atoms: C_7  and  C_8 
REMARK    4  A    between atoms: C_8  and  N_9 
REMARK       I    between atoms: N_9  and  C_10 
REMARK       I    between atoms: C_10  and  N_11 
REMARK    5  A    between atoms: N_11  and  C_12 
REMARK    6  A    between atoms: C_16  and  N_17 
REMARK       I    between atoms: N_17  and  C_18 
REMARK    7  A    between atoms: C_18  and  C_19 
ROOT
HETATM    1  C   UNL     1       5.970  29.757  56.416  1.00  0.00     0.036 A 
HETATM    2  C   UNL     1       5.279  29.237  55.323  1.00  0.00     0.038 A 
HETATM    3  C   UNL     1       5.566  27.949  54.825  1.00  0.00    -0.033 A 
HETATM    4  C   UNL     1       4.765  27.439  53.656  1.00  0.00     0.050 C 
HETATM    5  C   UNL     1       6.601  27.193  55.413  1.00  0.00     0.041 A 
HETATM    6  C   UNL     1       7.260  27.711  56.533  1.00  0.00     0.032 A 
HETATM    7  C   UNL     1       6.935  28.971  57.040  1.00  0.00     0.032 A 
ENDROOT
BRANCH   1   8
HETATM    8  N   UNL     1       5.740  31.042  56.944  1.00  0.00    -0.309 N 
HETATM    9  C   UNL     1       4.757  31.387  57.839  1.00  0.00     0.320 C 
HETATM   10  N   UNL     1       4.810  32.738  58.125  1.00  0.00    -0.342 N 
HETATM   11  O   UNL     1       3.861  30.673  58.271  1.00  0.00    -0.247 OA
HETATM   12  H   UNL     1       5.758  33.090  58.201  1.00  0.00     0.164 HD
HETATM   13  H   UNL     1       6.164  31.810  56.445  1.00  0.00     0.170 HD
BRANCH  10  14
HETATM   14  C   UNL     1       3.836  33.342  59.012  1.00  0.00     0.130 C 
BRANCH  14  15
HETATM   15  C   UNL     1       4.405  33.795  60.358  1.00  0.00     0.031 C 
HETATM   16  C   UNL     1       5.127  32.728  61.168  1.00  0.00     0.241 C 
HETATM   17  N   UNL     1       5.235  33.349  62.563  1.00  0.00    -0.071 N 
HETATM   18  H   UNL     1       4.979  32.600  63.221  1.00  0.00     0.279 HD
HETATM   19  C   UNL     1       4.176  34.437  62.640  1.00  0.00     0.235 C 
HETATM   20  C   UNL     1       3.373  34.299  61.358  1.00  0.00     0.035 C 
BRANCH  17  21
HETATM   21  C   UNL     1       6.631  33.802  62.901  1.00  0.00     0.234 C 
BRANCH  21  22
HETATM   22  C   UNL     1       7.439  32.703  63.589  1.00  0.00     0.023 C 
HETATM   23  C   UNL     1       8.369  31.949  62.649  1.00  0.00     0.007 C 
ENDBRANCH  21  22
ENDBRANCH  17  21
ENDBRANCH  14  15
ENDBRANCH  10  14
ENDBRANCH   1   8
BRANCH   5  24
HETATM   24  N   UNL     1       6.937  25.940  54.859  1.00  0.00    -0.321 N 
HETATM   25  C   UNL     1       6.737  24.681  55.401  1.00  0.00     0.279 C 
HETATM   26  O   UNL     1       6.224  24.450  56.491  1.00  0.00    -0.265 OA
HETATM   27  H   UNL     1       7.461  25.933  53.991  1.00  0.00     0.169 HD
BRANCH  25  28
HETATM   28  C   UNL     1       7.246  23.621  54.551  1.00  0.00     0.142 A 
HETATM   29  O   UNL     1       7.556  22.402  55.102  1.00  0.00    -0.317 OA
HETATM   30  C   UNL     1       8.010  21.613  54.095  1.00  0.00     0.143 A 
HETATM   31  C   UNL     1       7.986  22.291  52.899  1.00  0.00     0.027 A 
HETATM   32  C   UNL     1       7.496  23.586  53.192  1.00  0.00     0.045 A 
ENDBRANCH  25  28
ENDBRANCH   5  24
TORSDOF 7
ENDMDL
MODEL 9
REMARK VINA RESULT:      -7.1      6.268     10.564
REMARK  7 active torsions:
REMARK  status: ('A' for Active; 'I' for Inactive)
REMARK    1  A    between atoms: C_2  and  C_3 
REMARK    2  A    between atoms: C_3  and  N_4 
REMARK    3  A    between atoms: C_7  and  C_8 
REMARK    4  A    between atoms: C_8  and  N_9 
REMARK       I    between atoms: N_9  and  C_10 
REMARK       I    between atoms: C_10  and  N_11 
REMARK    5  A    between atoms: N_11  and  C_12 
REMARK    6  A    between atoms: C_16  and  N_17 
REMARK       I    between atoms: N_17  and  C_18 
REMARK    7  A    between atoms: C_18  and  C_19 
ROOT
HETATM    1  C   UNL     1       4.882  26.867  52.117  1.00  0.00     0.036 A 
HETATM    2  C   UNL     1       5.772  27.134  53.156  1.00  0.00     0.038 A 
HETATM    3  C   UNL     1       6.411  26.087  53.854  1.00  0.00    -0.033 A 
HETATM    4  C   UNL     1       7.380  26.446  54.949  1.00  0.00     0.050 C 
HETATM    5  C   UNL     1       6.111  24.749  53.526  1.00  0.00     0.041 A 
HETATM    6  C   UNL     1       5.246  24.497  52.456  1.00  0.00     0.032 A 
HETATM    7  C   UNL     1       4.652  25.544  51.747  1.00  0.00     0.032 A 
ENDROOT
BRANCH   1   8
HETATM    8  N   UNL     1       4.201  27.868  51.398  1.00  0.00    -0.309 N 
HETATM    9  C   UNL     1       4.231  28.053  50.038  1.00  0.00     0.320 C 
HETATM   10  N   UNL     1       3.463  29.144  49.676  1.00  0.00    -0.342 N 
HETATM   11  O   UNL     1       4.912  27.447  49.220  1.00  0.00    -0.247 OA
HETATM   12  H   UNL     1       2.606  29.219  50.214  1.00  0.00     0.164 HD
HETATM   13  H   UNL     1       3.867  28.653  51.938  1.00  0.00     0.170 HD
BRANCH  10  14
HETATM   14  C   UNL     1       3.384  29.562  48.291  1.00  0.00     0.130 C 
BRANCH  14  15
HETATM   15  C   UNL     1       4.263  30.766  47.946  1.00  0.00     0.031 C 
HETATM   16  C   UNL     1       3.695  32.130  48.308  1.00  0.00     0.241 C 
HETATM   17  N   UNL     1       4.578  33.105  47.524  1.00  0.00    -0.071 N 
HETATM   18  H   UNL     1       3.933  33.789  47.106  1.00  0.00     0.279 HD
HETATM   19  C   UNL     1       5.224  32.306  46.404  1.00  0.00     0.235 C 
HETATM   20  C   UNL     1       4.565  30.938  46.463  1.00  0.00     0.035 C 
BRANCH  17  21
HETATM   21  C   UNL     1       5.544  33.860  48.400  1.00  0.00     0.234 C 
BRANCH  21  22
HETATM   22  C   UNL     1       6.979  33.364  48.231  1.00  0.00     0.023 C 
HETATM   23  C   UNL     1       7.948  34.445  47.772  1.00  0.00     0.007 C 
ENDBRANCH  21  22
ENDBRANCH  17  21
ENDBRANCH  14  15
ENDBRANCH  10  14
ENDBRANCH   1   8
BRANCH   5  24
HETATM   24  N   UNL     1       6.692  23.709  54.281  1.00  0.00    -0.321 N 
HETATM   25  C   UNL     1       7.702  22.838  53.906  1.00  0.00     0.279 C 
HETATM   26  O   UNL     1       8.265  22.830  52.817  1.00  0.00    -0.265 OA
HETATM   27  H   UNL     1       6.287  23.500  55.187  1.00  0.00     0.169 HD
BRANCH  25  28
HETATM   28  C   UNL     1       8.018  21.872  54.942  1.00  0.00     0.142 A 
HETATM   29  O   UNL     1       8.094  22.284  56.250  1.00  0.00    -0.317 OA
HETATM   30  C   UNL     1       8.407  21.191  56.994  1.00  0.00     0.143 A 
HETATM   31  C   UNL     1       8.518  20.077  56.196  1.00  0.00     0.027 A 
HETATM   32  C   UNL     1       8.270  20.515  54.873  1.00  0.00     0.045 A 
ENDBRANCH  25  28
ENDBRANCH   5  24
TORSDOF 7
ENDMDL
MODEL 10
REMARK VINA RESULT:      -7.1      6.152     10.612
REMARK  7 active torsions:
REMARK  status: ('A' for Active; 'I' for Inactive)
REMARK    1  A    between atoms: C_2  and  C_3 
REMARK    2  A    between atoms: C_3  and  N_4 
REMARK    3  A    between atoms: C_7  and  C_8 
REMARK    4  A    between atoms: C_8  and  N_9 
REMARK       I    between atoms: N_9  and  C_10 
REMARK       I    between atoms: C_10  and  N_11 
REMARK    5  A    between atoms: N_11  and  C_12 
REMARK    6  A    between atoms: C_16  and  N_17 
REMARK       I    between atoms: N_17  and  C_18 
REMARK    7  A    between atoms: C_18  and  C_19 
ROOT
HETATM    1  C   UNL     1       4.837  26.826  52.021  1.00  0.00     0.036 A 
HETATM    2  C   UNL     1       5.617  27.145  53.132  1.00  0.00     0.038 A 
HETATM    3  C   UNL     1       6.259  26.140  53.885  1.00  0.00    -0.033 A 
HETATM    4  C   UNL     1       7.106  26.557  55.058  1.00  0.00     0.050 C 
HETATM    5  C   UNL     1       6.073  24.786  53.536  1.00  0.00     0.041 A 
HETATM    6  C   UNL     1       5.320  24.482  52.397  1.00  0.00     0.032 A 
HETATM    7  C   UNL     1       4.724  25.491  51.637  1.00  0.00     0.032 A 
ENDROOT
BRANCH   1   8
HETATM    8  N   UNL     1       4.158  27.783  51.244  1.00  0.00    -0.309 N 
HETATM    9  C   UNL     1       4.319  27.997  49.897  1.00  0.00     0.320 C 
HETATM   10  N   UNL     1       3.508  29.030  49.467  1.00  0.00    -0.342 N 
HETATM   11  O   UNL     1       5.131  27.464  49.152  1.00  0.00    -0.247 OA
HETATM   12  H   UNL     1       2.595  29.026  49.908  1.00  0.00     0.164 HD
HETATM   13  H   UNL     1       3.706  28.528  51.753  1.00  0.00     0.170 HD
BRANCH  10  14
HETATM   14  C   UNL     1       3.544  29.469  48.086  1.00  0.00     0.130 C 
BRANCH  14  15
HETATM   15  C   UNL     1       2.401  28.930  47.224  1.00  0.00     0.031 C 
HETATM   16  C   UNL     1       0.999  29.345  47.644  1.00  0.00     0.241 C 
HETATM   17  N   UNL     1       0.093  28.383  46.871  1.00  0.00    -0.071 N 
HETATM   18  H   UNL     1      -0.617  28.067  47.546  1.00  0.00     0.279 HD
HETATM   19  C   UNL     1       0.952  27.190  46.485  1.00  0.00     0.235 C 
HETATM   20  C   UNL     1       2.278  27.412  47.192  1.00  0.00     0.035 C 
BRANCH  17  21
HETATM   21  C   UNL     1      -0.625  29.043  45.722  1.00  0.00     0.234 C 
BRANCH  21  22
HETATM   22  C   UNL     1      -1.994  29.581  46.136  1.00  0.00     0.023 C 
HETATM   23  C   UNL     1      -2.691  30.380  45.044  1.00  0.00     0.007 C 
ENDBRANCH  21  22
ENDBRANCH  17  21
ENDBRANCH  14  15
ENDBRANCH  10  14
ENDBRANCH   1   8
BRANCH   5  24
HETATM   24  N   UNL     1       6.651  23.783  54.341  1.00  0.00    -0.321 N 
HETATM   25  C   UNL     1       7.755  22.992  54.065  1.00  0.00     0.279 C 
HETATM   26  O   UNL     1       8.420  23.035  53.036  1.00  0.00    -0.265 OA
HETATM   27  H   UNL     1       6.177  23.537  55.202  1.00  0.00     0.169 HD
BRANCH  25  28
HETATM   28  C   UNL     1       8.037  22.040  55.124  1.00  0.00     0.142 A 
HETATM   29  O   UNL     1       8.199  22.490  56.411  1.00  0.00    -0.317 OA
HETATM   30  C   UNL     1       8.457  21.402  57.183  1.00  0.00     0.143 A 
HETATM   31  C   UNL     1       8.450  20.256  56.424  1.00  0.00     0.027 A 
HETATM   32  C   UNL     1       8.181  20.666  55.096  1.00  0.00     0.045 A 
ENDBRANCH  25  28
ENDBRANCH   5  24
TORSDOF 7
ENDMDL
