MODEL 1
REMARK VINA RESULT:     -11.3      0.000      0.000
REMARK  6 active torsions:
REMARK  status: ('A' for Active; 'I' for Inactive)
REMARK    1  A    between atoms: O_2  and  C_3 
REMARK    2  A    between atoms: C_6  and  C_7 
REMARK    3  A    between atoms: C_7  and  N_8 
REMARK       I    between atoms: N_8  and  C_9 
REMARK    4  A    between atoms: C_9  and  C_10 
REMARK    5  A    between atoms: C_10  and  S_11 
REMARK    6  A    between atoms: S_11  and  C_12 
ROOT
HETATM    1  C   UNL     1       7.782  27.212  57.338  1.00  0.00     0.198 A 
HETATM    2  N   UNL     1       7.688  26.694  56.055  1.00  0.00    -0.257 N 
HETATM    3  C   UNL     1       7.844  25.325  56.274  1.00  0.00     0.173 A 
HETATM    4  C   UNL     1       7.803  24.373  55.138  1.00  0.00     0.053 A 
HETATM    5  C   UNL     1       7.620  24.943  53.896  1.00  0.00     0.090 A 
HETATM    6  S   UNL     1       7.606  23.766  52.668  1.00  0.00    -0.075 SA
HETATM    7  C   UNL     1       7.843  22.508  53.800  1.00  0.00    -0.008 A 
HETATM    8  C   UNL     1       7.920  22.961  55.107  1.00  0.00    -0.028 A 
HETATM    9  C   UNL     1       8.129  22.033  56.265  1.00  0.00     0.041 C 
HETATM   10  C   UNL     1       7.849  20.571  55.878  1.00  0.00     0.005 C 
HETATM   11  C   UNL     1       8.478  20.209  54.525  1.00  0.00     0.005 C 
HETATM   12  C   UNL     1       7.915  21.071  53.385  1.00  0.00     0.047 C 
HETATM   13  N   UNL     1       7.474  26.281  53.697  1.00  0.00    -0.336 N 
HETATM   14  C   UNL     1       7.491  27.228  54.737  1.00  0.00     0.106 A 
HETATM   15  C   UNL     1       7.330  28.528  54.436  1.00  0.00     0.064 C 
HETATM   16  N   UNL     1       8.023  25.056  57.544  1.00  0.00    -0.128 NA
HETATM   17  N   UNL     1       7.987  26.248  58.214  1.00  0.00    -0.122 NA
HETATM   18  H   UNL     1       7.337  26.635  52.755  1.00  0.00     0.168 HD
ENDROOT
BRANCH   1  19
HETATM   19  S   UNL     1       7.656  28.884  57.780  1.00  0.00    -0.080 SA
BRANCH  19  20
HETATM   20  C   UNL     1       9.336  29.453  57.378  1.00  0.00     0.185 C 
BRANCH  20  21
HETATM   21  C   UNL     1       9.689  30.688  58.186  1.00  0.00     0.227 C 
HETATM   22  N   UNL     1       8.834  30.966  59.233  1.00  0.00    -0.356 N 
HETATM   23  H   UNL     1       8.278  30.202  59.597  1.00  0.00     0.162 HD
HETATM   24  O   UNL     1      10.626  31.423  57.883  1.00  0.00    -0.273 OA
BRANCH  22  25
HETATM   25  C   UNL     1       9.097  32.085  60.108  1.00  0.00     0.161 C 
BRANCH  25  26
HETATM   26  C   UNL     1       8.053  32.228  61.184  1.00  0.00    -0.040 A 
HETATM   27  C   UNL     1       6.693  32.146  60.861  1.00  0.00     0.011 A 
HETATM   28  C   UNL     1       5.720  32.220  61.862  1.00  0.00     0.037 A 
HETATM   29  C   UNL     1       6.084  32.365  63.202  1.00  0.00     0.068 A 
HETATM   30  C   UNL     1       7.436  32.450  63.532  1.00  0.00     0.037 A 
HETATM   31  C   UNL     1       8.412  32.373  62.532  1.00  0.00     0.011 A 
BRANCH  29  32
HETATM   32  O   UNL     1       5.036  32.409  64.079  1.00  0.00    -0.356 OA
HETATM   33  C   UNL     1       5.002  33.510  64.979  1.00  0.00     0.210 C 
ENDBRANCH  29  32
ENDBRANCH  25  26
ENDBRANCH  22  25
ENDBRANCH  20  21
ENDBRANCH  19  20
ENDBRANCH   1  19
TORSDOF 6
ENDMDL
MODEL 2
REMARK VINA RESULT:     -10.3      1.795      2.124
REMARK  6 active torsions:
REMARK  status: ('A' for Active; 'I' for Inactive)
REMARK    1  A    between atoms: O_2  and  C_3 
REMARK    2  A    between atoms: C_6  and  C_7 
REMARK    3  A    between atoms: C_7  and  N_8 
REMARK       I    between atoms: N_8  and  C_9 
REMARK    4  A    between atoms: C_9  and  C_10 
REMARK    5  A    between atoms: C_10  and  S_11 
REMARK    6  A    between atoms: S_11  and  C_12 
ROOT
HETATM    1  C   UNL     1       7.585  27.187  57.099  1.00  0.00     0.198 A 
HETATM    2  N   UNL     1       7.577  26.586  55.849  1.00  0.00    -0.257 N 
HETATM    3  C   UNL     1       7.757  25.238  56.165  1.00  0.00     0.173 A 
HETATM    4  C   UNL     1       7.804  24.216  55.092  1.00  0.00     0.053 A 
HETATM    5  C   UNL     1       7.675  24.699  53.808  1.00  0.00     0.090 A 
HETATM    6  S   UNL     1       7.761  23.447  52.661  1.00  0.00    -0.075 SA
HETATM    7  C   UNL     1       7.968  22.272  53.883  1.00  0.00    -0.008 A 
HETATM    8  C   UNL     1       7.960  22.808  55.160  1.00  0.00    -0.028 A 
HETATM    9  C   UNL     1       8.130  21.963  56.385  1.00  0.00     0.041 C 
HETATM   10  C   UNL     1       7.911  20.472  56.080  1.00  0.00     0.005 C 
HETATM   11  C   UNL     1       8.624  20.043  54.789  1.00  0.00     0.005 C 
HETATM   12  C   UNL     1       8.102  20.814  53.566  1.00  0.00     0.047 C 
HETATM   13  N   UNL     1       7.504  26.017  53.515  1.00  0.00    -0.336 N 
HETATM   14  C   UNL     1       7.439  27.029  54.491  1.00  0.00     0.106 A 
HETATM   15  C   UNL     1       7.259  28.301  54.097  1.00  0.00     0.064 C 
HETATM   16  N   UNL     1       7.873  25.056  57.458  1.00  0.00    -0.128 NA
HETATM   17  N   UNL     1       7.767  26.287  58.046  1.00  0.00    -0.122 NA
HETATM   18  H   UNL     1       7.410  26.307  52.546  1.00  0.00     0.168 HD
ENDROOT
BRANCH   1  19
HETATM   19  S   UNL     1       7.390  28.878  57.424  1.00  0.00    -0.080 SA
BRANCH  19  20
HETATM   20  C   UNL     1       5.577  29.015  57.351  1.00  0.00     0.185 C 
BRANCH  20  21
HETATM   21  C   UNL     1       5.118  30.341  57.930  1.00  0.00     0.227 C 
HETATM   22  N   UNL     1       6.114  31.103  58.506  1.00  0.00    -0.356 N 
HETATM   23  H   UNL     1       7.067  30.921  58.218  1.00  0.00     0.162 HD
HETATM   24  O   UNL     1       3.935  30.674  57.945  1.00  0.00    -0.273 OA
BRANCH  22  25
HETATM   25  C   UNL     1       5.809  32.410  59.042  1.00  0.00     0.161 C 
BRANCH  25  26
HETATM   26  C   UNL     1       6.283  32.571  60.463  1.00  0.00    -0.040 A 
HETATM   27  C   UNL     1       7.361  31.812  60.937  1.00  0.00     0.011 A 
HETATM   28  C   UNL     1       7.842  31.998  62.235  1.00  0.00     0.037 A 
HETATM   29  C   UNL     1       7.268  32.949  63.081  1.00  0.00     0.068 A 
HETATM   30  C   UNL     1       6.194  33.707  62.618  1.00  0.00     0.037 A 
HETATM   31  C   UNL     1       5.712  33.526  61.317  1.00  0.00     0.011 A 
BRANCH  29  32
HETATM   32  O   UNL     1       7.844  33.038  64.317  1.00  0.00    -0.356 OA
HETATM   33  C   UNL     1       7.068  33.648  65.341  1.00  0.00     0.210 C 
ENDBRANCH  29  32
ENDBRANCH  25  26
ENDBRANCH  22  25
ENDBRANCH  20  21
ENDBRANCH  19  20
ENDBRANCH   1  19
TORSDOF 6
ENDMDL
MODEL 3
REMARK VINA RESULT:     -10.1      5.857      9.842
REMARK  6 active torsions:
REMARK  status: ('A' for Active; 'I' for Inactive)
REMARK    1  A    between atoms: O_2  and  C_3 
REMARK    2  A    between atoms: C_6  and  C_7 
REMARK    3  A    between atoms: C_7  and  N_8 
REMARK       I    between atoms: N_8  and  C_9 
REMARK    4  A    between atoms: C_9  and  C_10 
REMARK    5  A    between atoms: C_10  and  S_11 
REMARK    6  A    between atoms: S_11  and  C_12 
ROOT
HETATM    1  C   UNL     1       5.035  26.328  52.999  1.00  0.00     0.198 A 
HETATM    2  N   UNL     1       5.731  25.892  54.116  1.00  0.00    -0.257 N 
HETATM    3  C   UNL     1       6.228  24.657  53.695  1.00  0.00     0.173 A 
HETATM    4  C   UNL     1       7.058  23.832  54.606  1.00  0.00     0.053 A 
HETATM    5  C   UNL     1       7.272  24.367  55.858  1.00  0.00     0.090 A 
HETATM    6  S   UNL     1       8.218  23.333  56.822  1.00  0.00    -0.075 SA
HETATM    7  C   UNL     1       8.335  22.183  55.564  1.00  0.00    -0.008 A 
HETATM    8  C   UNL     1       7.678  22.573  54.408  1.00  0.00    -0.028 A 
HETATM    9  C   UNL     1       7.645  21.718  53.179  1.00  0.00     0.041 C 
HETATM   10  C   UNL     1       8.715  20.614  53.226  1.00  0.00     0.005 C 
HETATM   11  C   UNL     1       8.762  19.925  54.597  1.00  0.00     0.005 C 
HETATM   12  C   UNL     1       9.113  20.913  55.721  1.00  0.00     0.047 C 
HETATM   13  N   UNL     1       6.778  25.570  56.256  1.00  0.00    -0.336 N 
HETATM   14  C   UNL     1       5.996  26.401  55.432  1.00  0.00     0.106 A 
HETATM   15  C   UNL     1       5.563  27.577  55.918  1.00  0.00     0.064 C 
HETATM   16  N   UNL     1       5.858  24.381  52.469  1.00  0.00    -0.128 NA
HETATM   17  N   UNL     1       5.102  25.434  52.032  1.00  0.00    -0.122 NA
HETATM   18  H   UNL     1       6.978  25.909  57.193  1.00  0.00     0.168 HD
ENDROOT
BRANCH   1  19
HETATM   19  S   UNL     1       4.177  27.826  52.846  1.00  0.00    -0.080 SA
BRANCH  19  20
HETATM   20  C   UNL     1       5.543  28.937  52.391  1.00  0.00     0.185 C 
BRANCH  20  21
HETATM   21  C   UNL     1       5.580  29.151  50.889  1.00  0.00     0.227 C 
HETATM   22  N   UNL     1       5.308  28.030  50.133  1.00  0.00    -0.356 N 
HETATM   23  H   UNL     1       4.790  27.281  50.576  1.00  0.00     0.162 HD
HETATM   24  O   UNL     1       5.899  30.228  50.389  1.00  0.00    -0.273 OA
BRANCH  22  25
HETATM   25  C   UNL     1       5.258  28.121  48.691  1.00  0.00     0.161 C 
BRANCH  25  26
HETATM   26  C   UNL     1       3.860  27.955  48.155  1.00  0.00    -0.040 A 
HETATM   27  C   UNL     1       3.255  26.692  48.144  1.00  0.00     0.011 A 
HETATM   28  C   UNL     1       1.939  26.540  47.703  1.00  0.00     0.037 A 
HETATM   29  C   UNL     1       1.197  27.643  47.275  1.00  0.00     0.068 A 
HETATM   30  C   UNL     1       1.792  28.904  47.280  1.00  0.00     0.037 A 
HETATM   31  C   UNL     1       3.110  29.059  47.725  1.00  0.00     0.011 A 
BRANCH  29  32
HETATM   32  O   UNL     1      -0.081  27.357  46.883  1.00  0.00    -0.356 OA
HETATM   33  C   UNL     1      -0.346  27.400  45.487  1.00  0.00     0.210 C 
ENDBRANCH  29  32
ENDBRANCH  25  26
ENDBRANCH  22  25
ENDBRANCH  20  21
ENDBRANCH  19  20
ENDBRANCH   1  19
TORSDOF 6
ENDMDL
MODEL 4
REMARK VINA RESULT:      -9.9      3.277     10.819
REMARK  6 active torsions:
REMARK  status: ('A' for Active; 'I' for Inactive)
REMARK    1  A    between atoms: O_2  and  C_3 
REMARK    2  A    between atoms: C_6  and  C_7 
REMARK    3  A    between atoms: C_7  and  N_8 
REMARK       I    between atoms: N_8  and  C_9 
REMARK    4  A    between atoms: C_9  and  C_10 
REMARK    5  A    between atoms: C_10  and  S_11 
REMARK    6  A    between atoms: S_11  and  C_12 
ROOT
HETATM    1  C   UNL     1       7.689  30.078  57.946  1.00  0.00     0.198 A 
HETATM    2  N   UNL     1       6.821  31.071  58.374  1.00  0.00    -0.257 N 
HETATM    3  C   UNL     1       7.227  31.272  59.695  1.00  0.00     0.173 A 
HETATM    4  C   UNL     1       6.548  32.282  60.542  1.00  0.00     0.053 A 
HETATM    5  C   UNL     1       5.514  32.964  59.937  1.00  0.00     0.090 A 
HETATM    6  S   UNL     1       4.799  34.081  61.002  1.00  0.00    -0.075 SA
HETATM    7  C   UNL     1       5.872  33.647  62.260  1.00  0.00    -0.008 A 
HETATM    8  C   UNL     1       6.783  32.673  61.885  1.00  0.00    -0.028 A 
HETATM    9  C   UNL     1       7.816  32.137  62.828  1.00  0.00     0.041 C 
HETATM   10  C   UNL     1       7.989  33.048  64.056  1.00  0.00     0.005 C 
HETATM   11  C   UNL     1       6.637  33.497  64.628  1.00  0.00     0.005 C 
HETATM   12  C   UNL     1       5.825  34.306  63.604  1.00  0.00     0.047 C 
HETATM   13  N   UNL     1       5.128  32.754  58.650  1.00  0.00    -0.336 N 
HETATM   14  C   UNL     1       5.742  31.820  57.796  1.00  0.00     0.106 A 
HETATM   15  C   UNL     1       5.290  31.695  56.536  1.00  0.00     0.064 C 
HETATM   16  N   UNL     1       8.216  30.478  60.022  1.00  0.00    -0.128 NA
HETATM   17  N   UNL     1       8.505  29.723  58.919  1.00  0.00    -0.122 NA
HETATM   18  H   UNL     1       4.360  33.296  58.263  1.00  0.00     0.168 HD
ENDROOT
BRANCH   1  19
HETATM   19  S   UNL     1       7.733  29.367  56.365  1.00  0.00    -0.080 SA
BRANCH  19  20
HETATM   20  C   UNL     1       6.316  28.232  56.481  1.00  0.00     0.185 C 
BRANCH  20  21
HETATM   21  C   UNL     1       6.092  27.521  55.159  1.00  0.00     0.227 C 
HETATM   22  N   UNL     1       6.907  26.431  54.937  1.00  0.00    -0.356 N 
HETATM   23  H   UNL     1       7.321  25.984  55.746  1.00  0.00     0.162 HD
HETATM   24  O   UNL     1       5.292  27.934  54.321  1.00  0.00    -0.273 OA
BRANCH  22  25
HETATM   25  C   UNL     1       6.750  25.639  53.738  1.00  0.00     0.161 C 
BRANCH  25  26
HETATM   26  C   UNL     1       7.213  24.218  53.925  1.00  0.00    -0.040 A 
HETATM   27  C   UNL     1       7.201  23.635  55.199  1.00  0.00     0.011 A 
HETATM   28  C   UNL     1       7.575  22.300  55.372  1.00  0.00     0.037 A 
HETATM   29  C   UNL     1       7.954  21.518  54.279  1.00  0.00     0.068 A 
HETATM   30  C   UNL     1       7.970  22.090  53.008  1.00  0.00     0.037 A 
HETATM   31  C   UNL     1       7.594  23.426  52.832  1.00  0.00     0.011 A 
BRANCH  29  32
HETATM   32  O   UNL     1       8.280  20.226  54.586  1.00  0.00    -0.356 OA
HETATM   33  C   UNL     1       8.628  19.959  55.939  1.00  0.00     0.210 C 
ENDBRANCH  29  32
ENDBRANCH  25  26
ENDBRANCH  22  25
ENDBRANCH  20  21
ENDBRANCH  19  20
ENDBRANCH   1  19
TORSDOF 6
ENDMDL
MODEL 5
REMARK VINA RESULT:      -9.7      3.211     11.447
REMARK  6 active torsions:
REMARK  status: ('A' for Active; 'I' for Inactive)
REMARK    1  A    between atoms: O_2  and  C_3 
REMARK    2  A    between atoms: C_6  and  C_7 
REMARK    3  A    between atoms: C_7  and  N_8 
REMARK       I    between atoms: N_8  and  C_9 
REMARK    4  A    between atoms: C_9  and  C_10 
REMARK    5  A    between atoms: C_10  and  S_11 
REMARK    6  A    between atoms: S_11  and  C_12 
ROOT
HETATM    1  C   UNL     1       7.780  31.248  59.161  1.00  0.00     0.198 A 
HETATM    2  N   UNL     1       7.740  31.606  60.500  1.00  0.00    -0.257 N 
HETATM    3  C   UNL     1       6.717  32.555  60.524  1.00  0.00     0.173 A 
HETATM    4  C   UNL     1       6.330  33.210  61.797  1.00  0.00     0.053 A 
HETATM    5  C   UNL     1       7.052  32.822  62.905  1.00  0.00     0.090 A 
HETATM    6  S   UNL     1       6.538  33.645  64.301  1.00  0.00    -0.075 SA
HETATM    7  C   UNL     1       5.357  34.510  63.420  1.00  0.00    -0.008 A 
HETATM    8  C   UNL     1       5.331  34.177  62.075  1.00  0.00    -0.028 A 
HETATM    9  C   UNL     1       4.378  34.813  61.111  1.00  0.00     0.041 C 
HETATM   10  C   UNL     1       3.229  35.532  61.840  1.00  0.00     0.005 C 
HETATM   11  C   UNL     1       3.739  36.365  63.025  1.00  0.00     0.005 C 
HETATM   12  C   UNL     1       4.437  35.490  64.079  1.00  0.00     0.047 C 
HETATM   13  N   UNL     1       8.050  31.898  62.865  1.00  0.00    -0.336 N 
HETATM   14  C   UNL     1       8.451  31.236  61.690  1.00  0.00     0.106 A 
HETATM   15  C   UNL     1       9.443  30.333  61.760  1.00  0.00     0.064 C 
HETATM   16  N   UNL     1       6.212  32.752  59.331  1.00  0.00    -0.128 NA
HETATM   17  N   UNL     1       6.886  31.928  58.471  1.00  0.00    -0.122 NA
HETATM   18  H   UNL     1       8.541  31.654  63.721  1.00  0.00     0.168 HD
ENDROOT
BRANCH   1  19
HETATM   19  S   UNL     1       8.840  30.078  58.445  1.00  0.00    -0.080 SA
BRANCH  19  20
HETATM   20  C   UNL     1       7.633  28.814  57.939  1.00  0.00     0.185 C 
BRANCH  20  21
HETATM   21  C   UNL     1       7.772  28.504  56.460  1.00  0.00     0.227 C 
HETATM   22  N   UNL     1       7.315  27.260  56.078  1.00  0.00    -0.356 N 
HETATM   23  H   UNL     1       6.642  26.804  56.682  1.00  0.00     0.162 HD
HETATM   24  O   UNL     1       8.317  29.280  55.678  1.00  0.00    -0.273 OA
BRANCH  22  25
HETATM   25  C   UNL     1       7.342  26.873  54.686  1.00  0.00     0.161 C 
BRANCH  25  26
HETATM   26  C   UNL     1       7.485  25.383  54.509  1.00  0.00    -0.040 A 
HETATM   27  C   UNL     1       7.421  24.533  55.620  1.00  0.00     0.011 A 
HETATM   28  C   UNL     1       7.495  23.147  55.457  1.00  0.00     0.037 A 
HETATM   29  C   UNL     1       7.620  22.583  54.186  1.00  0.00     0.068 A 
HETATM   30  C   UNL     1       7.686  23.422  53.075  1.00  0.00     0.037 A 
HETATM   31  C   UNL     1       7.609  24.810  53.235  1.00  0.00     0.011 A 
BRANCH  29  32
HETATM   32  O   UNL     1       7.665  21.217  54.168  1.00  0.00    -0.356 OA
HETATM   33  C   UNL     1       8.288  20.613  53.040  1.00  0.00     0.210 C 
ENDBRANCH  29  32
ENDBRANCH  25  26
ENDBRANCH  22  25
ENDBRANCH  20  21
ENDBRANCH  19  20
ENDBRANCH   1  19
TORSDOF 6
ENDMDL
MODEL 6
REMARK VINA RESULT:      -9.4      4.690      8.860
REMARK  6 active torsions:
REMARK  status: ('A' for Active; 'I' for Inactive)
REMARK    1  A    between atoms: O_2  and  C_3 
REMARK    2  A    between atoms: C_6  and  C_7 
REMARK    3  A    between atoms: C_7  and  N_8 
REMARK       I    between atoms: N_8  and  C_9 
REMARK    4  A    between atoms: C_9  and  C_10 
REMARK    5  A    between atoms: C_10  and  S_11 
REMARK    6  A    between atoms: S_11  and  C_12 
ROOT
HETATM    1  C   UNL     1       6.072  27.922  54.785  1.00  0.00     0.198 A 
HETATM    2  N   UNL     1       6.702  27.027  55.636  1.00  0.00    -0.257 N 
HETATM    3  C   UNL     1       6.787  25.877  54.850  1.00  0.00     0.173 A 
HETATM    4  C   UNL     1       7.415  24.646  55.387  1.00  0.00     0.053 A 
HETATM    5  C   UNL     1       7.874  24.733  56.684  1.00  0.00     0.090 A 
HETATM    6  S   UNL     1       8.558  23.264  57.201  1.00  0.00    -0.075 SA
HETATM    7  C   UNL     1       8.237  22.525  55.695  1.00  0.00    -0.008 A 
HETATM    8  C   UNL     1       7.629  23.378  54.789  1.00  0.00    -0.028 A 
HETATM    9  C   UNL     1       7.253  22.942  53.406  1.00  0.00     0.041 C 
HETATM   10  C   UNL     1       7.961  21.635  53.011  1.00  0.00     0.005 C 
HETATM   11  C   UNL     1       7.918  20.599  54.144  1.00  0.00     0.005 C 
HETATM   12  C   UNL     1       8.627  21.107  55.409  1.00  0.00     0.047 C 
HETATM   13  N   UNL     1       7.781  25.860  57.440  1.00  0.00    -0.336 N 
HETATM   14  C   UNL     1       7.207  27.060  56.979  1.00  0.00     0.106 A 
HETATM   15  C   UNL     1       7.171  28.121  57.803  1.00  0.00     0.064 C 
HETATM   16  N   UNL     1       6.256  26.060  53.667  1.00  0.00    -0.128 NA
HETATM   17  N   UNL     1       5.802  27.350  53.627  1.00  0.00    -0.122 NA
HETATM   18  H   UNL     1       8.144  25.859  58.388  1.00  0.00     0.168 HD
ENDROOT
BRANCH   1  19
HETATM   19  S   UNL     1       5.672  29.570  55.144  1.00  0.00    -0.080 SA
BRANCH  19  20
HETATM   20  C   UNL     1       3.976  29.641  54.490  1.00  0.00     0.185 C 
BRANCH  20  21
HETATM   21  C   UNL     1       3.964  30.254  53.101  1.00  0.00     0.227 C 
HETATM   22  N   UNL     1       4.984  29.838  52.271  1.00  0.00    -0.356 N 
HETATM   23  H   UNL     1       5.432  28.956  52.487  1.00  0.00     0.162 HD
HETATM   24  O   UNL     1       3.146  31.110  52.771  1.00  0.00    -0.273 OA
BRANCH  22  25
HETATM   25  C   UNL     1       5.046  30.309  50.906  1.00  0.00     0.161 C 
BRANCH  25  26
HETATM   26  C   UNL     1       4.910  29.190  49.907  1.00  0.00    -0.040 A 
HETATM   27  C   UNL     1       4.378  27.955  50.301  1.00  0.00     0.011 A 
HETATM   28  C   UNL     1       4.196  26.932  49.367  1.00  0.00     0.037 A 
HETATM   29  C   UNL     1       4.527  27.122  48.025  1.00  0.00     0.068 A 
HETATM   30  C   UNL     1       5.059  28.347  47.624  1.00  0.00     0.037 A 
HETATM   31  C   UNL     1       5.240  29.375  48.557  1.00  0.00     0.011 A 
BRANCH  29  32
HETATM   32  O   UNL     1       4.285  26.047  47.217  1.00  0.00    -0.356 OA
HETATM   33  C   UNL     1       2.973  25.499  47.259  1.00  0.00     0.210 C 
ENDBRANCH  29  32
ENDBRANCH  25  26
ENDBRANCH  22  25
ENDBRANCH  20  21
ENDBRANCH  19  20
ENDBRANCH   1  19
TORSDOF 6
ENDMDL
MODEL 7
REMARK VINA RESULT:      -9.1      6.643     10.206
REMARK  6 active torsions:
REMARK  status: ('A' for Active; 'I' for Inactive)
REMARK    1  A    between atoms: O_2  and  C_3 
REMARK    2  A    between atoms: C_6  and  C_7 
REMARK    3  A    between atoms: C_7  and  N_8 
REMARK       I    between atoms: N_8  and  C_9 
REMARK    4  A    between atoms: C_9  and  C_10 
REMARK    5  A    between atoms: C_10  and  S_11 
REMARK    6  A    between atoms: S_11  and  C_12 
ROOT
HETATM    1  C   UNL     1       4.465  27.442  51.008  1.00  0.00     0.198 A 
HETATM    2  N   UNL     1       4.678  27.213  52.359  1.00  0.00    -0.257 N 
HETATM    3  C   UNL     1       5.458  26.056  52.347  1.00  0.00     0.173 A 
HETATM    4  C   UNL     1       5.927  25.453  53.618  1.00  0.00     0.053 A 
HETATM    5  C   UNL     1       5.525  26.103  54.764  1.00  0.00     0.090 A 
HETATM    6  S   UNL     1       6.103  25.319  56.159  1.00  0.00    -0.075 SA
HETATM    7  C   UNL     1       6.883  24.121  55.224  1.00  0.00    -0.008 A 
HETATM    8  C   UNL     1       6.729  24.309  53.860  1.00  0.00    -0.028 A 
HETATM    9  C   UNL     1       7.326  23.378  52.851  1.00  0.00     0.041 C 
HETATM   10  C   UNL     1       8.408  22.482  53.476  1.00  0.00     0.005 C 
HETATM   11  C   UNL     1       7.962  21.909  54.829  1.00  0.00     0.005 C 
HETATM   12  C   UNL     1       7.679  23.019  55.853  1.00  0.00     0.047 C 
HETATM   13  N   UNL     1       4.760  27.228  54.761  1.00  0.00    -0.336 N 
HETATM   14  C   UNL     1       4.298  27.851  53.587  1.00  0.00     0.106 A 
HETATM   15  C   UNL     1       3.554  28.965  53.692  1.00  0.00     0.064 C 
HETATM   16  N   UNL     1       5.677  25.634  51.126  1.00  0.00    -0.128 NA
HETATM   17  N   UNL     1       5.047  26.507  50.282  1.00  0.00    -0.122 NA
HETATM   18  H   UNL     1       4.502  27.662  55.644  1.00  0.00     0.168 HD
ENDROOT
BRANCH   1  19
HETATM   19  S   UNL     1       3.567  28.755  50.320  1.00  0.00    -0.080 SA
BRANCH  19  20
HETATM   20  C   UNL     1       4.668  29.217  48.948  1.00  0.00     0.185 C 
BRANCH  20  21
HETATM   21  C   UNL     1       5.500  30.433  49.318  1.00  0.00     0.227 C 
HETATM   22  N   UNL     1       5.028  31.633  48.829  1.00  0.00    -0.356 N 
HETATM   23  H   UNL     1       4.048  31.684  48.580  1.00  0.00     0.162 HD
HETATM   24  O   UNL     1       6.552  30.339  49.946  1.00  0.00    -0.273 OA
BRANCH  22  25
HETATM   25  C   UNL     1       5.703  32.867  49.161  1.00  0.00     0.161 C 
BRANCH  25  26
HETATM   26  C   UNL     1       6.374  33.493  47.966  1.00  0.00    -0.040 A 
HETATM   27  C   UNL     1       7.451  34.371  48.142  1.00  0.00     0.011 A 
HETATM   28  C   UNL     1       8.114  34.909  47.036  1.00  0.00     0.037 A 
HETATM   29  C   UNL     1       7.726  34.574  45.737  1.00  0.00     0.068 A 
HETATM   30  C   UNL     1       6.654  33.702  45.553  1.00  0.00     0.037 A 
HETATM   31  C   UNL     1       5.990  33.159  46.659  1.00  0.00     0.011 A 
BRANCH  29  32
HETATM   32  O   UNL     1       8.468  35.159  44.749  1.00  0.00    -0.356 OA
HETATM   33  C   UNL     1       8.397  36.576  44.651  1.00  0.00     0.210 C 
ENDBRANCH  29  32
ENDBRANCH  25  26
ENDBRANCH  22  25
ENDBRANCH  20  21
ENDBRANCH  19  20
ENDBRANCH   1  19
TORSDOF 6
ENDMDL
MODEL 8
REMARK VINA RESULT:      -8.9      7.722     11.478
REMARK  6 active torsions:
REMARK  status: ('A' for Active; 'I' for Inactive)
REMARK    1  A    between atoms: O_2  and  C_3 
REMARK    2  A    between atoms: C_6  and  C_7 
REMARK    3  A    between atoms: C_7  and  N_8 
REMARK       I    between atoms: N_8  and  C_9 
REMARK    4  A    between atoms: C_9  and  C_10 
REMARK    5  A    between atoms: C_10  and  S_11 
REMARK    6  A    between atoms: S_11  and  C_12 
ROOT
HETATM    1  C   UNL     1       5.001  27.062  51.396  1.00  0.00     0.198 A 
HETATM    2  N   UNL     1       5.151  26.802  52.750  1.00  0.00    -0.257 N 
HETATM    3  C   UNL     1       5.927  25.642  52.746  1.00  0.00     0.173 A 
HETATM    4  C   UNL     1       6.336  25.009  54.024  1.00  0.00     0.053 A 
HETATM    5  C   UNL     1       5.884  25.635  55.165  1.00  0.00     0.090 A 
HETATM    6  S   UNL     1       6.395  24.818  56.566  1.00  0.00    -0.075 SA
HETATM    7  C   UNL     1       7.213  23.637  55.641  1.00  0.00    -0.008 A 
HETATM    8  C   UNL     1       7.121  23.856  54.276  1.00  0.00    -0.028 A 
HETATM    9  C   UNL     1       7.760  22.944  53.274  1.00  0.00     0.041 C 
HETATM   10  C   UNL     1       8.810  22.030  53.928  1.00  0.00     0.005 C 
HETATM   11  C   UNL     1       8.301  21.429  55.246  1.00  0.00     0.005 C 
HETATM   12  C   UNL     1       7.975  22.517  56.281  1.00  0.00     0.047 C 
HETATM   13  N   UNL     1       5.124  26.764  55.153  1.00  0.00    -0.336 N 
HETATM   14  C   UNL     1       4.718  27.415  53.973  1.00  0.00     0.106 A 
HETATM   15  C   UNL     1       3.974  28.530  54.069  1.00  0.00     0.064 C 
HETATM   16  N   UNL     1       6.199  25.246  51.528  1.00  0.00    -0.128 NA
HETATM   17  N   UNL     1       5.611  26.141  50.676  1.00  0.00    -0.122 NA
HETATM   18  H   UNL     1       4.828  27.178  56.032  1.00  0.00     0.168 HD
ENDROOT
BRANCH   1  19
HETATM   19  S   UNL     1       4.139  28.394  50.697  1.00  0.00    -0.080 SA
BRANCH  19  20
HETATM   20  C   UNL     1       4.809  28.362  49.006  1.00  0.00     0.185 C 
BRANCH  20  21
HETATM   21  C   UNL     1       3.909  27.552  48.091  1.00  0.00     0.227 C 
HETATM   22  N   UNL     1       2.558  27.672  48.344  1.00  0.00    -0.356 N 
HETATM   23  H   UNL     1       2.248  28.497  48.842  1.00  0.00     0.162 HD
HETATM   24  O   UNL     1       4.359  26.792  47.235  1.00  0.00    -0.273 OA
BRANCH  22  25
HETATM   25  C   UNL     1       1.599  26.993  47.503  1.00  0.00     0.161 C 
BRANCH  25  26
HETATM   26  C   UNL     1       0.810  27.949  46.646  1.00  0.00    -0.040 A 
HETATM   27  C   UNL     1      -0.124  27.461  45.723  1.00  0.00     0.011 A 
HETATM   28  C   UNL     1      -0.901  28.343  44.968  1.00  0.00     0.037 A 
HETATM   29  C   UNL     1      -0.771  29.724  45.125  1.00  0.00     0.068 A 
HETATM   30  C   UNL     1       0.157  30.218  46.041  1.00  0.00     0.037 A 
HETATM   31  C   UNL     1       0.934  29.337  46.801  1.00  0.00     0.011 A 
BRANCH  29  32
HETATM   32  O   UNL     1      -1.600  30.471  44.336  1.00  0.00    -0.356 OA
HETATM   33  C   UNL     1      -0.991  31.196  43.275  1.00  0.00     0.210 C 
ENDBRANCH  29  32
ENDBRANCH  25  26
ENDBRANCH  22  25
ENDBRANCH  20  21
ENDBRANCH  19  20
ENDBRANCH   1  19
TORSDOF 6
ENDMDL
MODEL 9
REMARK VINA RESULT:      -8.8      5.930     10.039
REMARK  6 active torsions:
REMARK  status: ('A' for Active; 'I' for Inactive)
REMARK    1  A    between atoms: O_2  and  C_3 
REMARK    2  A    between atoms: C_6  and  C_7 
REMARK    3  A    between atoms: C_7  and  N_8 
REMARK       I    between atoms: N_8  and  C_9 
REMARK    4  A    between atoms: C_9  and  C_10 
REMARK    5  A    between atoms: C_10  and  S_11 
REMARK    6  A    between atoms: S_11  and  C_12 
ROOT
HETATM    1  C   UNL     1       4.918  28.673  52.174  1.00  0.00     0.198 A 
HETATM    2  N   UNL     1       4.588  27.767  51.177  1.00  0.00    -0.257 N 
HETATM    3  C   UNL     1       3.620  28.463  50.451  1.00  0.00     0.173 A 
HETATM    4  C   UNL     1       2.987  27.845  49.261  1.00  0.00     0.053 A 
HETATM    5  C   UNL     1       3.412  26.569  48.961  1.00  0.00     0.090 A 
HETATM    6  S   UNL     1       2.610  25.952  47.593  1.00  0.00    -0.075 SA
HETATM    7  C   UNL     1       1.704  27.389  47.413  1.00  0.00    -0.008 A 
HETATM    8  C   UNL     1       2.007  28.346  48.367  1.00  0.00    -0.028 A 
HETATM    9  C   UNL     1       1.332  29.683  48.404  1.00  0.00     0.041 C 
HETATM   10  C   UNL     1       0.608  29.989  47.082  1.00  0.00     0.005 C 
HETATM   11  C   UNL     1      -0.189  28.779  46.575  1.00  0.00     0.005 C 
HETATM   12  C   UNL     1       0.721  27.572  46.298  1.00  0.00     0.047 C 
HETATM   13  N   UNL     1       4.353  25.901  49.681  1.00  0.00    -0.336 N 
HETATM   14  C   UNL     1       4.997  26.442  50.809  1.00  0.00     0.106 A 
HETATM   15  C   UNL     1       5.920  25.703  51.447  1.00  0.00     0.064 C 
HETATM   16  N   UNL     1       3.389  29.646  50.964  1.00  0.00    -0.128 NA
HETATM   17  N   UNL     1       4.205  29.776  52.054  1.00  0.00    -0.122 NA
HETATM   18  H   UNL     1       4.626  24.963  49.402  1.00  0.00     0.168 HD
ENDROOT
BRANCH   1  19
HETATM   19  S   UNL     1       6.092  28.435  53.428  1.00  0.00    -0.080 SA
BRANCH  19  20
HETATM   20  C   UNL     1       4.995  28.101  54.840  1.00  0.00     0.185 C 
BRANCH  20  21
HETATM   21  C   UNL     1       5.699  27.235  55.869  1.00  0.00     0.227 C 
HETATM   22  N   UNL     1       6.769  26.510  55.388  1.00  0.00    -0.356 N 
HETATM   23  H   UNL     1       7.213  26.839  54.540  1.00  0.00     0.162 HD
HETATM   24  O   UNL     1       5.296  27.137  57.026  1.00  0.00    -0.273 OA
BRANCH  22  25
HETATM   25  C   UNL     1       7.553  25.692  56.286  1.00  0.00     0.161 C 
BRANCH  25  26
HETATM   26  C   UNL     1       7.895  24.352  55.688  1.00  0.00    -0.040 A 
HETATM   27  C   UNL     1       7.937  24.192  54.297  1.00  0.00     0.011 A 
HETATM   28  C   UNL     1       8.310  22.968  53.735  1.00  0.00     0.037 A 
HETATM   29  C   UNL     1       8.659  21.887  54.547  1.00  0.00     0.068 A 
HETATM   30  C   UNL     1       8.619  22.037  55.932  1.00  0.00     0.037 A 
HETATM   31  C   UNL     1       8.249  23.263  56.497  1.00  0.00     0.011 A 
BRANCH  29  32
HETATM   32  O   UNL     1       9.018  20.755  53.869  1.00  0.00    -0.356 OA
HETATM   33  C   UNL     1       8.212  20.395  52.754  1.00  0.00     0.210 C 
ENDBRANCH  29  32
ENDBRANCH  25  26
ENDBRANCH  22  25
ENDBRANCH  20  21
ENDBRANCH  19  20
ENDBRANCH   1  19
TORSDOF 6
ENDMDL
MODEL 10
REMARK VINA RESULT:      -8.8      2.789      3.417
REMARK  6 active torsions:
REMARK  status: ('A' for Active; 'I' for Inactive)
REMARK    1  A    between atoms: O_2  and  C_3 
REMARK    2  A    between atoms: C_6  and  C_7 
REMARK    3  A    between atoms: C_7  and  N_8 
REMARK       I    between atoms: N_8  and  C_9 
REMARK    4  A    between atoms: C_9  and  C_10 
REMARK    5  A    between atoms: C_10  and  S_11 
REMARK    6  A    between atoms: S_11  and  C_12 
ROOT
HETATM    1  C   UNL     1       4.566  28.981  55.936  1.00  0.00     0.198 A 
HETATM    2  N   UNL     1       4.677  28.064  54.901  1.00  0.00    -0.257 N 
HETATM    3  C   UNL     1       5.553  27.117  55.435  1.00  0.00     0.173 A 
HETATM    4  C   UNL     1       5.949  25.929  54.641  1.00  0.00     0.053 A 
HETATM    5  C   UNL     1       5.408  25.857  53.375  1.00  0.00     0.090 A 
HETATM    6  S   UNL     1       5.941  24.468  52.550  1.00  0.00    -0.075 SA
HETATM    7  C   UNL     1       6.887  23.975  53.885  1.00  0.00    -0.008 A 
HETATM    8  C   UNL     1       6.798  24.841  54.963  1.00  0.00    -0.028 A 
HETATM    9  C   UNL     1       7.547  24.608  56.239  1.00  0.00     0.041 C 
HETATM   10  C   UNL     1       8.063  23.163  56.339  1.00  0.00     0.005 C 
HETATM   11  C   UNL     1       8.697  22.692  55.022  1.00  0.00     0.005 C 
HETATM   12  C   UNL     1       7.686  22.708  53.865  1.00  0.00     0.047 C 
HETATM   13  N   UNL     1       4.558  26.790  52.867  1.00  0.00    -0.336 N 
HETATM   14  C   UNL     1       4.138  27.929  53.578  1.00  0.00     0.106 A 
HETATM   15  C   UNL     1       3.289  28.787  52.988  1.00  0.00     0.064 C 
HETATM   16  N   UNL     1       5.933  27.439  56.647  1.00  0.00    -0.128 NA
HETATM   17  N   UNL     1       5.312  28.617  56.961  1.00  0.00    -0.122 NA
HETATM   18  H   UNL     1       4.191  26.673  51.927  1.00  0.00     0.168 HD
ENDROOT
BRANCH   1  19
HETATM   19  S   UNL     1       3.599  30.419  55.931  1.00  0.00    -0.080 SA
BRANCH  19  20
HETATM   20  C   UNL     1       3.207  30.553  57.702  1.00  0.00     0.185 C 
BRANCH  20  21
HETATM   21  C   UNL     1       3.873  31.776  58.306  1.00  0.00     0.227 C 
HETATM   22  N   UNL     1       5.088  31.538  58.914  1.00  0.00    -0.356 N 
HETATM   23  H   UNL     1       5.596  30.707  58.636  1.00  0.00     0.162 HD
HETATM   24  O   UNL     1       3.333  32.880  58.311  1.00  0.00    -0.273 OA
BRANCH  22  25
HETATM   25  C   UNL     1       5.845  32.633  59.476  1.00  0.00     0.161 C 
BRANCH  25  26
HETATM   26  C   UNL     1       5.575  32.821  60.946  1.00  0.00    -0.040 A 
HETATM   27  C   UNL     1       4.745  33.862  61.383  1.00  0.00     0.011 A 
HETATM   28  C   UNL     1       4.444  34.007  62.739  1.00  0.00     0.037 A 
HETATM   29  C   UNL     1       4.952  33.113  63.683  1.00  0.00     0.068 A 
HETATM   30  C   UNL     1       5.780  32.075  63.258  1.00  0.00     0.037 A 
HETATM   31  C   UNL     1       6.081  31.926  61.900  1.00  0.00     0.011 A 
BRANCH  29  32
HETATM   32  O   UNL     1       4.567  33.361  64.972  1.00  0.00    -0.356 OA
HETATM   33  C   UNL     1       3.646  34.426  65.170  1.00  0.00     0.210 C 
ENDBRANCH  29  32
ENDBRANCH  25  26
ENDBRANCH  22  25
ENDBRANCH  20  21
ENDBRANCH  19  20
ENDBRANCH   1  19
TORSDOF 6
ENDMDL
