MODEL 1
REMARK VINA RESULT:     -11.3      0.000      0.000
REMARK  3 active torsions:
REMARK  status: ('A' for Active; 'I' for Inactive)
REMARK    1  A    between atoms: N_12  and  C_13 
REMARK    2  A    between atoms: C_13  and  C_14 
REMARK       I    between atoms: C_14  and  N_15 
REMARK    3  A    between atoms: N_15  and  C_16 
ROOT
HETATM    1  C   UNL     1       8.215  20.119  55.542  1.00  0.00     0.048 C 
HETATM    2  C   UNL     1       8.055  21.475  54.920  1.00  0.00    -0.061 A 
HETATM    3  C   UNL     1       7.922  22.618  55.727  1.00  0.00     0.021 A 
HETATM    4  C   UNL     1       7.769  23.885  55.126  1.00  0.00     0.005 A 
HETATM    5  C   UNL     1       7.742  23.969  53.730  1.00  0.00     0.044 A 
HETATM    6  N   UNL     1       7.596  25.300  53.396  1.00  0.00    -0.350 N 
HETATM    7  H   UNL     1       7.557  25.671  52.456  1.00  0.00     0.166 HD
HETATM    8  C   UNL     1       7.540  26.051  54.535  1.00  0.00     0.116 A 
HETATM    9  C   UNL     1       7.634  25.209  55.614  1.00  0.00     0.028 A 
HETATM   10  C   UNL     1       7.427  27.476  54.654  1.00  0.00     0.291 A 
HETATM   11  O   UNL     1       7.353  28.220  53.683  1.00  0.00    -0.264 OA
HETATM   12  N   UNL     1       7.403  27.912  55.994  1.00  0.00    -0.224 N 
HETATM   13  N   UNL     1       7.502  27.056  57.112  1.00  0.00    -0.180 NA
HETATM   14  C   UNL     1       7.608  25.770  56.934  1.00  0.00     0.153 A 
HETATM   15  C   UNL     1       7.856  22.844  52.906  1.00  0.00     0.031 A 
HETATM   16  C   UNL     1       8.011  21.599  53.527  1.00  0.00     0.009 A 
ENDROOT
BRANCH  12  17
HETATM   17  C   UNL     1       7.470  29.337  56.273  1.00  0.00     0.258 C 
BRANCH  17  18
HETATM   18  C   UNL     1       7.369  29.995  57.667  1.00  0.00     0.244 C 
HETATM   19  N   UNL     1       8.482  30.459  58.378  1.00  0.00    -0.321 N 
HETATM   20  C   UNL     1       9.849  30.345  57.885  1.00  0.00     0.159 C 
HETATM   21  O   UNL     1       6.216  30.055  58.126  1.00  0.00    -0.271 OA
BRANCH  19  22
HETATM   22  C   UNL     1       8.324  31.026  59.698  1.00  0.00     0.037 A 
HETATM   23  C   UNL     1       7.339  31.985  59.975  1.00  0.00     0.037 A 
HETATM   24  C   UNL     1       7.181  32.550  61.257  1.00  0.00    -0.054 A 
HETATM   25  C   UNL     1       6.099  33.571  61.474  1.00  0.00     0.049 C 
HETATM   26  C   UNL     1       8.050  32.163  62.292  1.00  0.00    -0.056 A 
HETATM   27  C   UNL     1       7.913  32.702  63.689  1.00  0.00     0.049 C 
HETATM   28  C   UNL     1       9.029  31.198  62.026  1.00  0.00     0.009 A 
HETATM   29  C   UNL     1       9.167  30.644  60.748  1.00  0.00     0.030 A 
ENDBRANCH  19  22
ENDBRANCH  17  18
ENDBRANCH  12  17
TORSDOF 3
ENDMDL
MODEL 2
REMARK VINA RESULT:     -11.0      1.166      1.880
REMARK  3 active torsions:
REMARK  status: ('A' for Active; 'I' for Inactive)
REMARK    1  A    between atoms: N_12  and  C_13 
REMARK    2  A    between atoms: C_13  and  C_14 
REMARK       I    between atoms: C_14  and  N_15 
REMARK    3  A    between atoms: N_15  and  C_16 
ROOT
HETATM    1  C   UNL     1       7.905  20.459  53.326  1.00  0.00     0.048 C 
HETATM    2  C   UNL     1       7.941  21.489  54.416  1.00  0.00    -0.061 A 
HETATM    3  C   UNL     1       7.821  22.855  54.110  1.00  0.00     0.021 A 
HETATM    4  C   UNL     1       7.860  23.811  55.146  1.00  0.00     0.005 A 
HETATM    5  C   UNL     1       8.032  23.371  56.463  1.00  0.00     0.044 A 
HETATM    6  N   UNL     1       8.025  24.484  57.278  1.00  0.00    -0.350 N 
HETATM    7  H   UNL     1       8.117  24.477  58.286  1.00  0.00     0.166 HD
HETATM    8  C   UNL     1       7.847  25.604  56.518  1.00  0.00     0.116 A 
HETATM    9  C   UNL     1       7.751  25.224  55.203  1.00  0.00     0.028 A 
HETATM   10  C   UNL     1       7.743  26.966  56.955  1.00  0.00     0.291 A 
HETATM   11  O   UNL     1       7.821  27.293  58.134  1.00  0.00    -0.264 OA
HETATM   12  N   UNL     1       7.555  27.868  55.889  1.00  0.00    -0.224 N 
HETATM   13  N   UNL     1       7.452  27.490  54.534  1.00  0.00    -0.180 NA
HETATM   14  C   UNL     1       7.549  26.233  54.204  1.00  0.00     0.153 A 
HETATM   15  C   UNL     1       8.171  22.018  56.791  1.00  0.00     0.031 A 
HETATM   16  C   UNL     1       8.124  21.089  55.744  1.00  0.00     0.009 A 
ENDROOT
BRANCH  12  17
HETATM   17  C   UNL     1       7.257  29.259  56.188  1.00  0.00     0.258 C 
BRANCH  17  18
HETATM   18  C   UNL     1       7.199  29.895  57.595  1.00  0.00     0.244 C 
HETATM   19  N   UNL     1       8.321  30.421  58.244  1.00  0.00    -0.321 N 
HETATM   20  C   UNL     1       9.661  30.402  57.669  1.00  0.00     0.159 C 
HETATM   21  O   UNL     1       6.075  29.875  58.123  1.00  0.00    -0.271 OA
BRANCH  19  22
HETATM   22  C   UNL     1       8.209  30.962  59.580  1.00  0.00     0.037 A 
HETATM   23  C   UNL     1       7.273  31.958  59.895  1.00  0.00     0.037 A 
HETATM   24  C   UNL     1       7.160  32.497  61.193  1.00  0.00    -0.054 A 
HETATM   25  C   UNL     1       6.129  33.561  61.451  1.00  0.00     0.049 C 
HETATM   26  C   UNL     1       8.024  32.046  62.204  1.00  0.00    -0.056 A 
HETATM   27  C   UNL     1       7.933  32.557  63.616  1.00  0.00     0.049 C 
HETATM   28  C   UNL     1       8.955  31.044  61.900  1.00  0.00     0.009 A 
HETATM   29  C   UNL     1       9.049  30.517  60.607  1.00  0.00     0.030 A 
ENDBRANCH  19  22
ENDBRANCH  17  18
ENDBRANCH  12  17
TORSDOF 3
ENDMDL
MODEL 3
REMARK VINA RESULT:     -10.6      1.445      9.415
REMARK  3 active torsions:
REMARK  status: ('A' for Active; 'I' for Inactive)
REMARK    1  A    between atoms: N_12  and  C_13 
REMARK    2  A    between atoms: C_13  and  C_14 
REMARK       I    between atoms: C_14  and  N_15 
REMARK    3  A    between atoms: N_15  and  C_16 
ROOT
HETATM    1  C   UNL     1       6.833  33.507  62.376  1.00  0.00     0.048 C 
HETATM    2  C   UNL     1       7.528  32.699  61.319  1.00  0.00    -0.061 A 
HETATM    3  C   UNL     1       6.786  32.035  60.327  1.00  0.00     0.021 A 
HETATM    4  C   UNL     1       7.454  31.278  59.342  1.00  0.00     0.005 A 
HETATM    5  C   UNL     1       8.850  31.196  59.387  1.00  0.00     0.044 A 
HETATM    6  N   UNL     1       9.255  30.416  58.323  1.00  0.00    -0.350 N 
HETATM    7  H   UNL     1      10.213  30.191  58.090  1.00  0.00     0.166 HD
HETATM    8  C   UNL     1       8.162  30.014  57.611  1.00  0.00     0.116 A 
HETATM    9  C   UNL     1       7.040  30.520  58.217  1.00  0.00     0.028 A 
HETATM   10  C   UNL     1       8.123  29.223  56.416  1.00  0.00     0.291 A 
HETATM   11  O   UNL     1       9.133  28.784  55.876  1.00  0.00    -0.264 OA
HETATM   12  N   UNL     1       6.813  29.005  55.947  1.00  0.00    -0.224 N 
HETATM   13  N   UNL     1       5.651  29.522  56.560  1.00  0.00    -0.180 NA
HETATM   14  C   UNL     1       5.757  30.239  57.642  1.00  0.00     0.153 A 
HETATM   15  C   UNL     1       9.608  31.834  60.374  1.00  0.00     0.031 A 
HETATM   16  C   UNL     1       8.922  32.584  61.337  1.00  0.00     0.009 A 
ENDROOT
BRANCH  12  17
HETATM   17  C   UNL     1       6.623  28.373  54.652  1.00  0.00     0.258 C 
BRANCH  17  18
HETATM   18  C   UNL     1       7.051  26.939  54.269  1.00  0.00     0.244 C 
HETATM   19  N   UNL     1       6.491  25.792  54.844  1.00  0.00    -0.321 N 
HETATM   20  C   UNL     1       5.465  25.837  55.879  1.00  0.00     0.159 C 
HETATM   21  O   UNL     1       7.962  26.881  53.425  1.00  0.00    -0.271 OA
BRANCH  19  22
HETATM   22  C   UNL     1       6.968  24.479  54.475  1.00  0.00     0.037 A 
HETATM   23  C   UNL     1       7.283  23.511  55.440  1.00  0.00     0.037 A 
HETATM   24  C   UNL     1       7.756  22.230  55.090  1.00  0.00    -0.054 A 
HETATM   25  C   UNL     1       8.069  21.246  56.184  1.00  0.00     0.049 C 
HETATM   26  C   UNL     1       7.943  21.910  53.735  1.00  0.00    -0.056 A 
HETATM   27  C   UNL     1       8.412  20.551  53.295  1.00  0.00     0.049 C 
HETATM   28  C   UNL     1       7.621  22.868  52.764  1.00  0.00     0.009 A 
HETATM   29  C   UNL     1       7.148  24.133  53.130  1.00  0.00     0.030 A 
ENDBRANCH  19  22
ENDBRANCH  17  18
ENDBRANCH  12  17
TORSDOF 3
ENDMDL
MODEL 4
REMARK VINA RESULT:     -10.2      1.829      9.981
REMARK  3 active torsions:
REMARK  status: ('A' for Active; 'I' for Inactive)
REMARK    1  A    between atoms: N_12  and  C_13 
REMARK    2  A    between atoms: C_13  and  C_14 
REMARK       I    between atoms: C_14  and  N_15 
REMARK    3  A    between atoms: N_15  and  C_16 
ROOT
HETATM    1  C   UNL     1       5.071  35.450  64.904  1.00  0.00     0.048 C 
HETATM    2  C   UNL     1       5.935  34.457  64.184  1.00  0.00    -0.061 A 
HETATM    3  C   UNL     1       5.561  33.971  62.919  1.00  0.00     0.021 A 
HETATM    4  C   UNL     1       6.383  33.036  62.257  1.00  0.00     0.005 A 
HETATM    5  C   UNL     1       7.554  32.603  62.888  1.00  0.00     0.044 A 
HETATM    6  N   UNL     1       8.178  31.711  62.039  1.00  0.00    -0.350 N 
HETATM    7  H   UNL     1       9.055  31.240  62.221  1.00  0.00     0.166 HD
HETATM    8  C   UNL     1       7.441  31.577  60.898  1.00  0.00     0.116 A 
HETATM    9  C   UNL     1       6.328  32.371  61.006  1.00  0.00     0.028 A 
HETATM   10  C   UNL     1       7.734  30.783  59.741  1.00  0.00     0.291 A 
HETATM   11  O   UNL     1       8.737  30.083  59.652  1.00  0.00    -0.264 OA
HETATM   12  N   UNL     1       6.748  30.890  58.741  1.00  0.00    -0.224 N 
HETATM   13  N   UNL     1       5.600  31.706  58.838  1.00  0.00    -0.180 NA
HETATM   14  C   UNL     1       5.396  32.408  59.915  1.00  0.00     0.153 A 
HETATM   15  C   UNL     1       7.939  33.059  64.152  1.00  0.00     0.031 A 
HETATM   16  C   UNL     1       7.109  33.991  64.787  1.00  0.00     0.009 A 
ENDROOT
BRANCH  12  17
HETATM   17  C   UNL     1       6.991  30.284  57.442  1.00  0.00     0.258 C 
BRANCH  17  18
HETATM   18  C   UNL     1       6.926  28.775  57.116  1.00  0.00     0.244 C 
HETATM   19  N   UNL     1       8.044  28.023  56.741  1.00  0.00    -0.321 N 
HETATM   20  C   UNL     1       9.379  28.592  56.596  1.00  0.00     0.159 C 
HETATM   21  O   UNL     1       5.787  28.283  57.184  1.00  0.00    -0.271 OA
BRANCH  19  22
HETATM   22  C   UNL     1       7.908  26.624  56.405  1.00  0.00     0.037 A 
HETATM   23  C   UNL     1       7.428  26.209  55.155  1.00  0.00     0.037 A 
HETATM   24  C   UNL     1       7.284  24.847  54.820  1.00  0.00    -0.054 A 
HETATM   25  C   UNL     1       6.765  24.484  53.456  1.00  0.00     0.049 C 
HETATM   26  C   UNL     1       7.607  23.866  55.773  1.00  0.00    -0.056 A 
HETATM   27  C   UNL     1       7.507  22.397  55.467  1.00  0.00     0.049 C 
HETATM   28  C   UNL     1       8.096  24.271  57.021  1.00  0.00     0.009 A 
HETATM   29  C   UNL     1       8.238  25.628  57.333  1.00  0.00     0.030 A 
ENDBRANCH  19  22
ENDBRANCH  17  18
ENDBRANCH  12  17
TORSDOF 3
ENDMDL
MODEL 5
REMARK VINA RESULT:     -10.2      1.585      2.239
REMARK  3 active torsions:
REMARK  status: ('A' for Active; 'I' for Inactive)
REMARK    1  A    between atoms: N_12  and  C_13 
REMARK    2  A    between atoms: C_13  and  C_14 
REMARK       I    between atoms: C_14  and  N_15 
REMARK    3  A    between atoms: N_15  and  C_16 
ROOT
HETATM    1  C   UNL     1       8.774  22.247  55.433  1.00  0.00     0.048 C 
HETATM    2  C   UNL     1       8.011  23.512  55.169  1.00  0.00    -0.061 A 
HETATM    3  C   UNL     1       8.115  24.604  56.048  1.00  0.00     0.021 A 
HETATM    4  C   UNL     1       7.388  25.784  55.788  1.00  0.00     0.005 A 
HETATM    5  C   UNL     1       6.564  25.832  54.658  1.00  0.00     0.044 A 
HETATM    6  N   UNL     1       5.979  27.082  54.623  1.00  0.00    -0.350 N 
HETATM    7  H   UNL     1       5.342  27.414  53.911  1.00  0.00     0.166 HD
HETATM    8  C   UNL     1       6.414  27.818  55.687  1.00  0.00     0.116 A 
HETATM    9  C   UNL     1       7.274  27.045  56.426  1.00  0.00     0.028 A 
HETATM   10  C   UNL     1       6.091  29.175  56.020  1.00  0.00     0.291 A 
HETATM   11  O   UNL     1       5.328  29.860  55.347  1.00  0.00    -0.264 OA
HETATM   12  N   UNL     1       6.730  29.617  57.194  1.00  0.00    -0.224 N 
HETATM   13  N   UNL     1       7.619  28.833  57.961  1.00  0.00    -0.180 NA
HETATM   14  C   UNL     1       7.875  27.608  57.600  1.00  0.00     0.153 A 
HETATM   15  C   UNL     1       6.431  24.753  53.778  1.00  0.00     0.031 A 
HETATM   16  C   UNL     1       7.167  23.595  54.056  1.00  0.00     0.009 A 
ENDROOT
BRANCH  12  17
HETATM   17  C   UNL     1       6.640  31.021  57.561  1.00  0.00     0.258 C 
BRANCH  17  18
HETATM   18  C   UNL     1       6.554  31.582  58.997  1.00  0.00     0.244 C 
HETATM   19  N   UNL     1       7.679  31.931  59.753  1.00  0.00    -0.321 N 
HETATM   20  C   UNL     1       9.045  31.780  59.268  1.00  0.00     0.159 C 
HETATM   21  O   UNL     1       5.398  31.670  59.447  1.00  0.00    -0.271 OA
BRANCH  19  22
HETATM   22  C   UNL     1       7.532  32.408  61.109  1.00  0.00     0.037 A 
HETATM   23  C   UNL     1       6.701  33.494  61.422  1.00  0.00     0.037 A 
HETATM   24  C   UNL     1       6.556  33.972  62.740  1.00  0.00    -0.054 A 
HETATM   25  C   UNL     1       5.643  35.139  62.995  1.00  0.00     0.049 C 
HETATM   26  C   UNL     1       7.282  33.363  63.778  1.00  0.00    -0.056 A 
HETATM   27  C   UNL     1       7.147  33.804  65.209  1.00  0.00     0.049 C 
HETATM   28  C   UNL     1       8.107  32.272  63.475  1.00  0.00     0.009 A 
HETATM   29  C   UNL     1       8.234  31.808  62.161  1.00  0.00     0.030 A 
ENDBRANCH  19  22
ENDBRANCH  17  18
ENDBRANCH  12  17
TORSDOF 3
ENDMDL
MODEL 6
REMARK VINA RESULT:      -9.9      2.044     10.313
REMARK  3 active torsions:
REMARK  status: ('A' for Active; 'I' for Inactive)
REMARK    1  A    between atoms: N_12  and  C_13 
REMARK    2  A    between atoms: C_13  and  C_14 
REMARK       I    between atoms: C_14  and  N_15 
REMARK    3  A    between atoms: N_15  and  C_16 
ROOT
HETATM    1  C   UNL     1       4.516  36.081  64.161  1.00  0.00     0.048 C 
HETATM    2  C   UNL     1       5.496  34.995  63.826  1.00  0.00    -0.061 A 
HETATM    3  C   UNL     1       5.479  34.384  62.560  1.00  0.00     0.021 A 
HETATM    4  C   UNL     1       6.405  33.363  62.263  1.00  0.00     0.005 A 
HETATM    5  C   UNL     1       7.316  32.972  63.249  1.00  0.00     0.044 A 
HETATM    6  N   UNL     1       8.109  31.978  62.713  1.00  0.00    -0.350 N 
HETATM    7  H   UNL     1       8.868  31.508  63.189  1.00  0.00     0.166 HD
HETATM    8  C   UNL     1       7.730  31.739  61.423  1.00  0.00     0.116 A 
HETATM    9  C   UNL     1       6.679  32.568  61.121  1.00  0.00     0.028 A 
HETATM   10  C   UNL     1       8.302  30.817  60.486  1.00  0.00     0.291 A 
HETATM   11  O   UNL     1       9.247  30.088  60.764  1.00  0.00    -0.264 OA
HETATM   12  N   UNL     1       7.656  30.840  59.234  1.00  0.00    -0.224 N 
HETATM   13  N   UNL     1       6.577  31.690  58.909  1.00  0.00    -0.180 NA
HETATM   14  C   UNL     1       6.108  32.510  59.806  1.00  0.00     0.153 A 
HETATM   15  C   UNL     1       7.342  33.553  64.521  1.00  0.00     0.031 A 
HETATM   16  C   UNL     1       6.416  34.568  64.790  1.00  0.00     0.009 A 
ENDROOT
BRANCH  12  17
HETATM   17  C   UNL     1       8.233  30.091  58.129  1.00  0.00     0.258 C 
BRANCH  17  18
HETATM   18  C   UNL     1       7.500  29.048  57.257  1.00  0.00     0.244 C 
HETATM   19  N   UNL     1       7.967  28.630  56.006  1.00  0.00    -0.321 N 
HETATM   20  C   UNL     1       9.180  29.154  55.390  1.00  0.00     0.159 C 
HETATM   21  O   UNL     1       6.436  28.627  57.743  1.00  0.00    -0.271 OA
BRANCH  19  22
HETATM   22  C   UNL     1       7.210  27.683  55.220  1.00  0.00     0.037 A 
HETATM   23  C   UNL     1       7.405  26.299  55.344  1.00  0.00     0.037 A 
HETATM   24  C   UNL     1       6.677  25.368  54.577  1.00  0.00    -0.054 A 
HETATM   25  C   UNL     1       6.942  23.900  54.771  1.00  0.00     0.049 C 
HETATM   26  C   UNL     1       5.740  25.830  53.637  1.00  0.00    -0.056 A 
HETATM   27  C   UNL     1       4.909  24.888  52.812  1.00  0.00     0.049 C 
HETATM   28  C   UNL     1       5.532  27.210  53.514  1.00  0.00     0.009 A 
HETATM   29  C   UNL     1       6.260  28.120  54.289  1.00  0.00     0.030 A 
ENDBRANCH  19  22
ENDBRANCH  17  18
ENDBRANCH  12  17
TORSDOF 3
ENDMDL
MODEL 7
REMARK VINA RESULT:      -9.7      1.533      2.544
REMARK  3 active torsions:
REMARK  status: ('A' for Active; 'I' for Inactive)
REMARK    1  A    between atoms: N_12  and  C_13 
REMARK    2  A    between atoms: C_13  and  C_14 
REMARK       I    between atoms: C_14  and  N_15 
REMARK    3  A    between atoms: N_15  and  C_16 
ROOT
HETATM    1  C   UNL     1       7.984  20.682  54.056  1.00  0.00     0.048 C 
HETATM    2  C   UNL     1       7.869  22.175  53.955  1.00  0.00    -0.061 A 
HETATM    3  C   UNL     1       7.919  22.973  55.110  1.00  0.00     0.021 A 
HETATM    4  C   UNL     1       7.806  24.375  54.998  1.00  0.00     0.005 A 
HETATM    5  C   UNL     1       7.632  24.937  53.728  1.00  0.00     0.044 A 
HETATM    6  N   UNL     1       7.560  26.306  53.886  1.00  0.00    -0.350 N 
HETATM    7  H   UNL     1       7.448  26.980  53.140  1.00  0.00     0.166 HD
HETATM    8  C   UNL     1       7.691  26.619  55.209  1.00  0.00     0.116 A 
HETATM    9  C   UNL     1       7.834  25.453  55.918  1.00  0.00     0.028 A 
HETATM   10  C   UNL     1       7.709  27.918  55.816  1.00  0.00     0.291 A 
HETATM   11  O   UNL     1       7.590  28.954  55.171  1.00  0.00    -0.264 OA
HETATM   12  N   UNL     1       7.868  27.865  57.215  1.00  0.00    -0.224 N 
HETATM   13  N   UNL     1       8.019  26.673  57.955  1.00  0.00    -0.180 NA
HETATM   14  C   UNL     1       7.999  25.525  57.341  1.00  0.00     0.153 A 
HETATM   15  C   UNL     1       7.562  24.162  52.566  1.00  0.00     0.031 A 
HETATM   16  C   UNL     1       7.682  22.774  52.704  1.00  0.00     0.009 A 
ENDROOT
BRANCH  12  17
HETATM   17  C   UNL     1       8.082  29.103  57.947  1.00  0.00     0.258 C 
BRANCH  17  18
HETATM   18  C   UNL     1       7.004  30.156  58.287  1.00  0.00     0.244 C 
HETATM   19  N   UNL     1       7.275  31.326  59.006  1.00  0.00    -0.321 N 
HETATM   20  C   UNL     1       8.596  31.656  59.526  1.00  0.00     0.159 C 
HETATM   21  O   UNL     1       5.861  29.867  57.895  1.00  0.00    -0.271 OA
BRANCH  19  22
HETATM   22  C   UNL     1       6.213  32.250  59.329  1.00  0.00     0.037 A 
HETATM   23  C   UNL     1       5.858  32.530  60.657  1.00  0.00     0.037 A 
HETATM   24  C   UNL     1       4.818  33.424  60.984  1.00  0.00    -0.054 A 
HETATM   25  C   UNL     1       4.501  33.673  62.432  1.00  0.00     0.049 C 
HETATM   26  C   UNL     1       4.092  34.042  59.952  1.00  0.00    -0.056 A 
HETATM   27  C   UNL     1       2.994  35.030  60.233  1.00  0.00     0.049 C 
HETATM   28  C   UNL     1       4.446  33.776  58.623  1.00  0.00     0.009 A 
HETATM   29  C   UNL     1       5.485  32.889  58.318  1.00  0.00     0.030 A 
ENDBRANCH  19  22
ENDBRANCH  17  18
ENDBRANCH  12  17
TORSDOF 3
ENDMDL
MODEL 8
REMARK VINA RESULT:      -9.7      5.670      9.163
REMARK  3 active torsions:
REMARK  status: ('A' for Active; 'I' for Inactive)
REMARK    1  A    between atoms: N_12  and  C_13 
REMARK    2  A    between atoms: C_13  and  C_14 
REMARK       I    between atoms: C_14  and  N_15 
REMARK    3  A    between atoms: N_15  and  C_16 
ROOT
HETATM    1  C   UNL     1       8.650  20.278  53.009  1.00  0.00     0.048 C 
HETATM    2  C   UNL     1       8.085  21.503  53.666  1.00  0.00    -0.061 A 
HETATM    3  C   UNL     1       7.706  22.615  52.895  1.00  0.00     0.021 A 
HETATM    4  C   UNL     1       7.179  23.760  53.530  1.00  0.00     0.005 A 
HETATM    5  C   UNL     1       7.060  23.762  54.923  1.00  0.00     0.044 A 
HETATM    6  N   UNL     1       6.516  24.976  55.292  1.00  0.00    -0.350 N 
HETATM    7  H   UNL     1       6.301  25.262  56.238  1.00  0.00     0.166 HD
HETATM    8  C   UNL     1       6.284  25.728  54.177  1.00  0.00     0.116 A 
HETATM    9  C   UNL     1       6.690  25.012  53.079  1.00  0.00     0.028 A 
HETATM   10  C   UNL     1       5.699  27.035  54.093  1.00  0.00     0.291 A 
HETATM   11  O   UNL     1       5.332  27.662  55.080  1.00  0.00    -0.264 OA
HETATM   12  N   UNL     1       5.608  27.509  52.769  1.00  0.00    -0.224 N 
HETATM   13  N   UNL     1       6.018  26.780  51.632  1.00  0.00    -0.180 NA
HETATM   14  C   UNL     1       6.537  25.595  51.777  1.00  0.00     0.153 A 
HETATM   15  C   UNL     1       7.446  22.674  55.713  1.00  0.00     0.031 A 
HETATM   16  C   UNL     1       7.961  21.548  55.059  1.00  0.00     0.009 A 
ENDROOT
BRANCH  12  17
HETATM   17  C   UNL     1       4.878  28.739  52.509  1.00  0.00     0.258 C 
BRANCH  17  18
HETATM   18  C   UNL     1       3.731  28.917  51.489  1.00  0.00     0.244 C 
HETATM   19  N   UNL     1       3.944  29.261  50.150  1.00  0.00    -0.321 N 
HETATM   20  C   UNL     1       5.267  29.510  49.589  1.00  0.00     0.159 C 
HETATM   21  O   UNL     1       2.593  28.759  51.961  1.00  0.00    -0.271 OA
BRANCH  19  22
HETATM   22  C   UNL     1       2.825  29.457  49.257  1.00  0.00     0.037 A 
HETATM   23  C   UNL     1       2.249  28.389  48.552  1.00  0.00     0.037 A 
HETATM   24  C   UNL     1       1.162  28.570  47.673  1.00  0.00    -0.054 A 
HETATM   25  C   UNL     1       0.598  27.374  46.957  1.00  0.00     0.049 C 
HETATM   26  C   UNL     1       0.647  29.862  47.470  1.00  0.00    -0.056 A 
HETATM   27  C   UNL     1      -0.531  30.117  46.572  1.00  0.00     0.049 C 
HETATM   28  C   UNL     1       1.210  30.932  48.177  1.00  0.00     0.009 A 
HETATM   29  C   UNL     1       2.286  30.732  49.050  1.00  0.00     0.030 A 
ENDBRANCH  19  22
ENDBRANCH  17  18
ENDBRANCH  12  17
TORSDOF 3
ENDMDL
MODEL 9
REMARK VINA RESULT:      -9.2      5.283      9.926
REMARK  3 active torsions:
REMARK  status: ('A' for Active; 'I' for Inactive)
REMARK    1  A    between atoms: N_12  and  C_13 
REMARK    2  A    between atoms: C_13  and  C_14 
REMARK       I    between atoms: C_14  and  N_15 
REMARK    3  A    between atoms: N_15  and  C_16 
ROOT
HETATM    1  C   UNL     1       6.861  33.659  47.511  1.00  0.00     0.048 C 
HETATM    2  C   UNL     1       6.134  33.243  48.757  1.00  0.00    -0.061 A 
HETATM    3  C   UNL     1       6.131  31.898  49.164  1.00  0.00     0.021 A 
HETATM    4  C   UNL     1       5.440  31.524  50.336  1.00  0.00     0.005 A 
HETATM    5  C   UNL     1       4.761  32.508  51.061  1.00  0.00     0.044 A 
HETATM    6  N   UNL     1       4.184  31.895  52.155  1.00  0.00    -0.350 N 
HETATM    7  H   UNL     1       3.638  32.358  52.870  1.00  0.00     0.166 HD
HETATM    8  C   UNL     1       4.486  30.564  52.143  1.00  0.00     0.116 A 
HETATM    9  C   UNL     1       5.249  30.303  51.032  1.00  0.00     0.028 A 
HETATM   10  C   UNL     1       4.124  29.563  53.102  1.00  0.00     0.291 A 
HETATM   11  O   UNL     1       3.449  29.808  54.096  1.00  0.00    -0.264 OA
HETATM   12  N   UNL     1       4.615  28.284  52.771  1.00  0.00    -0.224 N 
HETATM   13  N   UNL     1       5.404  28.005  51.635  1.00  0.00    -0.180 NA
HETATM   14  C   UNL     1       5.703  28.962  50.804  1.00  0.00     0.153 A 
HETATM   15  C   UNL     1       4.736  33.850  50.667  1.00  0.00     0.031 A 
HETATM   16  C   UNL     1       5.433  34.197  49.503  1.00  0.00     0.009 A 
ENDROOT
BRANCH  12  17
HETATM   17  C   UNL     1       4.481  27.205  53.736  1.00  0.00     0.258 C 
BRANCH  17  18
HETATM   18  C   UNL     1       5.152  25.817  53.646  1.00  0.00     0.244 C 
HETATM   19  N   UNL     1       6.389  25.524  54.232  1.00  0.00    -0.321 N 
HETATM   20  C   UNL     1       7.178  26.506  54.965  1.00  0.00     0.159 C 
HETATM   21  O   UNL     1       4.518  24.980  52.981  1.00  0.00    -0.271 OA
BRANCH  19  22
HETATM   22  C   UNL     1       6.984  24.217  54.073  1.00  0.00     0.037 A 
HETATM   23  C   UNL     1       7.144  23.343  55.158  1.00  0.00     0.037 A 
HETATM   24  C   UNL     1       7.730  22.069  55.015  1.00  0.00    -0.054 A 
HETATM   25  C   UNL     1       7.862  21.189  56.228  1.00  0.00     0.049 C 
HETATM   26  C   UNL     1       8.195  21.662  53.754  1.00  0.00    -0.056 A 
HETATM   27  C   UNL     1       8.799  20.303  53.528  1.00  0.00     0.049 C 
HETATM   28  C   UNL     1       8.030  22.525  52.663  1.00  0.00     0.009 A 
HETATM   29  C   UNL     1       7.441  23.784  52.822  1.00  0.00     0.030 A 
ENDBRANCH  19  22
ENDBRANCH  17  18
ENDBRANCH  12  17
TORSDOF 3
ENDMDL
MODEL 10
REMARK VINA RESULT:      -8.8      6.836     10.156
REMARK  3 active torsions:
REMARK  status: ('A' for Active; 'I' for Inactive)
REMARK    1  A    between atoms: N_12  and  C_13 
REMARK    2  A    between atoms: C_13  and  C_14 
REMARK       I    between atoms: C_14  and  N_15 
REMARK    3  A    between atoms: N_15  and  C_16 
ROOT
HETATM    1  C   UNL     1       8.125  22.869  56.484  1.00  0.00     0.048 C 
HETATM    2  C   UNL     1       7.810  23.486  55.153  1.00  0.00    -0.061 A 
HETATM    3  C   UNL     1       6.897  24.550  55.058  1.00  0.00     0.021 A 
HETATM    4  C   UNL     1       6.610  25.117  53.799  1.00  0.00     0.005 A 
HETATM    5  C   UNL     1       7.239  24.591  52.665  1.00  0.00     0.044 A 
HETATM    6  N   UNL     1       6.803  25.317  51.574  1.00  0.00    -0.350 N 
HETATM    7  H   UNL     1       7.097  25.173  50.617  1.00  0.00     0.166 HD
HETATM    8  C   UNL     1       5.931  26.282  51.988  1.00  0.00     0.116 A 
HETATM    9  C   UNL     1       5.784  26.178  53.348  1.00  0.00     0.028 A 
HETATM   10  C   UNL     1       5.267  27.277  51.197  1.00  0.00     0.291 A 
HETATM   11  O   UNL     1       5.413  27.366  49.983  1.00  0.00    -0.264 OA
HETATM   12  N   UNL     1       4.436  28.118  51.963  1.00  0.00    -0.224 N 
HETATM   13  N   UNL     1       4.280  28.024  53.362  1.00  0.00    -0.180 NA
HETATM   14  C   UNL     1       4.917  27.100  54.023  1.00  0.00     0.153 A 
HETATM   15  C   UNL     1       8.138  23.522  52.732  1.00  0.00     0.031 A 
HETATM   16  C   UNL     1       8.410  22.981  53.994  1.00  0.00     0.009 A 
ENDROOT
BRANCH  12  17
HETATM   17  C   UNL     1       3.838  29.282  51.331  1.00  0.00     0.258 C 
BRANCH  17  18
HETATM   18  C   UNL     1       2.654  29.269  50.338  1.00  0.00     0.244 C 
HETATM   19  N   UNL     1       2.755  29.726  49.019  1.00  0.00    -0.321 N 
HETATM   20  C   UNL     1       3.981  30.282  48.457  1.00  0.00     0.159 C 
HETATM   21  O   UNL     1       1.587  28.846  50.814  1.00  0.00    -0.271 OA
BRANCH  19  22
HETATM   22  C   UNL     1       1.598  29.729  48.153  1.00  0.00     0.037 A 
HETATM   23  C   UNL     1       1.254  28.610  47.380  1.00  0.00     0.037 A 
HETATM   24  C   UNL     1       0.131  28.604  46.527  1.00  0.00    -0.054 A 
HETATM   25  C   UNL     1      -0.173  27.364  45.734  1.00  0.00     0.049 C 
HETATM   26  C   UNL     1      -0.660  29.761  46.423  1.00  0.00    -0.056 A 
HETATM   27  C   UNL     1      -1.889  29.808  45.556  1.00  0.00     0.049 C 
HETATM   28  C   UNL     1      -0.329  30.879  47.198  1.00  0.00     0.009 A 
HETATM   29  C   UNL     1       0.786  30.864  48.044  1.00  0.00     0.030 A 
ENDBRANCH  19  22
ENDBRANCH  17  18
ENDBRANCH  12  17
TORSDOF 3
ENDMDL
