MODEL 1
REMARK VINA RESULT:     -10.2      0.000      0.000
REMARK  2 active torsions:
REMARK  status: ('A' for Active; 'I' for Inactive)
REMARK       I    between atoms: N_8  and  C_9 
REMARK    1  A    between atoms: C_9  and  C_10 
REMARK    2  A    between atoms: N_12  and  C_13 
ROOT
HETATM    1  C   UNL     1      10.742  29.773  57.383  1.00  0.00     0.021 C 
HETATM    2  C   UNL     1       9.336  29.765  57.977  1.00  0.00     0.087 C 
HETATM    3  C   UNL     1       9.038  31.088  58.673  1.00  0.00     0.207 C 
HETATM    4  O   UNL     1       9.736  32.090  58.571  1.00  0.00    -0.279 OA
HETATM    5  N   UNL     1       7.843  31.058  59.382  1.00  0.00    -0.227 NA
HETATM    6  C   UNL     1       6.703  31.403  58.603  1.00  0.00     0.042 A 
HETATM    7  C   UNL     1       6.158  30.458  57.710  1.00  0.00     0.059 A 
HETATM    8  N   UNL     1       6.916  29.283  57.373  1.00  0.00    -0.309 N 
HETATM    9  C   UNL     1       6.276  28.028  57.244  1.00  0.00     0.298 C 
HETATM   10  O   UNL     1       5.062  27.890  57.405  1.00  0.00    -0.264 OA
HETATM   11  C   UNL     1       8.287  29.566  56.875  1.00  0.00     0.145 C 
HETATM   12  C   UNL     1       6.067  32.618  58.855  1.00  0.00     0.026 A 
HETATM   13  C   UNL     1       4.856  32.896  58.223  1.00  0.00     0.002 A 
HETATM   14  C   UNL     1       4.284  31.956  57.363  1.00  0.00     0.002 A 
HETATM   15  C   UNL     1       4.929  30.741  57.108  1.00  0.00     0.031 A 
HETATM   16  H   UNL     1       7.697  30.100  59.694  1.00  0.00     0.136 HD
ENDROOT
BRANCH   9  17
HETATM   17  C   UNL     1       7.129  26.838  56.978  1.00  0.00     0.239 A 
HETATM   18  N   UNL     1       6.997  26.089  55.870  1.00  0.00    -0.140 NA
HETATM   19  N   UNL     1       7.903  25.102  56.045  1.00  0.00    -0.225 N 
HETATM   20  C   UNL     1       8.540  25.283  57.245  1.00  0.00     0.237 A 
HETATM   21  N   UNL     1       8.079  26.350  57.857  1.00  0.00    -0.216 NA
BRANCH  19  22
HETATM   22  C   UNL     1       8.098  24.084  55.075  1.00  0.00     0.059 A 
HETATM   23  C   UNL     1       8.909  22.982  55.388  1.00  0.00     0.031 A 
HETATM   24  C   UNL     1       9.112  21.968  54.450  1.00  0.00     0.002 A 
HETATM   25  C   UNL     1       8.506  22.046  53.198  1.00  0.00     0.000 A 
HETATM   26  C   UNL     1       7.699  23.136  52.880  1.00  0.00     0.002 A 
HETATM   27  C   UNL     1       7.491  24.157  53.813  1.00  0.00     0.031 A 
ENDBRANCH  19  22
ENDBRANCH   9  17
TORSDOF 2
ENDMDL
MODEL 2
REMARK VINA RESULT:      -9.9      2.552      3.551
REMARK  2 active torsions:
REMARK  status: ('A' for Active; 'I' for Inactive)
REMARK       I    between atoms: N_8  and  C_9 
REMARK    1  A    between atoms: C_9  and  C_10 
REMARK    2  A    between atoms: N_12  and  C_13 
ROOT
HETATM    1  C   UNL     1       8.614  27.576  56.889  1.00  0.00     0.021 C 
HETATM    2  C   UNL     1       7.131  27.613  56.528  1.00  0.00     0.087 C 
HETATM    3  C   UNL     1       6.374  28.553  57.459  1.00  0.00     0.207 C 
HETATM    4  O   UNL     1       6.914  29.337  58.231  1.00  0.00    -0.279 OA
HETATM    5  N   UNL     1       4.997  28.479  57.285  1.00  0.00    -0.227 NA
HETATM    6  C   UNL     1       4.497  29.348  56.274  1.00  0.00     0.042 A 
HETATM    7  C   UNL     1       4.655  28.999  54.916  1.00  0.00     0.059 A 
HETATM    8  N   UNL     1       5.563  27.943  54.557  1.00  0.00    -0.309 N 
HETATM    9  C   UNL     1       5.226  27.022  53.539  1.00  0.00     0.298 C 
HETATM   10  O   UNL     1       4.161  27.085  52.921  1.00  0.00    -0.264 OA
HETATM   11  C   UNL     1       6.939  28.117  55.092  1.00  0.00     0.145 C 
HETATM   12  C   UNL     1       3.734  30.448  56.658  1.00  0.00     0.026 A 
HETATM   13  C   UNL     1       3.097  31.211  55.681  1.00  0.00     0.002 A 
HETATM   14  C   UNL     1       3.213  30.859  54.335  1.00  0.00     0.002 A 
HETATM   15  C   UNL     1       3.985  29.757  53.952  1.00  0.00     0.031 A 
HETATM   16  H   UNL     1       4.779  27.532  56.981  1.00  0.00     0.136 HD
ENDROOT
BRANCH   9  17
HETATM   17  C   UNL     1       6.171  25.903  53.274  1.00  0.00     0.239 A 
HETATM   18  N   UNL     1       6.180  24.777  54.009  1.00  0.00    -0.140 NA
HETATM   19  N   UNL     1       7.201  24.064  53.484  1.00  0.00    -0.225 N 
HETATM   20  C   UNL     1       7.772  24.780  52.465  1.00  0.00     0.237 A 
HETATM   21  N   UNL     1       7.161  25.933  52.310  1.00  0.00    -0.216 NA
BRANCH  19  22
HETATM   22  C   UNL     1       7.546  22.778  53.976  1.00  0.00     0.059 A 
HETATM   23  C   UNL     1       7.907  21.769  53.069  1.00  0.00     0.031 A 
HETATM   24  C   UNL     1       8.252  20.498  53.531  1.00  0.00     0.002 A 
HETATM   25  C   UNL     1       8.243  20.227  54.897  1.00  0.00     0.000 A 
HETATM   26  C   UNL     1       7.888  21.224  55.804  1.00  0.00     0.002 A 
HETATM   27  C   UNL     1       7.538  22.499  55.350  1.00  0.00     0.031 A 
ENDBRANCH  19  22
ENDBRANCH   9  17
TORSDOF 2
ENDMDL
MODEL 3
REMARK VINA RESULT:      -9.8      2.294      8.068
REMARK  2 active torsions:
REMARK  status: ('A' for Active; 'I' for Inactive)
REMARK       I    between atoms: N_8  and  C_9 
REMARK    1  A    between atoms: C_9  and  C_10 
REMARK    2  A    between atoms: N_12  and  C_13 
ROOT
HETATM    1  C   UNL     1       6.287  28.075  52.668  1.00  0.00     0.021 C 
HETATM    2  C   UNL     1       6.263  26.808  53.520  1.00  0.00     0.087 C 
HETATM    3  C   UNL     1       6.030  25.578  52.649  1.00  0.00     0.207 C 
HETATM    4  O   UNL     1       6.085  25.583  51.425  1.00  0.00    -0.279 OA
HETATM    5  N   UNL     1       5.820  24.427  53.400  1.00  0.00    -0.227 NA
HETATM    6  C   UNL     1       7.018  23.744  53.753  1.00  0.00     0.042 A 
HETATM    7  C   UNL     1       7.821  24.241  54.800  1.00  0.00     0.059 A 
HETATM    8  N   UNL     1       7.593  25.572  55.297  1.00  0.00    -0.309 N 
HETATM    9  C   UNL     1       7.671  25.844  56.683  1.00  0.00     0.298 C 
HETATM   10  O   UNL     1       7.941  24.971  57.510  1.00  0.00    -0.264 OA
HETATM   11  C   UNL     1       7.602  26.623  54.246  1.00  0.00     0.145 C 
HETATM   12  C   UNL     1       7.288  22.517  53.149  1.00  0.00     0.026 A 
HETATM   13  C   UNL     1       8.364  21.757  53.603  1.00  0.00     0.002 A 
HETATM   14  C   UNL     1       9.147  22.217  54.663  1.00  0.00     0.002 A 
HETATM   15  C   UNL     1       8.878  23.452  55.263  1.00  0.00     0.031 A 
HETATM   16  H   UNL     1       5.384  24.710  54.275  1.00  0.00     0.136 HD
ENDROOT
BRANCH   9  17
HETATM   17  C   UNL     1       7.340  27.222  57.139  1.00  0.00     0.239 A 
HETATM   18  N   UNL     1       8.234  28.008  57.764  1.00  0.00    -0.140 NA
HETATM   19  N   UNL     1       7.528  29.125  58.049  1.00  0.00    -0.225 N 
HETATM   20  C   UNL     1       6.242  28.972  57.597  1.00  0.00     0.237 A 
HETATM   21  N   UNL     1       6.087  27.797  57.031  1.00  0.00    -0.216 NA
BRANCH  19  22
HETATM   22  C   UNL     1       8.116  30.234  58.710  1.00  0.00     0.059 A 
HETATM   23  C   UNL     1       9.395  30.666  58.324  1.00  0.00     0.031 A 
HETATM   24  C   UNL     1       9.991  31.756  58.960  1.00  0.00     0.002 A 
HETATM   25  C   UNL     1       9.317  32.423  59.980  1.00  0.00     0.000 A 
HETATM   26  C   UNL     1       8.046  32.001  60.368  1.00  0.00     0.002 A 
HETATM   27  C   UNL     1       7.442  30.908  59.738  1.00  0.00     0.031 A 
ENDBRANCH  19  22
ENDBRANCH   9  17
TORSDOF 2
ENDMDL
MODEL 4
REMARK VINA RESULT:      -9.3      4.978      7.535
REMARK  2 active torsions:
REMARK  status: ('A' for Active; 'I' for Inactive)
REMARK       I    between atoms: N_8  and  C_9 
REMARK    1  A    between atoms: C_9  and  C_10 
REMARK    2  A    between atoms: N_12  and  C_13 
ROOT
HETATM    1  C   UNL     1       4.194  28.576  55.276  1.00  0.00     0.021 C 
HETATM    2  C   UNL     1       5.508  27.869  54.952  1.00  0.00     0.087 C 
HETATM    3  C   UNL     1       6.330  27.653  56.218  1.00  0.00     0.207 C 
HETATM    4  O   UNL     1       5.898  27.816  57.353  1.00  0.00    -0.279 OA
HETATM    5  N   UNL     1       7.608  27.179  55.947  1.00  0.00    -0.227 NA
HETATM    6  C   UNL     1       7.688  25.761  55.855  1.00  0.00     0.042 A 
HETATM    7  C   UNL     1       7.236  25.112  54.687  1.00  0.00     0.059 A 
HETATM    8  N   UNL     1       6.436  25.839  53.737  1.00  0.00    -0.309 N 
HETATM    9  C   UNL     1       6.632  25.661  52.349  1.00  0.00     0.298 C 
HETATM   10  O   UNL     1       7.476  24.884  51.898  1.00  0.00    -0.264 OA
HETATM   11  C   UNL     1       5.239  26.493  54.326  1.00  0.00     0.145 C 
HETATM   12  C   UNL     1       8.349  25.064  56.865  1.00  0.00     0.026 A 
HETATM   13  C   UNL     1       8.584  23.699  56.708  1.00  0.00     0.002 A 
HETATM   14  C   UNL     1       8.176  23.048  55.543  1.00  0.00     0.002 A 
HETATM   15  C   UNL     1       7.507  23.750  54.534  1.00  0.00     0.031 A 
HETATM   16  H   UNL     1       7.881  27.541  55.035  1.00  0.00     0.136 HD
ENDROOT
BRANCH   9  17
HETATM   17  C   UNL     1       5.832  26.506  51.420  1.00  0.00     0.239 A 
HETATM   18  N   UNL     1       4.941  25.985  50.559  1.00  0.00    -0.140 NA
HETATM   19  N   UNL     1       4.487  27.064  49.883  1.00  0.00    -0.225 N 
HETATM   20  C   UNL     1       5.119  28.187  50.351  1.00  0.00     0.237 A 
HETATM   21  N   UNL     1       5.967  27.877  51.304  1.00  0.00    -0.216 NA
BRANCH  19  22
HETATM   22  C   UNL     1       3.501  26.951  48.867  1.00  0.00     0.059 A 
HETATM   23  C   UNL     1       2.419  27.845  48.857  1.00  0.00     0.031 A 
HETATM   24  C   UNL     1       1.440  27.753  47.867  1.00  0.00     0.002 A 
HETATM   25  C   UNL     1       1.535  26.773  46.881  1.00  0.00     0.000 A 
HETATM   26  C   UNL     1       2.607  25.882  46.884  1.00  0.00     0.002 A 
HETATM   27  C   UNL     1       3.592  25.966  47.874  1.00  0.00     0.031 A 
ENDBRANCH  19  22
ENDBRANCH   9  17
TORSDOF 2
ENDMDL
MODEL 5
REMARK VINA RESULT:      -9.2      2.387      4.015
REMARK  2 active torsions:
REMARK  status: ('A' for Active; 'I' for Inactive)
REMARK       I    between atoms: N_8  and  C_9 
REMARK    1  A    between atoms: C_9  and  C_10 
REMARK    2  A    between atoms: N_12  and  C_13 
ROOT
HETATM    1  C   UNL     1       4.822  25.281  53.449  1.00  0.00     0.021 C 
HETATM    2  C   UNL     1       5.547  26.479  54.060  1.00  0.00     0.087 C 
HETATM    3  C   UNL     1       4.987  27.785  53.509  1.00  0.00     0.207 C 
HETATM    4  O   UNL     1       3.957  27.868  52.850  1.00  0.00    -0.279 OA
HETATM    5  N   UNL     1       5.735  28.890  53.899  1.00  0.00    -0.227 NA
HETATM    6  C   UNL     1       5.338  29.442  55.149  1.00  0.00     0.042 A 
HETATM    7  C   UNL     1       5.721  28.802  56.346  1.00  0.00     0.059 A 
HETATM    8  N   UNL     1       6.242  27.462  56.298  1.00  0.00    -0.309 N 
HETATM    9  C   UNL     1       7.322  27.082  57.126  1.00  0.00     0.298 C 
HETATM   10  O   UNL     1       7.852  27.865  57.918  1.00  0.00    -0.264 OA
HETATM   11  C   UNL     1       5.366  26.496  55.584  1.00  0.00     0.145 C 
HETATM   12  C   UNL     1       4.705  30.684  55.158  1.00  0.00     0.026 A 
HETATM   13  C   UNL     1       4.462  31.315  56.376  1.00  0.00     0.002 A 
HETATM   14  C   UNL     1       4.867  30.713  57.569  1.00  0.00     0.002 A 
HETATM   15  C   UNL     1       5.496  29.463  57.556  1.00  0.00     0.031 A 
HETATM   16  H   UNL     1       6.698  28.580  54.016  1.00  0.00     0.136 HD
ENDROOT
BRANCH   9  17
HETATM   17  C   UNL     1       7.869  25.707  56.966  1.00  0.00     0.239 A 
HETATM   18  N   UNL     1       7.641  24.963  55.870  1.00  0.00    -0.140 NA
HETATM   19  N   UNL     1       8.255  23.792  56.148  1.00  0.00    -0.225 N 
HETATM   20  C   UNL     1       8.821  23.866  57.394  1.00  0.00     0.237 A 
HETATM   21  N   UNL     1       8.596  25.041  57.936  1.00  0.00    -0.216 NA
BRANCH  19  22
HETATM   22  C   UNL     1       8.264  22.713  55.225  1.00  0.00     0.059 A 
HETATM   23  C   UNL     1       7.888  22.946  53.892  1.00  0.00     0.031 A 
HETATM   24  C   UNL     1       7.891  21.900  52.968  1.00  0.00     0.002 A 
HETATM   25  C   UNL     1       8.272  20.620  53.365  1.00  0.00     0.000 A 
HETATM   26  C   UNL     1       8.648  20.382  54.686  1.00  0.00     0.002 A 
HETATM   27  C   UNL     1       8.645  21.423  55.619  1.00  0.00     0.031 A 
ENDBRANCH  19  22
ENDBRANCH   9  17
TORSDOF 2
ENDMDL
MODEL 6
REMARK VINA RESULT:      -9.2      3.501      4.872
REMARK  2 active torsions:
REMARK  status: ('A' for Active; 'I' for Inactive)
REMARK       I    between atoms: N_8  and  C_9 
REMARK    1  A    between atoms: C_9  and  C_10 
REMARK    2  A    between atoms: N_12  and  C_13 
ROOT
HETATM    1  C   UNL     1       4.269  27.631  50.548  1.00  0.00     0.021 C 
HETATM    2  C   UNL     1       4.750  28.413  51.768  1.00  0.00     0.087 C 
HETATM    3  C   UNL     1       4.144  29.811  51.784  1.00  0.00     0.207 C 
HETATM    4  O   UNL     1       3.228  30.172  51.053  1.00  0.00    -0.279 OA
HETATM    5  N   UNL     1       4.694  30.618  52.774  1.00  0.00    -0.227 NA
HETATM    6  C   UNL     1       4.045  30.504  54.035  1.00  0.00     0.042 A 
HETATM    7  C   UNL     1       4.302  29.383  54.852  1.00  0.00     0.059 A 
HETATM    8  N   UNL     1       4.969  28.237  54.293  1.00  0.00    -0.309 N 
HETATM    9  C   UNL     1       5.940  27.535  55.043  1.00  0.00     0.298 C 
HETATM   10  O   UNL     1       6.248  27.863  56.191  1.00  0.00    -0.264 OA
HETATM   11  C   UNL     1       4.330  27.703  53.062  1.00  0.00     0.145 C 
HETATM   12  C   UNL     1       3.285  31.578  54.494  1.00  0.00     0.026 A 
HETATM   13  C   UNL     1       2.784  31.553  55.794  1.00  0.00     0.002 A 
HETATM   14  C   UNL     1       3.059  30.468  56.628  1.00  0.00     0.002 A 
HETATM   15  C   UNL     1       3.817  29.387  56.162  1.00  0.00     0.031 A 
HETATM   16  H   UNL     1       5.654  30.312  52.917  1.00  0.00     0.136 HD
ENDROOT
BRANCH   9  17
HETATM   17  C   UNL     1       6.654  26.412  54.376  1.00  0.00     0.239 A 
HETATM   18  N   UNL     1       6.609  25.152  54.841  1.00  0.00    -0.140 NA
HETATM   19  N   UNL     1       7.417  24.473  53.996  1.00  0.00    -0.225 N 
HETATM   20  C   UNL     1       7.923  25.341  53.064  1.00  0.00     0.237 A 
HETATM   21  N   UNL     1       7.474  26.558  53.273  1.00  0.00    -0.216 NA
BRANCH  19  22
HETATM   22  C   UNL     1       7.638  23.078  54.131  1.00  0.00     0.059 A 
HETATM   23  C   UNL     1       7.904  22.310  52.986  1.00  0.00     0.031 A 
HETATM   24  C   UNL     1       8.127  20.937  53.096  1.00  0.00     0.002 A 
HETATM   25  C   UNL     1       8.090  20.322  54.346  1.00  0.00     0.000 A 
HETATM   26  C   UNL     1       7.828  21.078  55.487  1.00  0.00     0.002 A 
HETATM   27  C   UNL     1       7.601  22.454  55.386  1.00  0.00     0.031 A 
ENDBRANCH  19  22
ENDBRANCH   9  17
TORSDOF 2
ENDMDL
MODEL 7
REMARK VINA RESULT:      -9.2      3.558      8.395
REMARK  2 active torsions:
REMARK  status: ('A' for Active; 'I' for Inactive)
REMARK       I    between atoms: N_8  and  C_9 
REMARK    1  A    between atoms: C_9  and  C_10 
REMARK    2  A    between atoms: N_12  and  C_13 
ROOT
HETATM    1  C   UNL     1       4.396  33.350  58.547  1.00  0.00     0.021 C 
HETATM    2  C   UNL     1       4.728  31.862  58.448  1.00  0.00     0.087 C 
HETATM    3  C   UNL     1       3.671  31.128  57.632  1.00  0.00     0.207 C 
HETATM    4  O   UNL     1       2.809  31.686  56.962  1.00  0.00    -0.279 OA
HETATM    5  N   UNL     1       3.834  29.748  57.669  1.00  0.00    -0.227 NA
HETATM    6  C   UNL     1       4.714  29.246  56.669  1.00  0.00     0.042 A 
HETATM    7  C   UNL     1       6.108  29.383  56.836  1.00  0.00     0.059 A 
HETATM    8  N   UNL     1       6.617  30.274  57.844  1.00  0.00    -0.309 N 
HETATM    9  C   UNL     1       7.743  29.914  58.619  1.00  0.00     0.298 C 
HETATM   10  O   UNL     1       8.332  28.842  58.464  1.00  0.00    -0.264 OA
HETATM   11  C   UNL     1       6.082  31.659  57.756  1.00  0.00     0.145 C 
HETATM   12  C   UNL     1       4.177  28.501  55.621  1.00  0.00     0.026 A 
HETATM   13  C   UNL     1       5.036  27.861  54.730  1.00  0.00     0.002 A 
HETATM   14  C   UNL     1       6.418  27.955  54.901  1.00  0.00     0.002 A 
HETATM   15  C   UNL     1       6.954  28.710  55.951  1.00  0.00     0.031 A 
HETATM   16  H   UNL     1       4.257  29.516  58.565  1.00  0.00     0.136 HD
ENDROOT
BRANCH   9  17
HETATM   17  C   UNL     1       8.166  30.843  59.702  1.00  0.00     0.239 A 
HETATM   18  N   UNL     1       7.297  31.363  60.587  1.00  0.00    -0.140 NA
HETATM   19  N   UNL     1       8.066  32.176  61.345  1.00  0.00    -0.225 N 
HETATM   20  C   UNL     1       9.359  32.125  60.891  1.00  0.00     0.237 A 
HETATM   21  N   UNL     1       9.457  31.310  59.866  1.00  0.00    -0.216 NA
BRANCH  19  22
HETATM   22  C   UNL     1       7.527  32.922  62.426  1.00  0.00     0.059 A 
HETATM   23  C   UNL     1       6.545  33.892  62.170  1.00  0.00     0.031 A 
HETATM   24  C   UNL     1       6.000  34.635  63.218  1.00  0.00     0.002 A 
HETATM   25  C   UNL     1       6.428  34.414  64.525  1.00  0.00     0.000 A 
HETATM   26  C   UNL     1       7.402  33.451  64.787  1.00  0.00     0.002 A 
HETATM   27  C   UNL     1       7.955  32.704  63.743  1.00  0.00     0.031 A 
ENDBRANCH  19  22
ENDBRANCH   9  17
TORSDOF 2
ENDMDL
MODEL 8
REMARK VINA RESULT:      -8.9      2.516      3.368
REMARK  2 active torsions:
REMARK  status: ('A' for Active; 'I' for Inactive)
REMARK       I    between atoms: N_8  and  C_9 
REMARK    1  A    between atoms: C_9  and  C_10 
REMARK    2  A    between atoms: N_12  and  C_13 
ROOT
HETATM    1  C   UNL     1       7.614  28.648  58.004  1.00  0.00     0.021 C 
HETATM    2  C   UNL     1       6.291  28.527  57.252  1.00  0.00     0.087 C 
HETATM    3  C   UNL     1       5.451  29.787  57.433  1.00  0.00     0.207 C 
HETATM    4  O   UNL     1       5.874  30.830  57.919  1.00  0.00    -0.279 OA
HETATM    5  N   UNL     1       4.168  29.649  56.919  1.00  0.00    -0.227 NA
HETATM    6  C   UNL     1       4.063  29.980  55.539  1.00  0.00     0.042 A 
HETATM    7  C   UNL     1       4.515  29.063  54.566  1.00  0.00     0.059 A 
HETATM    8  N   UNL     1       5.338  27.954  54.968  1.00  0.00    -0.309 N 
HETATM    9  C   UNL     1       5.154  26.677  54.388  1.00  0.00     0.298 C 
HETATM   10  O   UNL     1       4.300  26.464  53.525  1.00  0.00    -0.264 OA
HETATM   11  C   UNL     1       6.541  28.341  55.750  1.00  0.00     0.145 C 
HETATM   12  C   UNL     1       3.378  31.140  55.181  1.00  0.00     0.026 A 
HETATM   13  C   UNL     1       3.120  31.391  53.835  1.00  0.00     0.002 A 
HETATM   14  C   UNL     1       3.528  30.477  52.862  1.00  0.00     0.002 A 
HETATM   15  C   UNL     1       4.221  29.316  53.224  1.00  0.00     0.031 A 
HETATM   16  H   UNL     1       3.912  28.667  56.998  1.00  0.00     0.136 HD
ENDROOT
BRANCH   9  17
HETATM   17  C   UNL     1       5.979  25.553  54.909  1.00  0.00     0.239 A 
HETATM   18  N   UNL     1       6.330  24.503  54.146  1.00  0.00    -0.140 NA
HETATM   19  N   UNL     1       7.012  23.706  54.999  1.00  0.00    -0.225 N 
HETATM   20  C   UNL     1       7.043  24.295  56.237  1.00  0.00     0.237 A 
HETATM   21  N   UNL     1       6.405  25.443  56.220  1.00  0.00    -0.216 NA
BRANCH  19  22
HETATM   22  C   UNL     1       7.578  22.473  54.581  1.00  0.00     0.059 A 
HETATM   23  C   UNL     1       7.846  21.481  55.537  1.00  0.00     0.031 A 
HETATM   24  C   UNL     1       8.401  20.261  55.148  1.00  0.00     0.002 A 
HETATM   25  C   UNL     1       8.687  20.021  53.806  1.00  0.00     0.000 A 
HETATM   26  C   UNL     1       8.422  21.002  52.851  1.00  0.00     0.002 A 
HETATM   27  C   UNL     1       7.869  22.228  53.232  1.00  0.00     0.031 A 
ENDBRANCH  19  22
ENDBRANCH   9  17
TORSDOF 2
ENDMDL
MODEL 9
REMARK VINA RESULT:      -8.9      4.850      7.168
REMARK  2 active torsions:
REMARK  status: ('A' for Active; 'I' for Inactive)
REMARK       I    between atoms: N_8  and  C_9 
REMARK    1  A    between atoms: C_9  and  C_10 
REMARK    2  A    between atoms: N_12  and  C_13 
ROOT
HETATM    1  C   UNL     1       7.705  24.482  51.694  1.00  0.00     0.021 C 
HETATM    2  C   UNL     1       6.920  25.091  52.854  1.00  0.00     0.087 C 
HETATM    3  C   UNL     1       7.135  24.287  54.131  1.00  0.00     0.207 C 
HETATM    4  O   UNL     1       7.990  23.419  54.260  1.00  0.00    -0.279 OA
HETATM    5  N   UNL     1       6.300  24.696  55.164  1.00  0.00    -0.227 NA
HETATM    6  C   UNL     1       6.830  25.761  55.944  1.00  0.00     0.042 A 
HETATM    7  C   UNL     1       6.797  27.078  55.440  1.00  0.00     0.059 A 
HETATM    8  N   UNL     1       6.510  27.296  54.047  1.00  0.00    -0.309 N 
HETATM    9  C   UNL     1       5.688  28.373  53.644  1.00  0.00     0.298 C 
HETATM   10  O   UNL     1       5.195  29.163  54.452  1.00  0.00    -0.264 OA
HETATM   11  C   UNL     1       7.383  26.530  53.120  1.00  0.00     0.145 C 
HETATM   12  C   UNL     1       7.235  25.493  57.251  1.00  0.00     0.026 A 
HETATM   13  C   UNL     1       7.596  26.551  58.083  1.00  0.00     0.002 A 
HETATM   14  C   UNL     1       7.535  27.863  57.611  1.00  0.00     0.002 A 
HETATM   15  C   UNL     1       7.134  28.129  56.297  1.00  0.00     0.031 A 
HETATM   16  H   UNL     1       5.444  25.050  54.741  1.00  0.00     0.136 HD
ENDROOT
BRANCH   9  17
HETATM   17  C   UNL     1       5.360  28.493  52.197  1.00  0.00     0.239 A 
HETATM   18  N   UNL     1       4.519  27.647  51.576  1.00  0.00    -0.140 NA
HETATM   19  N   UNL     1       4.543  28.064  50.291  1.00  0.00    -0.225 N 
HETATM   20  C   UNL     1       5.395  29.133  50.180  1.00  0.00     0.237 A 
HETATM   21  N   UNL     1       5.927  29.423  51.345  1.00  0.00    -0.216 NA
BRANCH  19  22
HETATM   22  C   UNL     1       3.765  27.434  49.285  1.00  0.00     0.059 A 
HETATM   23  C   UNL     1       2.501  27.956  48.965  1.00  0.00     0.031 A 
HETATM   24  C   UNL     1       1.720  27.352  47.978  1.00  0.00     0.002 A 
HETATM   25  C   UNL     1       2.194  26.230  47.302  1.00  0.00     0.000 A 
HETATM   26  C   UNL     1       3.449  25.707  47.614  1.00  0.00     0.002 A 
HETATM   27  C   UNL     1       4.237  26.304  48.603  1.00  0.00     0.031 A 
ENDBRANCH  19  22
ENDBRANCH   9  17
TORSDOF 2
ENDMDL
MODEL 10
REMARK VINA RESULT:      -8.6      1.773      2.931
REMARK  2 active torsions:
REMARK  status: ('A' for Active; 'I' for Inactive)
REMARK       I    between atoms: N_8  and  C_9 
REMARK    1  A    between atoms: C_9  and  C_10 
REMARK    2  A    between atoms: N_12  and  C_13 
ROOT
HETATM    1  C   UNL     1       9.867  30.409  58.549  1.00  0.00     0.021 C 
HETATM    2  C   UNL     1       8.454  30.482  59.123  1.00  0.00     0.087 C 
HETATM    3  C   UNL     1       8.441  31.279  60.422  1.00  0.00     0.207 C 
HETATM    4  O   UNL     1       9.381  31.955  60.823  1.00  0.00    -0.279 OA
HETATM    5  N   UNL     1       7.213  31.217  61.072  1.00  0.00    -0.227 NA
HETATM    6  C   UNL     1       6.287  32.211  60.648  1.00  0.00     0.042 A 
HETATM    7  C   UNL     1       5.609  32.053  59.421  1.00  0.00     0.059 A 
HETATM    8  N   UNL     1       6.066  31.065  58.481  1.00  0.00    -0.309 N 
HETATM    9  C   UNL     1       5.139  30.288  57.749  1.00  0.00     0.298 C 
HETATM   10  O   UNL     1       3.920  30.425  57.876  1.00  0.00    -0.264 OA
HETATM   11  C   UNL     1       7.507  31.176  58.135  1.00  0.00     0.145 C 
HETATM   12  C   UNL     1       5.966  33.242  61.529  1.00  0.00     0.026 A 
HETATM   13  C   UNL     1       4.940  34.125  61.199  1.00  0.00     0.002 A 
HETATM   14  C   UNL     1       4.234  33.962  60.006  1.00  0.00     0.002 A 
HETATM   15  C   UNL     1       4.563  32.930  59.120  1.00  0.00     0.031 A 
HETATM   16  H   UNL     1       6.793  30.319  60.843  1.00  0.00     0.136 HD
ENDROOT
BRANCH   9  17
HETATM   17  C   UNL     1       5.676  29.224  56.857  1.00  0.00     0.239 A 
HETATM   18  N   UNL     1       6.215  28.088  57.333  1.00  0.00    -0.140 NA
HETATM   19  N   UNL     1       6.618  27.438  56.219  1.00  0.00    -0.225 N 
HETATM   20  C   UNL     1       6.317  28.200  55.119  1.00  0.00     0.237 A 
HETATM   21  N   UNL     1       5.735  29.321  55.479  1.00  0.00    -0.216 NA
BRANCH  19  22
HETATM   22  C   UNL     1       7.241  26.164  56.280  1.00  0.00     0.059 A 
HETATM   23  C   UNL     1       6.904  25.188  55.328  1.00  0.00     0.031 A 
HETATM   24  C   UNL     1       7.506  23.929  55.368  1.00  0.00     0.002 A 
HETATM   25  C   UNL     1       8.447  23.637  56.353  1.00  0.00     0.000 A 
HETATM   26  C   UNL     1       8.787  24.602  57.301  1.00  0.00     0.002 A 
HETATM   27  C   UNL     1       8.187  25.865  57.269  1.00  0.00     0.031 A 
ENDBRANCH  19  22
ENDBRANCH   9  17
TORSDOF 2
ENDMDL
