MODEL 1
REMARK VINA RESULT:      -8.8      0.000      0.000
REMARK  8 active torsions:
REMARK  status: ('A' for Active; 'I' for Inactive)
REMARK    1  A    between atoms: O_2  and  C_3 
REMARK    2  A    between atoms: C_6  and  C_7 
REMARK    3  A    between atoms: C_7  and  O_8 
REMARK    4  A    between atoms: C_7  and  C_9 
REMARK    5  A    between atoms: C_9  and  N_10 
REMARK    6  A    between atoms: C_11  and  N_12 
REMARK    7  A    between atoms: N_13  and  C_14 
REMARK    8  A    between atoms: C_14  and  C_15 
ROOT
HETATM    1  N   UNL     1       6.136  27.228  54.490  1.00  0.00    -0.178 N 
HETATM    2  C   UNL     1       6.394  28.141  55.422  1.00  0.00     0.681 A 
HETATM    3  N   UNL     1       7.049  27.579  56.428  1.00  0.00    -0.177 N 
HETATM    4  C   UNL     1       7.322  26.252  56.108  1.00  0.00     0.079 A 
HETATM    5  C   UNL     1       6.741  26.028  54.857  1.00  0.00     0.079 A 
HETATM    6  C   UNL     1       8.010  25.257  56.798  1.00  0.00     0.032 A 
HETATM    7  C   UNL     1       8.081  24.008  56.168  1.00  0.00     0.002 A 
HETATM    8  C   UNL     1       7.490  23.779  54.910  1.00  0.00     0.002 A 
HETATM    9  C   UNL     1       6.804  24.790  54.222  1.00  0.00     0.032 A 
ENDROOT
BRANCH   1  10
HETATM   10  C   UNL     1       5.288  27.419  53.305  1.00  0.00     0.184 C 
BRANCH  10  11
HETATM   11  C   UNL     1       6.050  27.958  52.070  1.00  0.00     0.170 C 
BRANCH  11  12
HETATM   12  C   UNL     1       5.396  27.552  50.766  1.00  0.00    -0.028 A 
HETATM   13  C   UNL     1       5.374  28.451  49.692  1.00  0.00     0.012 A 
HETATM   14  C   UNL     1       4.849  28.066  48.457  1.00  0.00     0.037 A 
HETATM   15  C   UNL     1       4.331  26.784  48.272  1.00  0.00     0.068 A 
HETATM   16  C   UNL     1       4.328  25.888  49.341  1.00  0.00     0.037 A 
HETATM   17  C   UNL     1       4.857  26.269  50.581  1.00  0.00     0.012 A 
BRANCH  15  18
HETATM   18  O   UNL     1       3.873  26.536  47.009  1.00  0.00    -0.356 OA
HETATM   19  C   UNL     1       2.808  25.603  46.875  1.00  0.00     0.210 C 
ENDBRANCH  15  18
ENDBRANCH  11  12
BRANCH  11  20
HETATM   20  O   UNL     1       6.131  29.381  52.149  1.00  0.00    -0.389 OA
HETATM   21  H   UNL     1       7.079  29.616  52.155  1.00  0.00     0.210 HD
ENDBRANCH  11  20
ENDBRANCH  10  11
ENDBRANCH   1  10
BRANCH   2  22
HETATM   22  N   UNL     1       6.061  29.429  55.357  1.00  0.00    -0.234 N 
HETATM   23  H   UNL     1       5.150  29.753  55.638  1.00  0.00     0.174 HD
HETATM   24  H   UNL     1       6.705  30.112  54.986  1.00  0.00     0.174 HD
ENDBRANCH   2  22
BRANCH   3  25
HETATM   25  C   UNL     1       7.356  28.213  57.704  1.00  0.00     0.186 C 
BRANCH  25  26
HETATM   26  C   UNL     1       8.587  29.084  57.632  1.00  0.00    -0.039 A 
HETATM   27  C   UNL     1       9.708  28.789  56.840  1.00  0.00     0.009 A 
HETATM   28  C   UNL     1      10.827  29.626  56.843  1.00  0.00     0.001 A 
HETATM   29  C   UNL     1      10.843  30.770  57.635  1.00  0.00     0.000 A 
HETATM   30  C   UNL     1       9.740  31.083  58.423  1.00  0.00     0.001 A 
HETATM   31  C   UNL     1       8.620  30.247  58.422  1.00  0.00     0.009 A 
ENDBRANCH  25  26
ENDBRANCH   3  25
TORSDOF 8
ENDMDL
MODEL 2
REMARK VINA RESULT:      -8.7      1.542      4.667
REMARK  8 active torsions:
REMARK  status: ('A' for Active; 'I' for Inactive)
REMARK    1  A    between atoms: O_2  and  C_3 
REMARK    2  A    between atoms: C_6  and  C_7 
REMARK    3  A    between atoms: C_7  and  O_8 
REMARK    4  A    between atoms: C_7  and  C_9 
REMARK    5  A    between atoms: C_9  and  N_10 
REMARK    6  A    between atoms: C_11  and  N_12 
REMARK    7  A    between atoms: N_13  and  C_14 
REMARK    8  A    between atoms: C_14  and  C_15 
ROOT
HETATM    1  N   UNL     1       5.624  27.155  54.230  1.00  0.00    -0.178 N 
HETATM    2  C   UNL     1       5.442  25.881  54.560  1.00  0.00     0.681 A 
HETATM    3  N   UNL     1       6.309  25.535  55.502  1.00  0.00    -0.177 N 
HETATM    4  C   UNL     1       7.038  26.658  55.882  1.00  0.00     0.079 A 
HETATM    5  C   UNL     1       6.593  27.703  55.068  1.00  0.00     0.079 A 
HETATM    6  C   UNL     1       8.029  26.835  56.845  1.00  0.00     0.032 A 
HETATM    7  C   UNL     1       8.563  28.126  56.948  1.00  0.00     0.002 A 
HETATM    8  C   UNL     1       8.119  29.179  56.125  1.00  0.00     0.002 A 
HETATM    9  C   UNL     1       7.118  28.990  55.161  1.00  0.00     0.032 A 
ENDROOT
BRANCH   1  10
HETATM   10  C   UNL     1       4.976  27.860  53.115  1.00  0.00     0.184 C 
BRANCH  10  11
HETATM   11  C   UNL     1       5.938  28.213  51.954  1.00  0.00     0.170 C 
BRANCH  11  12
HETATM   12  C   UNL     1       5.462  27.665  50.624  1.00  0.00    -0.028 A 
HETATM   13  C   UNL     1       4.956  26.361  50.553  1.00  0.00     0.012 A 
HETATM   14  C   UNL     1       4.437  25.867  49.356  1.00  0.00     0.037 A 
HETATM   15  C   UNL     1       4.420  26.659  48.207  1.00  0.00     0.068 A 
HETATM   16  C   UNL     1       4.941  27.951  48.261  1.00  0.00     0.037 A 
HETATM   17  C   UNL     1       5.459  28.452  49.461  1.00  0.00     0.012 A 
BRANCH  15  18
HETATM   18  O   UNL     1       3.863  26.057  47.114  1.00  0.00    -0.356 OA
HETATM   19  C   UNL     1       2.852  25.085  47.352  1.00  0.00     0.210 C 
ENDBRANCH  15  18
ENDBRANCH  11  12
BRANCH  11  20
HETATM   20  O   UNL     1       6.079  29.631  51.871  1.00  0.00    -0.389 OA
HETATM   21  H   UNL     1       5.438  29.947  51.207  1.00  0.00     0.210 HD
ENDBRANCH  11  20
ENDBRANCH  10  11
ENDBRANCH   1  10
BRANCH   2  22
HETATM   22  N   UNL     1       4.522  25.070  54.040  1.00  0.00    -0.234 N 
HETATM   23  H   UNL     1       3.906  24.528  54.625  1.00  0.00     0.174 HD
HETATM   24  H   UNL     1       4.444  24.949  53.042  1.00  0.00     0.174 HD
ENDBRANCH   2  22
BRANCH   3  25
HETATM   25  C   UNL     1       6.533  24.184  55.999  1.00  0.00     0.186 C 
BRANCH  25  26
HETATM   26  C   UNL     1       7.246  23.312  54.994  1.00  0.00    -0.039 A 
HETATM   27  C   UNL     1       7.655  23.755  53.726  1.00  0.00     0.009 A 
HETATM   28  C   UNL     1       8.286  22.885  52.833  1.00  0.00     0.001 A 
HETATM   29  C   UNL     1       8.519  21.561  53.192  1.00  0.00     0.000 A 
HETATM   30  C   UNL     1       8.125  21.104  54.446  1.00  0.00     0.001 A 
HETATM   31  C   UNL     1       7.494  21.972  55.340  1.00  0.00     0.009 A 
ENDBRANCH  25  26
ENDBRANCH   3  25
TORSDOF 8
ENDMDL
MODEL 3
REMARK VINA RESULT:      -8.7      5.091     10.309
REMARK  8 active torsions:
REMARK  status: ('A' for Active; 'I' for Inactive)
REMARK    1  A    between atoms: O_2  and  C_3 
REMARK    2  A    between atoms: C_6  and  C_7 
REMARK    3  A    between atoms: C_7  and  O_8 
REMARK    4  A    between atoms: C_7  and  C_9 
REMARK    5  A    between atoms: C_9  and  N_10 
REMARK    6  A    between atoms: C_11  and  N_12 
REMARK    7  A    between atoms: N_13  and  C_14 
REMARK    8  A    between atoms: C_14  and  C_15 
ROOT
HETATM    1  N   UNL     1       7.376  31.033  58.526  1.00  0.00    -0.178 N 
HETATM    2  C   UNL     1       6.435  30.367  57.865  1.00  0.00     0.681 A 
HETATM    3  N   UNL     1       6.985  29.686  56.869  1.00  0.00    -0.177 N 
HETATM    4  C   UNL     1       8.368  29.831  56.930  1.00  0.00     0.079 A 
HETATM    5  C   UNL     1       8.621  30.692  58.000  1.00  0.00     0.079 A 
HETATM    6  C   UNL     1       9.389  29.295  56.148  1.00  0.00     0.032 A 
HETATM    7  C   UNL     1      10.692  29.675  56.494  1.00  0.00     0.002 A 
HETATM    8  C   UNL     1      10.948  30.547  57.570  1.00  0.00     0.002 A 
HETATM    9  C   UNL     1       9.912  31.078  58.352  1.00  0.00     0.032 A 
ENDROOT
BRANCH   1  10
HETATM   10  C   UNL     1       7.151  32.026  59.585  1.00  0.00     0.184 C 
BRANCH  10  11
HETATM   11  C   UNL     1       7.973  31.768  60.872  1.00  0.00     0.170 C 
BRANCH  11  12
HETATM   12  C   UNL     1       7.474  32.583  62.047  1.00  0.00    -0.028 A 
HETATM   13  C   UNL     1       6.385  33.448  61.880  1.00  0.00     0.012 A 
HETATM   14  C   UNL     1       5.860  34.144  62.968  1.00  0.00     0.037 A 
HETATM   15  C   UNL     1       6.414  33.999  64.241  1.00  0.00     0.068 A 
HETATM   16  C   UNL     1       7.511  33.157  64.415  1.00  0.00     0.037 A 
HETATM   17  C   UNL     1       8.040  32.453  63.326  1.00  0.00     0.012 A 
BRANCH  15  18
HETATM   18  O   UNL     1       5.786  34.721  65.216  1.00  0.00    -0.356 OA
HETATM   19  C   UNL     1       4.782  34.055  65.973  1.00  0.00     0.210 C 
ENDBRANCH  15  18
ENDBRANCH  11  12
BRANCH  11  20
HETATM   20  O   UNL     1       7.928  30.378  61.191  1.00  0.00    -0.389 OA
HETATM   21  H   UNL     1       6.995  30.154  61.371  1.00  0.00     0.210 HD
ENDBRANCH  11  20
ENDBRANCH  10  11
ENDBRANCH   1  10
BRANCH   2  22
HETATM   22  N   UNL     1       5.136  30.366  58.160  1.00  0.00    -0.234 N 
HETATM   23  H   UNL     1       4.519  31.089  57.824  1.00  0.00     0.174 HD
HETATM   24  H   UNL     1       4.742  29.658  58.760  1.00  0.00     0.174 HD
ENDBRANCH   2  22
BRANCH   3  25
HETATM   25  C   UNL     1       6.262  28.975  55.822  1.00  0.00     0.186 C 
BRANCH  25  26
HETATM   26  C   UNL     1       6.303  27.478  56.011  1.00  0.00    -0.039 A 
HETATM   27  C   UNL     1       7.228  26.634  55.377  1.00  0.00     0.009 A 
HETATM   28  C   UNL     1       7.190  25.252  55.575  1.00  0.00     0.001 A 
HETATM   29  C   UNL     1       6.228  24.691  56.411  1.00  0.00     0.000 A 
HETATM   30  C   UNL     1       5.304  25.510  57.052  1.00  0.00     0.001 A 
HETATM   31  C   UNL     1       5.341  26.893  56.855  1.00  0.00     0.009 A 
ENDBRANCH  25  26
ENDBRANCH   3  25
TORSDOF 8
ENDMDL
MODEL 4
REMARK VINA RESULT:      -8.5      1.743      2.384
REMARK  8 active torsions:
REMARK  status: ('A' for Active; 'I' for Inactive)
REMARK    1  A    between atoms: O_2  and  C_3 
REMARK    2  A    between atoms: C_6  and  C_7 
REMARK    3  A    between atoms: C_7  and  O_8 
REMARK    4  A    between atoms: C_7  and  C_9 
REMARK    5  A    between atoms: C_9  and  N_10 
REMARK    6  A    between atoms: C_11  and  N_12 
REMARK    7  A    between atoms: N_13  and  C_14 
REMARK    8  A    between atoms: C_14  and  C_15 
ROOT
HETATM    1  N   UNL     1       5.692  25.102  53.292  1.00  0.00    -0.178 N 
HETATM    2  C   UNL     1       5.427  25.839  54.366  1.00  0.00     0.681 A 
HETATM    3  N   UNL     1       6.171  25.428  55.384  1.00  0.00    -0.177 N 
HETATM    4  C   UNL     1       7.038  24.434  54.941  1.00  0.00     0.079 A 
HETATM    5  C   UNL     1       6.735  24.228  53.592  1.00  0.00     0.079 A 
HETATM    6  C   UNL     1       8.033  23.715  55.598  1.00  0.00     0.032 A 
HETATM    7  C   UNL     1       8.714  22.762  54.828  1.00  0.00     0.002 A 
HETATM    8  C   UNL     1       8.405  22.550  53.471  1.00  0.00     0.002 A 
HETATM    9  C   UNL     1       7.403  23.283  52.819  1.00  0.00     0.032 A 
ENDROOT
BRANCH   1  10
HETATM   10  C   UNL     1       4.960  25.136  52.018  1.00  0.00     0.184 C 
BRANCH  10  11
HETATM   11  C   UNL     1       5.543  26.134  50.988  1.00  0.00     0.170 C 
BRANCH  11  12
HETATM   12  C   UNL     1       4.540  26.507  49.915  1.00  0.00    -0.028 A 
HETATM   13  C   UNL     1       4.169  27.847  49.750  1.00  0.00     0.012 A 
HETATM   14  C   UNL     1       3.310  28.222  48.716  1.00  0.00     0.037 A 
HETATM   15  C   UNL     1       2.801  27.268  47.833  1.00  0.00     0.068 A 
HETATM   16  C   UNL     1       3.147  25.928  48.002  1.00  0.00     0.037 A 
HETATM   17  C   UNL     1       4.011  25.548  49.037  1.00  0.00     0.012 A 
BRANCH  15  18
HETATM   18  O   UNL     1       1.993  27.777  46.856  1.00  0.00    -0.356 OA
HETATM   19  C   UNL     1       0.627  27.378  46.868  1.00  0.00     0.210 C 
ENDBRANCH  15  18
ENDBRANCH  11  12
BRANCH  11  20
HETATM   20  O   UNL     1       5.987  27.309  51.666  1.00  0.00    -0.389 OA
HETATM   21  H   UNL     1       5.727  27.217  52.602  1.00  0.00     0.210 HD
ENDBRANCH  11  20
ENDBRANCH  10  11
ENDBRANCH   1  10
BRANCH   2  22
HETATM   22  N   UNL     1       4.559  26.848  54.418  1.00  0.00    -0.234 N 
HETATM   23  H   UNL     1       4.867  27.803  54.514  1.00  0.00     0.174 HD
HETATM   24  H   UNL     1       3.565  26.677  54.400  1.00  0.00     0.174 HD
ENDBRANCH   2  22
BRANCH   3  25
HETATM   25  C   UNL     1       6.044  25.874  56.766  1.00  0.00     0.186 C 
BRANCH  25  26
HETATM   26  C   UNL     1       6.823  27.139  57.035  1.00  0.00    -0.039 A 
HETATM   27  C   UNL     1       8.224  27.216  57.007  1.00  0.00     0.009 A 
HETATM   28  C   UNL     1       8.882  28.414  57.295  1.00  0.00     0.001 A 
HETATM   29  C   UNL     1       8.151  29.554  57.615  1.00  0.00     0.000 A 
HETATM   30  C   UNL     1       6.761  29.500  57.644  1.00  0.00     0.001 A 
HETATM   31  C   UNL     1       6.101  28.303  57.356  1.00  0.00     0.009 A 
ENDBRANCH  25  26
ENDBRANCH   3  25
TORSDOF 8
ENDMDL
MODEL 5
REMARK VINA RESULT:      -8.5      3.984      5.861
REMARK  8 active torsions:
REMARK  status: ('A' for Active; 'I' for Inactive)
REMARK    1  A    between atoms: O_2  and  C_3 
REMARK    2  A    between atoms: C_6  and  C_7 
REMARK    3  A    between atoms: C_7  and  O_8 
REMARK    4  A    between atoms: C_7  and  C_9 
REMARK    5  A    between atoms: C_9  and  N_10 
REMARK    6  A    between atoms: C_11  and  N_12 
REMARK    7  A    between atoms: N_13  and  C_14 
REMARK    8  A    between atoms: C_14  and  C_15 
ROOT
HETATM    1  N   UNL     1       7.438  28.666  56.860  1.00  0.00    -0.178 N 
HETATM    2  C   UNL     1       8.438  29.298  57.468  1.00  0.00     0.681 A 
HETATM    3  N   UNL     1       7.985  30.407  58.037  1.00  0.00    -0.177 N 
HETATM    4  C   UNL     1       6.603  30.465  57.882  1.00  0.00     0.079 A 
HETATM    5  C   UNL     1       6.249  29.342  57.130  1.00  0.00     0.079 A 
HETATM    6  C   UNL     1       5.662  31.392  58.324  1.00  0.00     0.032 A 
HETATM    7  C   UNL     1       4.332  31.136  57.965  1.00  0.00     0.002 A 
HETATM    8  C   UNL     1       3.975  30.007  57.203  1.00  0.00     0.002 A 
HETATM    9  C   UNL     1       4.932  29.079  56.766  1.00  0.00     0.032 A 
ENDROOT
BRANCH   1  10
HETATM   10  C   UNL     1       7.563  27.495  55.981  1.00  0.00     0.184 C 
BRANCH  10  11
HETATM   11  C   UNL     1       7.294  26.147  56.693  1.00  0.00     0.170 C 
BRANCH  11  12
HETATM   12  C   UNL     1       7.323  24.974  55.735  1.00  0.00    -0.028 A 
HETATM   13  C   UNL     1       7.221  25.202  54.357  1.00  0.00     0.012 A 
HETATM   14  C   UNL     1       7.327  24.143  53.454  1.00  0.00     0.037 A 
HETATM   15  C   UNL     1       7.529  22.838  53.908  1.00  0.00     0.068 A 
HETATM   16  C   UNL     1       7.611  22.597  55.279  1.00  0.00     0.037 A 
HETATM   17  C   UNL     1       7.508  23.658  56.188  1.00  0.00     0.012 A 
BRANCH  15  18
HETATM   18  O   UNL     1       7.638  21.906  52.915  1.00  0.00    -0.356 OA
HETATM   19  C   UNL     1       8.156  20.631  53.275  1.00  0.00     0.210 C 
ENDBRANCH  15  18
ENDBRANCH  11  12
BRANCH  11  20
HETATM   20  O   UNL     1       8.262  25.955  57.724  1.00  0.00    -0.389 OA
HETATM   21  H   UNL     1       8.766  25.150  57.500  1.00  0.00     0.210 HD
ENDBRANCH  11  20
ENDBRANCH  10  11
ENDBRANCH   1  10
BRANCH   2  22
HETATM   22  N   UNL     1       9.703  28.882  57.514  1.00  0.00    -0.234 N 
HETATM   23  H   UNL     1       9.980  27.996  57.123  1.00  0.00     0.174 HD
HETATM   24  H   UNL     1      10.411  29.430  57.979  1.00  0.00     0.174 HD
ENDBRANCH   2  22
BRANCH   3  25
HETATM   25  C   UNL     1       8.804  31.446  58.648  1.00  0.00     0.186 C 
BRANCH  25  26
HETATM   26  C   UNL     1       8.630  31.508  60.146  1.00  0.00    -0.039 A 
HETATM   27  C   UNL     1       9.087  30.517  61.029  1.00  0.00     0.009 A 
HETATM   28  C   UNL     1       8.866  30.625  62.404  1.00  0.00     0.001 A 
HETATM   29  C   UNL     1       8.187  31.726  62.919  1.00  0.00     0.000 A 
HETATM   30  C   UNL     1       7.730  32.722  62.062  1.00  0.00     0.001 A 
HETATM   31  C   UNL     1       7.951  32.615  60.686  1.00  0.00     0.009 A 
ENDBRANCH  25  26
ENDBRANCH   3  25
TORSDOF 8
ENDMDL
MODEL 6
REMARK VINA RESULT:      -8.5      2.796      8.211
REMARK  8 active torsions:
REMARK  status: ('A' for Active; 'I' for Inactive)
REMARK    1  A    between atoms: O_2  and  C_3 
REMARK    2  A    between atoms: C_6  and  C_7 
REMARK    3  A    between atoms: C_7  and  O_8 
REMARK    4  A    between atoms: C_7  and  C_9 
REMARK    5  A    between atoms: C_9  and  N_10 
REMARK    6  A    between atoms: C_11  and  N_12 
REMARK    7  A    between atoms: N_13  and  C_14 
REMARK    8  A    between atoms: C_14  and  C_15 
ROOT
HETATM    1  N   UNL     1       7.428  27.109  54.966  1.00  0.00    -0.178 N 
HETATM    2  C   UNL     1       7.635  26.044  55.735  1.00  0.00     0.681 A 
HETATM    3  N   UNL     1       6.944  25.013  55.265  1.00  0.00    -0.177 N 
HETATM    4  C   UNL     1       6.327  25.386  54.075  1.00  0.00     0.079 A 
HETATM    5  C   UNL     1       6.643  26.732  53.878  1.00  0.00     0.079 A 
HETATM    6  C   UNL     1       5.533  24.669  53.182  1.00  0.00     0.032 A 
HETATM    7  C   UNL     1       5.060  25.382  52.072  1.00  0.00     0.002 A 
HETATM    8  C   UNL     1       5.374  26.740  51.876  1.00  0.00     0.002 A 
HETATM    9  C   UNL     1       6.177  27.450  52.780  1.00  0.00     0.032 A 
ENDROOT
BRANCH   1  10
HETATM   10  C   UNL     1       7.880  28.479  55.248  1.00  0.00     0.184 C 
BRANCH  10  11
HETATM   11  C   UNL     1       7.004  29.228  56.281  1.00  0.00     0.170 C 
BRANCH  11  12
HETATM   12  C   UNL     1       7.829  30.047  57.251  1.00  0.00    -0.028 A 
HETATM   13  C   UNL     1       7.187  30.879  58.177  1.00  0.00     0.012 A 
HETATM   14  C   UNL     1       7.926  31.579  59.132  1.00  0.00     0.037 A 
HETATM   15  C   UNL     1       9.316  31.470  59.176  1.00  0.00     0.068 A 
HETATM   16  C   UNL     1       9.967  30.662  58.245  1.00  0.00     0.037 A 
HETATM   17  C   UNL     1       9.230  29.955  57.287  1.00  0.00     0.012 A 
BRANCH  15  18
HETATM   18  O   UNL     1       9.908  32.190  60.175  1.00  0.00    -0.356 OA
HETATM   19  C   UNL     1       9.539  31.872  61.512  1.00  0.00     0.210 C 
ENDBRANCH  15  18
ENDBRANCH  11  12
BRANCH  11  20
HETATM   20  O   UNL     1       6.081  30.073  55.595  1.00  0.00    -0.389 OA
HETATM   21  H   UNL     1       6.468  30.274  54.722  1.00  0.00     0.210 HD
ENDBRANCH  11  20
ENDBRANCH  10  11
ENDBRANCH   1  10
BRANCH   2  22
HETATM   22  N   UNL     1       8.423  26.005  56.808  1.00  0.00    -0.234 N 
HETATM   23  H   UNL     1       9.007  26.785  57.061  1.00  0.00     0.174 HD
HETATM   24  H   UNL     1       8.484  25.173  57.375  1.00  0.00     0.174 HD
ENDBRANCH   2  22
BRANCH   3  25
HETATM   25  C   UNL     1       6.780  23.726  55.927  1.00  0.00     0.186 C 
BRANCH  25  26
HETATM   26  C   UNL     1       7.570  22.629  55.256  1.00  0.00    -0.039 A 
HETATM   27  C   UNL     1       8.318  22.810  54.082  1.00  0.00     0.009 A 
HETATM   28  C   UNL     1       9.003  21.742  53.497  1.00  0.00     0.001 A 
HETATM   29  C   UNL     1       8.952  20.477  54.076  1.00  0.00     0.000 A 
HETATM   30  C   UNL     1       8.219  20.277  55.242  1.00  0.00     0.001 A 
HETATM   31  C   UNL     1       7.534  21.344  55.828  1.00  0.00     0.009 A 
ENDBRANCH  25  26
ENDBRANCH   3  25
TORSDOF 8
ENDMDL
MODEL 7
REMARK VINA RESULT:      -8.4      1.276      1.514
REMARK  8 active torsions:
REMARK  status: ('A' for Active; 'I' for Inactive)
REMARK    1  A    between atoms: O_2  and  C_3 
REMARK    2  A    between atoms: C_6  and  C_7 
REMARK    3  A    between atoms: C_7  and  O_8 
REMARK    4  A    between atoms: C_7  and  C_9 
REMARK    5  A    between atoms: C_9  and  N_10 
REMARK    6  A    between atoms: C_11  and  N_12 
REMARK    7  A    between atoms: N_13  and  C_14 
REMARK    8  A    between atoms: C_14  and  C_15 
ROOT
HETATM    1  N   UNL     1       7.048  26.631  54.304  1.00  0.00    -0.178 N 
HETATM    2  C   UNL     1       7.049  27.699  55.095  1.00  0.00     0.681 A 
HETATM    3  N   UNL     1       7.393  27.343  56.326  1.00  0.00    -0.177 N 
HETATM    4  C   UNL     1       7.728  25.993  56.331  1.00  0.00     0.079 A 
HETATM    5  C   UNL     1       7.513  25.534  55.028  1.00  0.00     0.079 A 
HETATM    6  C   UNL     1       8.186  25.158  57.347  1.00  0.00     0.032 A 
HETATM    7  C   UNL     1       8.412  23.822  56.990  1.00  0.00     0.002 A 
HETATM    8  C   UNL     1       8.190  23.358  55.680  1.00  0.00     0.002 A 
HETATM    9  C   UNL     1       7.733  24.209  54.663  1.00  0.00     0.032 A 
ENDROOT
BRANCH   1  10
HETATM   10  C   UNL     1       6.563  26.582  52.918  1.00  0.00     0.184 C 
BRANCH  10  11
HETATM   11  C   UNL     1       5.056  26.906  52.769  1.00  0.00     0.170 C 
BRANCH  11  12
HETATM   12  C   UNL     1       4.671  27.214  51.337  1.00  0.00    -0.028 A 
HETATM   13  C   UNL     1       4.956  26.285  50.328  1.00  0.00     0.012 A 
HETATM   14  C   UNL     1       4.537  26.513  49.017  1.00  0.00     0.037 A 
HETATM   15  C   UNL     1       3.835  27.672  48.685  1.00  0.00     0.068 A 
HETATM   16  C   UNL     1       3.564  28.613  49.678  1.00  0.00     0.037 A 
HETATM   17  C   UNL     1       3.980  28.387  50.996  1.00  0.00     0.012 A 
BRANCH  15  18
HETATM   18  O   UNL     1       3.466  27.753  47.372  1.00  0.00    -0.356 OA
HETATM   19  C   UNL     1       2.163  28.249  47.092  1.00  0.00     0.210 C 
ENDBRANCH  15  18
ENDBRANCH  11  12
BRANCH  11  20
HETATM   20  O   UNL     1       4.286  25.806  53.253  1.00  0.00    -0.389 OA
HETATM   21  H   UNL     1       3.758  25.472  52.503  1.00  0.00     0.210 HD
ENDBRANCH  11  20
ENDBRANCH  10  11
ENDBRANCH   1  10
BRANCH   2  22
HETATM   22  N   UNL     1       6.763  28.944  54.716  1.00  0.00    -0.234 N 
HETATM   23  H   UNL     1       6.576  29.171  53.752  1.00  0.00     0.174 HD
HETATM   24  H   UNL     1       6.765  29.701  55.383  1.00  0.00     0.174 HD
ENDBRANCH   2  22
BRANCH   3  25
HETATM   25  C   UNL     1       7.344  28.199  57.504  1.00  0.00     0.186 C 
BRANCH  25  26
HETATM   26  C   UNL     1       8.524  29.136  57.585  1.00  0.00    -0.039 A 
HETATM   27  C   UNL     1       9.744  28.916  56.926  1.00  0.00     0.009 A 
HETATM   28  C   UNL     1      10.807  29.811  57.068  1.00  0.00     0.001 A 
HETATM   29  C   UNL     1      10.668  30.941  57.869  1.00  0.00     0.000 A 
HETATM   30  C   UNL     1       9.465  31.180  58.527  1.00  0.00     0.001 A 
HETATM   31  C   UNL     1       8.401  30.286  58.386  1.00  0.00     0.009 A 
ENDBRANCH  25  26
ENDBRANCH   3  25
TORSDOF 8
ENDMDL
MODEL 8
REMARK VINA RESULT:      -8.2      2.706      4.664
REMARK  8 active torsions:
REMARK  status: ('A' for Active; 'I' for Inactive)
REMARK    1  A    between atoms: O_2  and  C_3 
REMARK    2  A    between atoms: C_6  and  C_7 
REMARK    3  A    between atoms: C_7  and  O_8 
REMARK    4  A    between atoms: C_7  and  C_9 
REMARK    5  A    between atoms: C_9  and  N_10 
REMARK    6  A    between atoms: C_11  and  N_12 
REMARK    7  A    between atoms: N_13  and  C_14 
REMARK    8  A    between atoms: C_14  and  C_15 
ROOT
HETATM    1  N   UNL     1       5.998  28.393  54.628  1.00  0.00    -0.178 N 
HETATM    2  C   UNL     1       6.842  27.894  55.526  1.00  0.00     0.681 A 
HETATM    3  N   UNL     1       6.596  28.430  56.714  1.00  0.00    -0.177 N 
HETATM    4  C   UNL     1       5.476  29.250  56.620  1.00  0.00     0.079 A 
HETATM    5  C   UNL     1       5.086  29.222  55.279  1.00  0.00     0.079 A 
HETATM    6  C   UNL     1       4.796  29.999  57.578  1.00  0.00     0.032 A 
HETATM    7  C   UNL     1       3.695  30.732  57.116  1.00  0.00     0.002 A 
HETATM    8  C   UNL     1       3.304  30.709  55.764  1.00  0.00     0.002 A 
HETATM    9  C   UNL     1       3.995  29.948  54.809  1.00  0.00     0.032 A 
ENDROOT
BRANCH   1  10
HETATM   10  C   UNL     1       6.055  28.178  53.175  1.00  0.00     0.184 C 
BRANCH  10  11
HETATM   11  C   UNL     1       5.294  26.916  52.699  1.00  0.00     0.170 C 
BRANCH  11  12
HETATM   12  C   UNL     1       6.111  25.652  52.868  1.00  0.00    -0.028 A 
HETATM   13  C   UNL     1       7.205  25.416  52.025  1.00  0.00     0.012 A 
HETATM   14  C   UNL     1       8.018  24.299  52.217  1.00  0.00     0.037 A 
HETATM   15  C   UNL     1       7.754  23.394  53.245  1.00  0.00     0.068 A 
HETATM   16  C   UNL     1       6.655  23.607  54.077  1.00  0.00     0.037 A 
HETATM   17  C   UNL     1       5.838  24.729  53.890  1.00  0.00     0.012 A 
BRANCH  15  18
HETATM   18  O   UNL     1       8.644  22.361  53.331  1.00  0.00    -0.356 OA
HETATM   19  C   UNL     1       8.148  21.052  53.078  1.00  0.00     0.210 C 
ENDBRANCH  15  18
ENDBRANCH  11  12
BRANCH  11  20
HETATM   20  O   UNL     1       4.069  26.802  53.422  1.00  0.00    -0.389 OA
HETATM   21  H   UNL     1       4.132  25.998  53.972  1.00  0.00     0.210 HD
ENDBRANCH  11  20
ENDBRANCH  10  11
ENDBRANCH   1  10
BRANCH   2  22
HETATM   22  N   UNL     1       7.784  26.985  55.282  1.00  0.00    -0.234 N 
HETATM   23  H   UNL     1       8.600  26.902  55.867  1.00  0.00     0.174 HD
HETATM   24  H   UNL     1       7.723  26.380  54.477  1.00  0.00     0.174 HD
ENDBRANCH   2  22
BRANCH   3  25
HETATM   25  C   UNL     1       7.415  28.263  57.908  1.00  0.00     0.186 C 
BRANCH  25  26
HETATM   26  C   UNL     1       8.385  29.403  58.104  1.00  0.00    -0.039 A 
HETATM   27  C   UNL     1       8.193  30.444  59.026  1.00  0.00     0.009 A 
HETATM   28  C   UNL     1       9.119  31.485  59.135  1.00  0.00     0.001 A 
HETATM   29  C   UNL     1      10.251  31.501  58.326  1.00  0.00     0.000 A 
HETATM   30  C   UNL     1      10.462  30.477  57.408  1.00  0.00     0.001 A 
HETATM   31  C   UNL     1       9.538  29.435  57.298  1.00  0.00     0.009 A 
ENDBRANCH  25  26
ENDBRANCH   3  25
TORSDOF 8
ENDMDL
MODEL 9
REMARK VINA RESULT:      -8.0      3.529      6.084
REMARK  8 active torsions:
REMARK  status: ('A' for Active; 'I' for Inactive)
REMARK    1  A    between atoms: O_2  and  C_3 
REMARK    2  A    between atoms: C_6  and  C_7 
REMARK    3  A    between atoms: C_7  and  O_8 
REMARK    4  A    between atoms: C_7  and  C_9 
REMARK    5  A    between atoms: C_9  and  N_10 
REMARK    6  A    between atoms: C_11  and  N_12 
REMARK    7  A    between atoms: N_13  and  C_14 
REMARK    8  A    between atoms: C_14  and  C_15 
ROOT
HETATM    1  N   UNL     1       6.393  27.942  56.827  1.00  0.00    -0.178 N 
HETATM    2  C   UNL     1       5.182  28.489  56.861  1.00  0.00     0.681 A 
HETATM    3  N   UNL     1       5.240  29.664  57.474  1.00  0.00    -0.177 N 
HETATM    4  C   UNL     1       6.567  29.953  57.777  1.00  0.00     0.079 A 
HETATM    5  C   UNL     1       7.311  28.848  57.355  1.00  0.00     0.079 A 
HETATM    6  C   UNL     1       7.158  31.063  58.376  1.00  0.00     0.032 A 
HETATM    7  C   UNL     1       8.548  31.006  58.540  1.00  0.00     0.002 A 
HETATM    8  C   UNL     1       9.298  29.891  58.119  1.00  0.00     0.002 A 
HETATM    9  C   UNL     1       8.692  28.780  57.513  1.00  0.00     0.032 A 
ENDROOT
BRANCH   1  10
HETATM   10  C   UNL     1       6.712  26.578  56.384  1.00  0.00     0.184 C 
BRANCH  10  11
HETATM   11  C   UNL     1       7.245  26.500  54.932  1.00  0.00     0.170 C 
BRANCH  11  12
HETATM   12  C   UNL     1       7.371  25.073  54.440  1.00  0.00    -0.028 A 
HETATM   13  C   UNL     1       7.669  24.828  53.093  1.00  0.00     0.012 A 
HETATM   14  C   UNL     1       7.870  23.525  52.638  1.00  0.00     0.037 A 
HETATM   15  C   UNL     1       7.772  22.442  53.513  1.00  0.00     0.068 A 
HETATM   16  C   UNL     1       7.455  22.673  54.851  1.00  0.00     0.037 A 
HETATM   17  C   UNL     1       7.255  23.980  55.313  1.00  0.00     0.012 A 
BRANCH  15  18
HETATM   18  O   UNL     1       8.016  21.227  52.938  1.00  0.00    -0.356 OA
HETATM   19  C   UNL     1       8.576  20.216  53.768  1.00  0.00     0.210 C 
ENDBRANCH  15  18
ENDBRANCH  11  12
BRANCH  11  20
HETATM   20  O   UNL     1       6.377  27.235  54.070  1.00  0.00    -0.389 OA
HETATM   21  H   UNL     1       6.816  27.294  53.200  1.00  0.00     0.210 HD
ENDBRANCH  11  20
ENDBRANCH  10  11
ENDBRANCH   1  10
BRANCH   2  22
HETATM   22  N   UNL     1       4.075  27.954  56.348  1.00  0.00    -0.234 N 
HETATM   23  H   UNL     1       3.566  27.232  56.832  1.00  0.00     0.174 HD
HETATM   24  H   UNL     1       3.739  28.233  55.438  1.00  0.00     0.174 HD
ENDBRANCH   2  22
BRANCH   3  25
HETATM   25  C   UNL     1       4.096  30.483  57.855  1.00  0.00     0.186 C 
BRANCH  25  26
HETATM   26  C   UNL     1       3.751  31.512  56.805  1.00  0.00    -0.039 A 
HETATM   27  C   UNL     1       4.420  32.738  56.662  1.00  0.00     0.009 A 
HETATM   28  C   UNL     1       4.029  33.657  55.686  1.00  0.00     0.001 A 
HETATM   29  C   UNL     1       2.965  33.367  54.837  1.00  0.00     0.000 A 
HETATM   30  C   UNL     1       2.291  32.156  54.960  1.00  0.00     0.001 A 
HETATM   31  C   UNL     1       2.681  31.234  55.935  1.00  0.00     0.009 A 
ENDBRANCH  25  26
ENDBRANCH   3  25
TORSDOF 8
ENDMDL
MODEL 10
REMARK VINA RESULT:      -8.0      2.408      5.062
REMARK  8 active torsions:
REMARK  status: ('A' for Active; 'I' for Inactive)
REMARK    1  A    between atoms: O_2  and  C_3 
REMARK    2  A    between atoms: C_6  and  C_7 
REMARK    3  A    between atoms: C_7  and  O_8 
REMARK    4  A    between atoms: C_7  and  C_9 
REMARK    5  A    between atoms: C_9  and  N_10 
REMARK    6  A    between atoms: C_11  and  N_12 
REMARK    7  A    between atoms: N_13  and  C_14 
REMARK    8  A    between atoms: C_14  and  C_15 
ROOT
HETATM    1  N   UNL     1       5.036  26.855  53.982  1.00  0.00    -0.178 N 
HETATM    2  C   UNL     1       5.748  25.945  53.324  1.00  0.00     0.681 A 
HETATM    3  N   UNL     1       6.875  25.700  53.980  1.00  0.00    -0.177 N 
HETATM    4  C   UNL     1       6.867  26.410  55.177  1.00  0.00     0.079 A 
HETATM    5  C   UNL     1       5.680  27.148  55.182  1.00  0.00     0.079 A 
HETATM    6  C   UNL     1       7.783  26.466  56.224  1.00  0.00     0.032 A 
HETATM    7  C   UNL     1       7.450  27.315  57.288  1.00  0.00     0.002 A 
HETATM    8  C   UNL     1       6.257  28.064  57.292  1.00  0.00     0.002 A 
HETATM    9  C   UNL     1       5.340  27.996  56.233  1.00  0.00     0.032 A 
ENDROOT
BRANCH   1  10
HETATM   10  C   UNL     1       3.813  27.509  53.498  1.00  0.00     0.184 C 
BRANCH  10  11
HETATM   11  C   UNL     1       4.071  28.819  52.713  1.00  0.00     0.170 C 
BRANCH  11  12
HETATM   12  C   UNL     1       3.585  28.738  51.281  1.00  0.00    -0.028 A 
HETATM   13  C   UNL     1       4.414  28.182  50.298  1.00  0.00     0.012 A 
HETATM   14  C   UNL     1       3.954  28.024  48.991  1.00  0.00     0.037 A 
HETATM   15  C   UNL     1       2.664  28.424  48.636  1.00  0.00     0.068 A 
HETATM   16  C   UNL     1       1.839  28.998  49.602  1.00  0.00     0.037 A 
HETATM   17  C   UNL     1       2.295  29.156  50.916  1.00  0.00     0.012 A 
BRANCH  15  18
HETATM   18  O   UNL     1       2.339  28.189  47.330  1.00  0.00    -0.356 OA
HETATM   19  C   UNL     1       1.497  29.139  46.689  1.00  0.00     0.210 C 
ENDBRANCH  15  18
ENDBRANCH  11  12
BRANCH  11  20
HETATM   20  O   UNL     1       3.432  29.905  53.382  1.00  0.00    -0.389 OA
HETATM   21  H   UNL     1       3.367  29.665  54.326  1.00  0.00     0.210 HD
ENDBRANCH  11  20
ENDBRANCH  10  11
ENDBRANCH   1  10
BRANCH   2  22
HETATM   22  N   UNL     1       5.387  25.353  52.186  1.00  0.00    -0.234 N 
HETATM   23  H   UNL     1       6.071  25.022  51.525  1.00  0.00     0.174 HD
HETATM   24  H   UNL     1       4.414  25.256  51.940  1.00  0.00     0.174 HD
ENDBRANCH   2  22
BRANCH   3  25
HETATM   25  C   UNL     1       7.986  24.893  53.492  1.00  0.00     0.186 C 
BRANCH  25  26
HETATM   26  C   UNL     1       7.882  23.450  53.923  1.00  0.00    -0.039 A 
HETATM   27  C   UNL     1       7.804  23.039  55.263  1.00  0.00     0.009 A 
HETATM   28  C   UNL     1       7.738  21.683  55.593  1.00  0.00     0.001 A 
HETATM   29  C   UNL     1       7.749  20.717  54.590  1.00  0.00     0.000 A 
HETATM   30  C   UNL     1       7.822  21.105  53.256  1.00  0.00     0.001 A 
HETATM   31  C   UNL     1       7.887  22.460  52.924  1.00  0.00     0.009 A 
ENDBRANCH  25  26
ENDBRANCH   3  25
TORSDOF 8
ENDMDL
