MODEL 1
REMARK VINA RESULT:      -7.9      0.000      0.000
REMARK  4 active torsions:
REMARK  status: ('A' for Active; 'I' for Inactive)
REMARK    1  A    between atoms: C_2  and  C_3 
REMARK    2  A    between atoms: C_4  and  N_5 
REMARK       I    between atoms: N_5  and  C_6 
REMARK       I    between atoms: C_6  and  N_7 
REMARK    3  A    between atoms: C_8  and  C_9 
REMARK    4  A    between atoms: C_21  and  C_22 
ROOT
HETATM    1  N   UNL     1       6.952  31.138  59.935  1.00  0.00    -0.308 N 
HETATM    2  C   UNL     1       7.906  31.305  58.954  1.00  0.00     0.323 C 
HETATM    3  N   UNL     1       7.899  30.323  57.977  1.00  0.00    -0.325 N 
HETATM    4  C   UNL     1       7.274  29.003  58.078  1.00  0.00     0.126 C 
HETATM    5  C   UNL     1       8.356  28.082  57.490  1.00  0.00     0.032 C 
HETATM    6  C   UNL     1       8.964  28.932  56.382  1.00  0.00     0.022 C 
HETATM    7  C   UNL     1       8.996  30.311  57.017  1.00  0.00     0.128 C 
HETATM    8  O   UNL     1       8.710  32.233  58.921  1.00  0.00    -0.247 OA
HETATM    9  H   UNL     1       6.053  30.908  59.538  1.00  0.00     0.170 HD
ENDROOT
BRANCH   1  10
HETATM   10  C   UNL     1       6.937  31.936  61.109  1.00  0.00     0.049 A 
HETATM   11  C   UNL     1       6.051  33.040  61.171  1.00  0.00    -0.031 A 
HETATM   12  C   UNL     1       6.027  33.843  62.325  1.00  0.00     0.009 A 
HETATM   13  C   UNL     1       6.861  33.570  63.401  1.00  0.00     0.001 A 
HETATM   14  C   UNL     1       7.711  32.472  63.350  1.00  0.00     0.009 A 
HETATM   15  C   UNL     1       7.752  31.621  62.225  1.00  0.00    -0.031 A 
BRANCH  11  16
HETATM   16  C   UNL     1       5.140  33.444  60.032  1.00  0.00     0.036 C 
HETATM   17  C   UNL     1       3.739  32.875  60.190  1.00  0.00     0.010 C 
ENDBRANCH  11  16
BRANCH  15  18
HETATM   18  C   UNL     1       8.672  30.417  62.334  1.00  0.00     0.036 C 
HETATM   19  C   UNL     1      10.072  30.598  61.757  1.00  0.00     0.010 C 
ENDBRANCH  15  18
ENDBRANCH   1  10
BRANCH   4  20
HETATM   20  C   UNL     1       5.965  28.923  57.321  1.00  0.00     0.014 A 
HETATM   21  C   UNL     1       5.116  29.952  56.798  1.00  0.00     0.061 A 
HETATM   22  C   UNL     1       5.266  31.430  56.837  1.00  0.00     0.073 C 
HETATM   23  N   UNL     1       4.040  29.448  56.183  1.00  0.00    -0.179 NA
HETATM   24  N   UNL     1       4.188  28.127  56.277  1.00  0.00    -0.282 N 
HETATM   25  H   UNL     1       3.486  27.535  55.846  1.00  0.00     0.189 HD
HETATM   26  C   UNL     1       5.303  27.750  56.967  1.00  0.00     0.034 A 
HETATM   27  C   UNL     1       5.621  26.316  57.173  1.00  0.00     0.070 C 
ENDBRANCH   4  20
TORSDOF 4
ENDMDL
MODEL 2
REMARK VINA RESULT:      -7.8      0.130      2.634
REMARK  4 active torsions:
REMARK  status: ('A' for Active; 'I' for Inactive)
REMARK    1  A    between atoms: C_2  and  C_3 
REMARK    2  A    between atoms: C_4  and  N_5 
REMARK       I    between atoms: N_5  and  C_6 
REMARK       I    between atoms: C_6  and  N_7 
REMARK    3  A    between atoms: C_8  and  C_9 
REMARK    4  A    between atoms: C_21  and  C_22 
ROOT
HETATM    1  N   UNL     1       6.973  31.097  59.934  1.00  0.00    -0.308 N 
HETATM    2  C   UNL     1       7.903  31.289  58.935  1.00  0.00     0.323 C 
HETATM    3  N   UNL     1       7.900  30.309  57.955  1.00  0.00    -0.325 N 
HETATM    4  C   UNL     1       7.308  28.975  58.065  1.00  0.00     0.126 C 
HETATM    5  C   UNL     1       8.399  28.081  57.453  1.00  0.00     0.032 C 
HETATM    6  C   UNL     1       8.965  28.948  56.336  1.00  0.00     0.022 C 
HETATM    7  C   UNL     1       8.978  30.326  56.974  1.00  0.00     0.128 C 
HETATM    8  O   UNL     1       8.685  32.236  58.889  1.00  0.00    -0.247 OA
HETATM    9  H   UNL     1       6.072  30.848  59.554  1.00  0.00     0.170 HD
ENDROOT
BRANCH   1  10
HETATM   10  C   UNL     1       6.963  31.892  61.111  1.00  0.00     0.049 A 
HETATM   11  C   UNL     1       7.868  31.577  62.154  1.00  0.00    -0.031 A 
HETATM   12  C   UNL     1       7.868  32.351  63.327  1.00  0.00     0.009 A 
HETATM   13  C   UNL     1       6.991  33.417  63.478  1.00  0.00     0.001 A 
HETATM   14  C   UNL     1       6.121  33.742  62.444  1.00  0.00     0.009 A 
HETATM   15  C   UNL     1       6.102  33.011  61.237  1.00  0.00    -0.031 A 
BRANCH  11  16
HETATM   16  C   UNL     1       8.827  30.406  62.101  1.00  0.00     0.036 C 
HETATM   17  C   UNL     1      10.223  30.830  61.672  1.00  0.00     0.010 C 
ENDBRANCH  11  16
BRANCH  15  18
HETATM   18  C   UNL     1       5.154  33.520  60.165  1.00  0.00     0.036 C 
HETATM   19  C   UNL     1       3.773  32.875  60.140  1.00  0.00     0.010 C 
ENDBRANCH  15  18
ENDBRANCH   1  10
BRANCH   4  20
HETATM   20  C   UNL     1       5.986  28.867  57.334  1.00  0.00     0.014 A 
HETATM   21  C   UNL     1       5.098  29.877  56.841  1.00  0.00     0.061 A 
HETATM   22  C   UNL     1       5.206  31.358  56.896  1.00  0.00     0.073 C 
HETATM   23  N   UNL     1       4.024  29.350  56.242  1.00  0.00    -0.179 NA
HETATM   24  N   UNL     1       4.212  28.033  56.317  1.00  0.00    -0.282 N 
HETATM   25  H   UNL     1       3.518  27.426  55.892  1.00  0.00     0.189 HD
HETATM   26  C   UNL     1       5.351  27.679  56.978  1.00  0.00     0.034 A 
HETATM   27  C   UNL     1       5.713  26.252  57.160  1.00  0.00     0.070 C 
ENDBRANCH   4  20
TORSDOF 4
ENDMDL
MODEL 3
REMARK VINA RESULT:      -7.6      6.874      9.516
REMARK  4 active torsions:
REMARK  status: ('A' for Active; 'I' for Inactive)
REMARK    1  A    between atoms: C_2  and  C_3 
REMARK    2  A    between atoms: C_4  and  N_5 
REMARK       I    between atoms: N_5  and  C_6 
REMARK       I    between atoms: C_6  and  N_7 
REMARK    3  A    between atoms: C_8  and  C_9 
REMARK    4  A    between atoms: C_21  and  C_22 
ROOT
HETATM    1  N   UNL     1       5.055  27.262  51.626  1.00  0.00    -0.308 N 
HETATM    2  C   UNL     1       5.437  28.414  50.971  1.00  0.00     0.323 C 
HETATM    3  N   UNL     1       5.057  28.467  49.640  1.00  0.00    -0.325 N 
HETATM    4  C   UNL     1       4.651  27.333  48.807  1.00  0.00     0.126 C 
HETATM    5  C   UNL     1       5.409  27.600  47.497  1.00  0.00     0.032 C 
HETATM    6  C   UNL     1       5.374  29.118  47.384  1.00  0.00     0.022 C 
HETATM    7  C   UNL     1       5.589  29.552  48.824  1.00  0.00     0.128 C 
HETATM    8  O   UNL     1       6.063  29.333  51.494  1.00  0.00    -0.247 OA
HETATM    9  H   UNL     1       4.095  27.027  51.425  1.00  0.00     0.170 HD
ENDROOT
BRANCH   1  10
HETATM   10  C   UNL     1       5.520  26.954  52.931  1.00  0.00     0.049 A 
HETATM   11  C   UNL     1       4.865  27.537  54.044  1.00  0.00    -0.031 A 
HETATM   12  C   UNL     1       5.315  27.245  55.343  1.00  0.00     0.009 A 
HETATM   13  C   UNL     1       6.394  26.397  55.549  1.00  0.00     0.001 A 
HETATM   14  C   UNL     1       7.022  25.805  54.460  1.00  0.00     0.009 A 
HETATM   15  C   UNL     1       6.589  26.045  53.138  1.00  0.00    -0.031 A 
BRANCH  11  16
HETATM   16  C   UNL     1       3.712  28.510  53.917  1.00  0.00     0.036 C 
HETATM   17  C   UNL     1       4.105  29.919  54.335  1.00  0.00     0.010 C 
ENDBRANCH  11  16
BRANCH  15  18
HETATM   18  C   UNL     1       7.316  25.276  52.049  1.00  0.00     0.036 C 
HETATM   19  C   UNL     1       7.959  23.963  52.480  1.00  0.00     0.010 C 
ENDBRANCH  15  18
ENDBRANCH   1  10
BRANCH   4  20
HETATM   20  C   UNL     1       3.151  27.267  48.612  1.00  0.00     0.014 A 
HETATM   21  C   UNL     1       2.107  28.154  49.032  1.00  0.00     0.061 A 
HETATM   22  C   UNL     1       2.181  29.427  49.795  1.00  0.00     0.073 C 
HETATM   23  N   UNL     1       0.900  27.725  48.644  1.00  0.00    -0.179 NA
HETATM   24  N   UNL     1       1.145  26.603  47.969  1.00  0.00    -0.282 N 
HETATM   25  H   UNL     1       0.359  26.114  47.553  1.00  0.00     0.189 HD
HETATM   26  C   UNL     1       2.465  26.262  47.935  1.00  0.00     0.034 A 
HETATM   27  C   UNL     1       2.916  25.037  47.230  1.00  0.00     0.070 C 
ENDBRANCH   4  20
TORSDOF 4
ENDMDL
MODEL 4
REMARK VINA RESULT:      -7.6      5.264      8.215
REMARK  4 active torsions:
REMARK  status: ('A' for Active; 'I' for Inactive)
REMARK    1  A    between atoms: C_2  and  C_3 
REMARK    2  A    between atoms: C_4  and  N_5 
REMARK       I    between atoms: N_5  and  C_6 
REMARK       I    between atoms: C_6  and  N_7 
REMARK    3  A    between atoms: C_8  and  C_9 
REMARK    4  A    between atoms: C_21  and  C_22 
ROOT
HETATM    1  N   UNL     1       6.600  26.403  54.389  1.00  0.00    -0.308 N 
HETATM    2  C   UNL     1       5.362  26.932  54.684  1.00  0.00     0.323 C 
HETATM    3  N   UNL     1       4.831  27.735  53.687  1.00  0.00    -0.325 N 
HETATM    4  C   UNL     1       5.569  28.348  52.582  1.00  0.00     0.126 C 
HETATM    5  C   UNL     1       4.999  29.776  52.559  1.00  0.00     0.032 C 
HETATM    6  C   UNL     1       3.536  29.566  52.925  1.00  0.00     0.022 C 
HETATM    7  C   UNL     1       3.623  28.491  53.995  1.00  0.00     0.128 C 
HETATM    8  O   UNL     1       4.755  26.731  55.733  1.00  0.00    -0.247 OA
HETATM    9  H   UNL     1       6.626  26.029  53.452  1.00  0.00     0.170 HD
ENDROOT
BRANCH   1  10
HETATM   10  C   UNL     1       7.373  25.718  55.363  1.00  0.00     0.049 A 
HETATM   11  C   UNL     1       7.609  24.331  55.194  1.00  0.00    -0.031 A 
HETATM   12  C   UNL     1       8.368  23.637  56.152  1.00  0.00     0.009 A 
HETATM   13  C   UNL     1       8.888  24.292  57.260  1.00  0.00     0.001 A 
HETATM   14  C   UNL     1       8.680  25.658  57.412  1.00  0.00     0.009 A 
HETATM   15  C   UNL     1       7.946  26.403  56.464  1.00  0.00    -0.031 A 
BRANCH  11  16
HETATM   16  C   UNL     1       7.043  23.523  54.046  1.00  0.00     0.036 C 
HETATM   17  C   UNL     1       8.019  23.424  52.883  1.00  0.00     0.010 C 
ENDBRANCH  11  16
BRANCH  15  18
HETATM   18  C   UNL     1       7.859  27.898  56.717  1.00  0.00     0.036 C 
HETATM   19  C   UNL     1       9.169  28.588  57.079  1.00  0.00     0.010 C 
ENDBRANCH  15  18
ENDBRANCH   1  10
BRANCH   4  20
HETATM   20  C   UNL     1       5.365  27.617  51.273  1.00  0.00     0.014 A 
HETATM   21  C   UNL     1       5.024  26.251  51.001  1.00  0.00     0.061 A 
HETATM   22  C   UNL     1       4.761  25.125  51.934  1.00  0.00     0.073 C 
HETATM   23  N   UNL     1       4.934  26.010  49.688  1.00  0.00    -0.179 NA
HETATM   24  N   UNL     1       5.184  27.186  49.114  1.00  0.00    -0.282 N 
HETATM   25  H   UNL     1       5.142  27.243  48.101  1.00  0.00     0.189 HD
HETATM   26  C   UNL     1       5.473  28.179  50.004  1.00  0.00     0.034 A 
HETATM   27  C   UNL     1       5.784  29.552  49.536  1.00  0.00     0.070 C 
ENDBRANCH   4  20
TORSDOF 4
ENDMDL
MODEL 5
REMARK VINA RESULT:      -7.5      6.855      9.761
REMARK  4 active torsions:
REMARK  status: ('A' for Active; 'I' for Inactive)
REMARK    1  A    between atoms: C_2  and  C_3 
REMARK    2  A    between atoms: C_4  and  N_5 
REMARK       I    between atoms: N_5  and  C_6 
REMARK       I    between atoms: C_6  and  N_7 
REMARK    3  A    between atoms: C_8  and  C_9 
REMARK    4  A    between atoms: C_21  and  C_22 
ROOT
HETATM    1  N   UNL     1       5.004  27.201  51.665  1.00  0.00    -0.308 N 
HETATM    2  C   UNL     1       5.414  28.348  51.020  1.00  0.00     0.323 C 
HETATM    3  N   UNL     1       5.057  28.410  49.682  1.00  0.00    -0.325 N 
HETATM    4  C   UNL     1       4.648  27.284  48.841  1.00  0.00     0.126 C 
HETATM    5  C   UNL     1       5.432  27.542  47.544  1.00  0.00     0.032 C 
HETATM    6  C   UNL     1       5.422  29.061  47.434  1.00  0.00     0.022 C 
HETATM    7  C   UNL     1       5.619  29.488  48.878  1.00  0.00     0.128 C 
HETATM    8  O   UNL     1       6.045  29.256  51.555  1.00  0.00    -0.247 OA
HETATM    9  H   UNL     1       4.044  26.980  51.448  1.00  0.00     0.170 HD
ENDROOT
BRANCH   1  10
HETATM   10  C   UNL     1       5.442  26.882  52.977  1.00  0.00     0.049 A 
HETATM   11  C   UNL     1       6.508  25.963  53.136  1.00  0.00    -0.031 A 
HETATM   12  C   UNL     1       6.951  25.634  54.429  1.00  0.00     0.009 A 
HETATM   13  C   UNL     1       6.356  26.195  55.551  1.00  0.00     0.001 A 
HETATM   14  C   UNL     1       5.327  27.116  55.395  1.00  0.00     0.009 A 
HETATM   15  C   UNL     1       4.866  27.499  54.117  1.00  0.00    -0.031 A 
BRANCH  11  16
HETATM   16  C   UNL     1       7.187  25.264  51.977  1.00  0.00     0.036 C 
HETATM   17  C   UNL     1       7.981  24.049  52.429  1.00  0.00     0.010 C 
ENDBRANCH  11  16
BRANCH  15  18
HETATM   18  C   UNL     1       3.788  28.569  54.091  1.00  0.00     0.036 C 
HETATM   19  C   UNL     1       4.230  29.967  54.508  1.00  0.00     0.010 C 
ENDBRANCH  15  18
ENDBRANCH   1  10
BRANCH   4  20
HETATM   20  C   UNL     1       3.151  27.241  48.620  1.00  0.00     0.014 A 
HETATM   21  C   UNL     1       2.116  28.154  49.006  1.00  0.00     0.061 A 
HETATM   22  C   UNL     1       2.200  29.439  49.747  1.00  0.00     0.073 C 
HETATM   23  N   UNL     1       0.909  27.740  48.604  1.00  0.00    -0.179 NA
HETATM   24  N   UNL     1       1.145  26.601  47.953  1.00  0.00    -0.282 N 
HETATM   25  H   UNL     1       0.357  26.119  47.532  1.00  0.00     0.189 HD
HETATM   26  C   UNL     1       2.459  26.236  47.948  1.00  0.00     0.034 A 
HETATM   27  C   UNL     1       2.899  24.991  47.273  1.00  0.00     0.070 C 
ENDBRANCH   4  20
TORSDOF 4
ENDMDL
MODEL 6
REMARK VINA RESULT:      -7.3      5.266      8.210
REMARK  4 active torsions:
REMARK  status: ('A' for Active; 'I' for Inactive)
REMARK    1  A    between atoms: C_2  and  C_3 
REMARK    2  A    between atoms: C_4  and  N_5 
REMARK       I    between atoms: N_5  and  C_6 
REMARK       I    between atoms: C_6  and  N_7 
REMARK    3  A    between atoms: C_8  and  C_9 
REMARK    4  A    between atoms: C_21  and  C_22 
ROOT
HETATM    1  N   UNL     1       6.643  26.394  54.356  1.00  0.00    -0.308 N 
HETATM    2  C   UNL     1       5.392  26.877  54.673  1.00  0.00     0.323 C 
HETATM    3  N   UNL     1       4.839  27.708  53.713  1.00  0.00    -0.325 N 
HETATM    4  C   UNL     1       5.560  28.389  52.635  1.00  0.00     0.126 C 
HETATM    5  C   UNL     1       4.952  29.800  52.675  1.00  0.00     0.032 C 
HETATM    6  C   UNL     1       3.495  29.536  53.030  1.00  0.00     0.022 C 
HETATM    7  C   UNL     1       3.612  28.418  54.052  1.00  0.00     0.128 C 
HETATM    8  O   UNL     1       4.791  26.613  55.712  1.00  0.00    -0.247 OA
HETATM    9  H   UNL     1       6.678  26.062  53.404  1.00  0.00     0.170 HD
ENDROOT
BRANCH   1  10
HETATM   10  C   UNL     1       7.435  25.688  55.299  1.00  0.00     0.049 A 
HETATM   11  C   UNL     1       7.947  26.388  56.419  1.00  0.00    -0.031 A 
HETATM   12  C   UNL     1       8.736  25.704  57.360  1.00  0.00     0.009 A 
HETATM   13  C   UNL     1       9.023  24.355  57.204  1.00  0.00     0.001 A 
HETATM   14  C   UNL     1       8.499  23.662  56.119  1.00  0.00     0.009 A 
HETATM   15  C   UNL     1       7.680  24.298  55.163  1.00  0.00    -0.031 A 
BRANCH  11  16
HETATM   16  C   UNL     1       7.729  27.868  56.649  1.00  0.00     0.036 C 
HETATM   17  C   UNL     1       9.018  28.584  57.024  1.00  0.00     0.010 C 
ENDBRANCH  11  16
BRANCH  15  18
HETATM   18  C   UNL     1       7.116  23.406  54.070  1.00  0.00     0.036 C 
HETATM   19  C   UNL     1       8.107  22.445  53.421  1.00  0.00     0.010 C 
ENDBRANCH  15  18
ENDBRANCH   1  10
BRANCH   4  20
HETATM   20  C   UNL     1       5.374  27.710  51.295  1.00  0.00     0.014 A 
HETATM   21  C   UNL     1       5.070  26.349  50.963  1.00  0.00     0.061 A 
HETATM   22  C   UNL     1       4.840  25.176  51.846  1.00  0.00     0.073 C 
HETATM   23  N   UNL     1       4.985  26.164  49.641  1.00  0.00    -0.179 NA
HETATM   24  N   UNL     1       5.202  27.370  49.119  1.00  0.00    -0.282 N 
HETATM   25  H   UNL     1       5.156  27.470  48.110  1.00  0.00     0.189 HD
HETATM   26  C   UNL     1       5.465  28.330  50.052  1.00  0.00     0.034 A 
HETATM   27  C   UNL     1       5.736  29.731  49.645  1.00  0.00     0.070 C 
ENDBRANCH   4  20
TORSDOF 4
ENDMDL
MODEL 7
REMARK VINA RESULT:      -7.2      6.408      9.218
REMARK  4 active torsions:
REMARK  status: ('A' for Active; 'I' for Inactive)
REMARK    1  A    between atoms: C_2  and  C_3 
REMARK    2  A    between atoms: C_4  and  N_5 
REMARK       I    between atoms: N_5  and  C_6 
REMARK       I    between atoms: C_6  and  N_7 
REMARK    3  A    between atoms: C_8  and  C_9 
REMARK    4  A    between atoms: C_21  and  C_22 
ROOT
HETATM    1  N   UNL     1       6.258  38.151  63.614  1.00  0.00    -0.308 N 
HETATM    2  C   UNL     1       5.017  37.773  63.150  1.00  0.00     0.323 C 
HETATM    3  N   UNL     1       4.816  36.403  63.104  1.00  0.00    -0.325 N 
HETATM    4  C   UNL     1       5.855  35.372  63.135  1.00  0.00     0.126 C 
HETATM    5  C   UNL     1       5.389  34.403  62.036  1.00  0.00     0.032 C 
HETATM    6  C   UNL     1       3.872  34.443  62.165  1.00  0.00     0.022 C 
HETATM    7  C   UNL     1       3.612  35.914  62.442  1.00  0.00     0.128 C 
HETATM    8  O   UNL     1       4.141  38.559  62.796  1.00  0.00    -0.247 OA
HETATM    9  H   UNL     1       6.514  37.633  64.442  1.00  0.00     0.170 HD
ENDROOT
BRANCH   1  10
HETATM   10  C   UNL     1       6.705  39.497  63.549  1.00  0.00     0.049 A 
HETATM   11  C   UNL     1       7.231  39.982  62.327  1.00  0.00    -0.031 A 
HETATM   12  C   UNL     1       7.681  41.311  62.247  1.00  0.00     0.009 A 
HETATM   13  C   UNL     1       7.619  42.152  63.350  1.00  0.00     0.001 A 
HETATM   14  C   UNL     1       7.079  41.684  64.542  1.00  0.00     0.009 A 
HETATM   15  C   UNL     1       6.589  40.366  64.663  1.00  0.00    -0.031 A 
BRANCH  11  16
HETATM   16  C   UNL     1       7.384  39.128  61.086  1.00  0.00     0.036 C 
HETATM   17  C   UNL     1       6.321  39.440  60.044  1.00  0.00     0.010 C 
ENDBRANCH  11  16
BRANCH  15  18
HETATM   18  C   UNL     1       5.959  40.011  65.998  1.00  0.00     0.036 C 
HETATM   19  C   UNL     1       6.069  41.072  67.088  1.00  0.00     0.010 C 
ENDBRANCH  15  18
ENDBRANCH   1  10
BRANCH   4  20
HETATM   20  C   UNL     1       5.970  34.707  64.490  1.00  0.00     0.014 A 
HETATM   21  C   UNL     1       5.248  34.924  65.709  1.00  0.00     0.061 A 
HETATM   22  C   UNL     1       4.151  35.878  66.017  1.00  0.00     0.073 C 
HETATM   23  N   UNL     1       5.661  34.109  66.687  1.00  0.00    -0.179 NA
HETATM   24  N   UNL     1       6.609  33.363  66.122  1.00  0.00    -0.282 N 
HETATM   25  H   UNL     1       7.051  32.643  66.686  1.00  0.00     0.189 HD
HETATM   26  C   UNL     1       6.858  33.687  64.821  1.00  0.00     0.034 A 
HETATM   27  C   UNL     1       7.888  32.960  64.040  1.00  0.00     0.070 C 
ENDBRANCH   4  20
TORSDOF 4
ENDMDL
MODEL 8
REMARK VINA RESULT:      -7.0      4.090      6.697
REMARK  4 active torsions:
REMARK  status: ('A' for Active; 'I' for Inactive)
REMARK    1  A    between atoms: C_2  and  C_3 
REMARK    2  A    between atoms: C_4  and  N_5 
REMARK       I    between atoms: N_5  and  C_6 
REMARK       I    between atoms: C_6  and  N_7 
REMARK    3  A    between atoms: C_8  and  C_9 
REMARK    4  A    between atoms: C_21  and  C_22 
ROOT
HETATM    1  N   UNL     1       5.264  34.584  61.434  1.00  0.00    -0.308 N 
HETATM    2  C   UNL     1       3.950  34.194  61.289  1.00  0.00     0.323 C 
HETATM    3  N   UNL     1       3.261  34.867  60.293  1.00  0.00    -0.325 N 
HETATM    4  C   UNL     1       3.650  36.135  59.674  1.00  0.00     0.126 C 
HETATM    5  C   UNL     1       2.319  36.903  59.637  1.00  0.00     0.032 C 
HETATM    6  C   UNL     1       1.299  35.808  59.357  1.00  0.00     0.022 C 
HETATM    7  C   UNL     1       1.821  34.660  60.204  1.00  0.00     0.128 C 
HETATM    8  O   UNL     1       3.406  33.328  61.969  1.00  0.00    -0.247 OA
HETATM    9  H   UNL     1       5.727  34.656  60.541  1.00  0.00     0.170 HD
ENDROOT
BRANCH   1  10
HETATM   10  C   UNL     1       6.061  34.142  62.523  1.00  0.00     0.049 A 
HETATM   11  C   UNL     1       6.979  33.084  62.310  1.00  0.00    -0.031 A 
HETATM   12  C   UNL     1       7.772  32.631  63.378  1.00  0.00     0.009 A 
HETATM   13  C   UNL     1       7.666  33.204  64.638  1.00  0.00     0.001 A 
HETATM   14  C   UNL     1       6.784  34.259  64.841  1.00  0.00     0.009 A 
HETATM   15  C   UNL     1       5.986  34.766  63.793  1.00  0.00    -0.031 A 
BRANCH  11  16
HETATM   16  C   UNL     1       7.131  32.365  60.986  1.00  0.00     0.036 C 
HETATM   17  C   UNL     1       8.551  32.456  60.447  1.00  0.00     0.010 C 
ENDBRANCH  11  16
BRANCH  15  18
HETATM   18  C   UNL     1       5.122  35.967  64.137  1.00  0.00     0.036 C 
HETATM   19  C   UNL     1       3.889  35.678  64.985  1.00  0.00     0.010 C 
ENDBRANCH  15  18
ENDBRANCH   1  10
BRANCH   4  20
HETATM   20  C   UNL     1       4.254  35.947  58.299  1.00  0.00     0.014 A 
HETATM   21  C   UNL     1       4.545  34.758  57.553  1.00  0.00     0.061 A 
HETATM   22  C   UNL     1       4.336  33.330  57.907  1.00  0.00     0.073 C 
HETATM   23  N   UNL     1       5.079  35.035  56.358  1.00  0.00    -0.179 NA
HETATM   24  N   UNL     1       5.116  36.366  56.308  1.00  0.00    -0.282 N 
HETATM   25  H   UNL     1       5.467  36.804  55.462  1.00  0.00     0.189 HD
HETATM   26  C   UNL     1       4.662  36.969  57.445  1.00  0.00     0.034 A 
HETATM   27  C   UNL     1       4.639  38.447  57.564  1.00  0.00     0.070 C 
ENDBRANCH   4  20
TORSDOF 4
ENDMDL
MODEL 9
REMARK VINA RESULT:      -6.9      4.168      6.498
REMARK  4 active torsions:
REMARK  status: ('A' for Active; 'I' for Inactive)
REMARK    1  A    between atoms: C_2  and  C_3 
REMARK    2  A    between atoms: C_4  and  N_5 
REMARK       I    between atoms: N_5  and  C_6 
REMARK       I    between atoms: C_6  and  N_7 
REMARK    3  A    between atoms: C_8  and  C_9 
REMARK    4  A    between atoms: C_21  and  C_22 
ROOT
HETATM    1  N   UNL     1       5.251  34.657  61.436  1.00  0.00    -0.308 N 
HETATM    2  C   UNL     1       3.958  34.219  61.250  1.00  0.00     0.323 C 
HETATM    3  N   UNL     1       3.257  34.904  60.270  1.00  0.00    -0.325 N 
HETATM    4  C   UNL     1       3.602  36.214  59.713  1.00  0.00     0.126 C 
HETATM    5  C   UNL     1       2.240  36.926  59.684  1.00  0.00     0.032 C 
HETATM    6  C   UNL     1       1.273  35.802  59.339  1.00  0.00     0.022 C 
HETATM    7  C   UNL     1       1.829  34.641  60.146  1.00  0.00     0.128 C 
HETATM    8  O   UNL     1       3.439  33.303  61.883  1.00  0.00    -0.247 OA
HETATM    9  H   UNL     1       5.726  34.787  60.555  1.00  0.00     0.170 HD
ENDROOT
BRANCH   1  10
HETATM   10  C   UNL     1       6.048  34.202  62.519  1.00  0.00     0.049 A 
HETATM   11  C   UNL     1       5.890  34.815  63.787  1.00  0.00    -0.031 A 
HETATM   12  C   UNL     1       6.674  34.379  64.869  1.00  0.00     0.009 A 
HETATM   13  C   UNL     1       7.601  33.358  64.711  1.00  0.00     0.001 A 
HETATM   14  C   UNL     1       7.738  32.738  63.475  1.00  0.00     0.009 A 
HETATM   15  C   UNL     1       6.955  33.123  62.365  1.00  0.00    -0.031 A 
BRANCH  11  16
HETATM   16  C   UNL     1       4.941  35.966  64.044  1.00  0.00     0.036 C 
HETATM   17  C   UNL     1       3.873  35.608  65.067  1.00  0.00     0.010 C 
ENDBRANCH  11  16
BRANCH  15  18
HETATM   18  C   UNL     1       7.155  32.313  61.096  1.00  0.00     0.036 C 
HETATM   19  C   UNL     1       8.527  32.433  60.442  1.00  0.00     0.010 C 
ENDBRANCH  15  18
ENDBRANCH   1  10
BRANCH   4  20
HETATM   20  C   UNL     1       4.237  36.110  58.343  1.00  0.00     0.014 A 
HETATM   21  C   UNL     1       4.573  34.968  57.545  1.00  0.00     0.061 A 
HETATM   22  C   UNL     1       4.396  33.519  57.824  1.00  0.00     0.073 C 
HETATM   23  N   UNL     1       5.122  35.318  56.376  1.00  0.00    -0.179 NA
HETATM   24  N   UNL     1       5.125  36.650  56.393  1.00  0.00    -0.282 N 
HETATM   25  H   UNL     1       5.479  37.139  55.577  1.00  0.00     0.189 HD
HETATM   26  C   UNL     1       4.633  37.183  57.549  1.00  0.00     0.034 A 
HETATM   27  C   UNL     1       4.568  38.653  57.741  1.00  0.00     0.070 C 
ENDBRANCH   4  20
TORSDOF 4
ENDMDL
MODEL 10
REMARK VINA RESULT:      -6.7      2.416      4.943
REMARK  4 active torsions:
REMARK  status: ('A' for Active; 'I' for Inactive)
REMARK    1  A    between atoms: C_2  and  C_3 
REMARK    2  A    between atoms: C_4  and  N_5 
REMARK       I    between atoms: N_5  and  C_6 
REMARK       I    between atoms: C_6  and  N_7 
REMARK    3  A    between atoms: C_8  and  C_9 
REMARK    4  A    between atoms: C_21  and  C_22 
ROOT
HETATM    1  N   UNL     1       5.464  33.465  60.976  1.00  0.00    -0.308 N 
HETATM    2  C   UNL     1       4.417  32.709  60.493  1.00  0.00     0.323 C 
HETATM    3  N   UNL     1       4.721  31.968  59.363  1.00  0.00    -0.325 N 
HETATM    4  C   UNL     1       5.856  32.183  58.463  1.00  0.00     0.126 C 
HETATM    5  C   UNL     1       5.206  32.045  57.077  1.00  0.00     0.032 C 
HETATM    6  C   UNL     1       4.163  30.957  57.295  1.00  0.00     0.022 C 
HETATM    7  C   UNL     1       3.625  31.299  58.673  1.00  0.00     0.128 C 
HETATM    8  O   UNL     1       3.297  32.676  60.997  1.00  0.00    -0.247 OA
HETATM    9  H   UNL     1       6.319  32.929  61.009  1.00  0.00     0.170 HD
ENDROOT
BRANCH   1  10
HETATM   10  C   UNL     1       5.282  34.425  62.006  1.00  0.00     0.049 A 
HETATM   11  C   UNL     1       5.740  34.121  63.311  1.00  0.00    -0.031 A 
HETATM   12  C   UNL     1       5.563  35.059  64.343  1.00  0.00     0.009 A 
HETATM   13  C   UNL     1       4.944  36.278  64.099  1.00  0.00     0.001 A 
HETATM   14  C   UNL     1       4.519  36.588  62.813  1.00  0.00     0.009 A 
HETATM   15  C   UNL     1       4.698  35.690  61.739  1.00  0.00    -0.031 A 
BRANCH  11  16
HETATM   16  C   UNL     1       6.381  32.801  63.684  1.00  0.00     0.036 C 
HETATM   17  C   UNL     1       7.870  32.947  63.958  1.00  0.00     0.010 C 
ENDBRANCH  11  16
BRANCH  15  18
HETATM   18  C   UNL     1       4.253  36.186  60.375  1.00  0.00     0.036 C 
HETATM   19  C   UNL     1       4.542  37.653  60.075  1.00  0.00     0.010 C 
ENDBRANCH  15  18
ENDBRANCH   1  10
BRANCH   4  20
HETATM   20  C   UNL     1       6.970  31.184  58.688  1.00  0.00     0.014 A 
HETATM   21  C   UNL     1       7.158  29.854  58.187  1.00  0.00     0.061 A 
HETATM   22  C   UNL     1       6.304  29.043  57.281  1.00  0.00     0.073 C 
HETATM   23  N   UNL     1       8.296  29.308  58.630  1.00  0.00    -0.179 NA
HETATM   24  N   UNL     1       8.853  30.258  59.380  1.00  0.00    -0.282 N 
HETATM   25  H   UNL     1       9.756  30.066  59.803  1.00  0.00     0.189 HD
HETATM   26  C   UNL     1       8.100  31.392  59.475  1.00  0.00     0.034 A 
HETATM   27  C   UNL     1       8.567  32.549  60.277  1.00  0.00     0.070 C 
ENDBRANCH   4  20
TORSDOF 4
ENDMDL
