MODEL 1
REMARK VINA RESULT:     -10.8      0.000      0.000
REMARK  7 active torsions:
REMARK  status: ('A' for Active; 'I' for Inactive)
REMARK    1  A    between atoms: C_3  and  O_4 
REMARK    2  A    between atoms: C_8  and  C_9 
REMARK    3  A    between atoms: C_9  and  N_10 
REMARK    4  A    between atoms: C_15  and  O_16 
REMARK    5  A    between atoms: C_18  and  N_19 
REMARK       I    between atoms: N_19  and  C_20 
REMARK    6  A    between atoms: C_20  and  C_21 
REMARK    7  A    between atoms: C_21  and  C_22 
ROOT
HETATM    1  N   UNL     1       8.099  26.083  55.652  1.00  0.00    -0.067 N 
HETATM    2  H   UNL     1       8.985  25.574  55.544  1.00  0.00     0.280 HD
HETATM    3  C   UNL     1       8.322  27.409  54.959  1.00  0.00     0.236 C 
HETATM    4  C   UNL     1       7.179  28.377  55.248  1.00  0.00     0.045 C 
HETATM    5  C   UNL     1       6.907  28.563  56.761  1.00  0.00     0.019 A 
HETATM    6  C   UNL     1       8.026  29.400  57.516  1.00  0.00     0.161 A 
HETATM    7  C   UNL     1       7.327  30.619  58.208  1.00  0.00     0.148 A 
HETATM    8  C   UNL     1       5.893  30.502  57.792  1.00  0.00    -0.026 A 
HETATM    9  C   UNL     1       5.658  29.392  56.981  1.00  0.00    -0.038 A 
HETATM   10  C   UNL     1       4.866  31.387  58.108  1.00  0.00     0.010 A 
HETATM   11  C   UNL     1       3.585  31.140  57.616  1.00  0.00     0.001 A 
HETATM   12  C   UNL     1       3.343  30.023  56.812  1.00  0.00     0.001 A 
HETATM   13  C   UNL     1       4.378  29.144  56.492  1.00  0.00     0.009 A 
HETATM   14  C   UNL     1       6.714  27.169  57.400  1.00  0.00     0.045 C 
HETATM   15  C   UNL     1       7.896  26.251  57.136  1.00  0.00     0.236 C 
ENDROOT
BRANCH   6  16
HETATM   16  O   UNL     1       9.024  29.840  56.569  1.00  0.00    -0.387 OA
HETATM   17  C   UNL     1      10.355  29.730  57.068  1.00  0.00     0.202 C 
ENDBRANCH   6  16
BRANCH   7  18
HETATM   18  N   UNL     1       7.477  30.748  59.652  1.00  0.00    -0.350 N 
HETATM   19  C   UNL     1       8.287  31.663  60.282  1.00  0.00     0.223 C 
HETATM   20  O   UNL     1       8.736  32.651  59.696  1.00  0.00    -0.273 OA
HETATM   21  H   UNL     1       7.263  29.904  60.173  1.00  0.00     0.163 HD
BRANCH  19  22
HETATM   22  C   UNL     1       8.620  31.452  61.757  1.00  0.00     0.148 C 
BRANCH  22  23
HETATM   23  C   UNL     1       7.703  32.135  62.728  1.00  0.00    -0.009 A 
HETATM   24  S   UNL     1       6.005  31.925  62.612  1.00  0.00    -0.106 SA
HETATM   25  C   UNL     1       5.725  32.907  63.982  1.00  0.00     0.050 A 
HETATM   26  C   UNL     1       6.898  33.375  64.529  1.00  0.00     0.008 A 
HETATM   27  C   UNL     1       8.041  32.930  63.807  1.00  0.00     0.015 A 
ENDBRANCH  22  23
ENDBRANCH  19  22
ENDBRANCH   7  18
BRANCH   1  28
HETATM   28  C   UNL     1       7.060  25.185  55.010  1.00  0.00     0.273 C 
BRANCH  28  29
HETATM   29  C   UNL     1       7.441  23.730  54.982  1.00  0.00    -0.031 A 
HETATM   30  C   UNL     1       7.531  23.037  53.766  1.00  0.00     0.018 A 
HETATM   31  C   UNL     1       7.892  21.682  53.735  1.00  0.00    -0.028 A 
HETATM   32  C   UNL     1       8.205  21.032  54.937  1.00  0.00     0.077 A 
HETATM   33  C   UNL     1       8.018  20.983  52.409  1.00  0.00     0.051 C 
HETATM   34  C   UNL     1       8.135  21.704  56.166  1.00  0.00    -0.028 A 
HETATM   35  C   UNL     1       8.476  21.032  57.467  1.00  0.00     0.051 C 
HETATM   36  C   UNL     1       7.740  23.052  56.174  1.00  0.00     0.018 A 
BRANCH  32  37
HETATM   37  O   UNL     1       8.586  19.724  54.852  1.00  0.00    -0.360 OA
HETATM   38  H   UNL     1       9.143  19.478  55.608  1.00  0.00     0.217 HD
ENDBRANCH  32  37
ENDBRANCH  28  29
ENDBRANCH   1  28
TORSDOF 7
ENDMDL
MODEL 2
REMARK VINA RESULT:     -10.2      1.440      1.833
REMARK  7 active torsions:
REMARK  status: ('A' for Active; 'I' for Inactive)
REMARK    1  A    between atoms: C_3  and  O_4 
REMARK    2  A    between atoms: C_8  and  C_9 
REMARK    3  A    between atoms: C_9  and  N_10 
REMARK    4  A    between atoms: C_15  and  O_16 
REMARK    5  A    between atoms: C_18  and  N_19 
REMARK       I    between atoms: N_19  and  C_20 
REMARK    6  A    between atoms: C_20  and  C_21 
REMARK    7  A    between atoms: C_21  and  C_22 
ROOT
HETATM    1  N   UNL     1       7.461  25.801  55.817  1.00  0.00    -0.067 N 
HETATM    2  H   UNL     1       8.191  25.222  56.250  1.00  0.00     0.280 HD
HETATM    3  C   UNL     1       8.194  26.996  55.247  1.00  0.00     0.236 C 
HETATM    4  C   UNL     1       7.216  28.071  54.787  1.00  0.00     0.045 C 
HETATM    5  C   UNL     1       6.211  28.491  55.888  1.00  0.00     0.019 A 
HETATM    6  C   UNL     1       6.861  29.349  57.056  1.00  0.00     0.161 A 
HETATM    7  C   UNL     1       6.074  30.701  57.152  1.00  0.00     0.148 A 
HETATM    8  C   UNL     1       5.078  30.623  56.036  1.00  0.00    -0.026 A 
HETATM    9  C   UNL     1       5.161  29.426  55.324  1.00  0.00    -0.038 A 
HETATM   10  C   UNL     1       4.171  31.612  55.668  1.00  0.00     0.010 A 
HETATM   11  C   UNL     1       3.326  31.386  54.582  1.00  0.00     0.001 A 
HETATM   12  C   UNL     1       3.398  30.184  53.873  1.00  0.00     0.001 A 
HETATM   13  C   UNL     1       4.315  29.199  54.241  1.00  0.00     0.009 A 
HETATM   14  C   UNL     1       5.521  27.220  56.435  1.00  0.00     0.045 C 
HETATM   15  C   UNL     1       6.527  26.194  56.933  1.00  0.00     0.236 C 
ENDROOT
BRANCH   6  16
HETATM   16  O   UNL     1       8.258  29.579  56.769  1.00  0.00    -0.387 OA
HETATM   17  C   UNL     1       9.026  29.873  57.934  1.00  0.00     0.202 C 
ENDBRANCH   6  16
BRANCH   7  18
HETATM   18  N   UNL     1       5.451  31.025  58.430  1.00  0.00    -0.350 N 
HETATM   19  C   UNL     1       5.487  32.260  59.032  1.00  0.00     0.223 C 
HETATM   20  O   UNL     1       5.795  33.280  58.413  1.00  0.00    -0.273 OA
HETATM   21  H   UNL     1       5.314  30.229  59.044  1.00  0.00     0.163 HD
BRANCH  19  22
HETATM   22  C   UNL     1       5.112  32.365  60.509  1.00  0.00     0.148 C 
BRANCH  22  23
HETATM   23  C   UNL     1       6.266  32.392  61.466  1.00  0.00    -0.009 A 
HETATM   24  S   UNL     1       6.096  33.122  63.009  1.00  0.00    -0.106 SA
HETATM   25  C   UNL     1       7.699  32.723  63.446  1.00  0.00     0.050 A 
HETATM   26  C   UNL     1       8.349  32.034  62.448  1.00  0.00     0.008 A 
HETATM   27  C   UNL     1       7.523  31.841  61.304  1.00  0.00     0.015 A 
ENDBRANCH  22  23
ENDBRANCH  19  22
ENDBRANCH   7  18
BRANCH   1  28
HETATM   28  C   UNL     1       6.811  24.893  54.792  1.00  0.00     0.273 C 
BRANCH  28  29
HETATM   29  C   UNL     1       7.310  23.475  54.824  1.00  0.00    -0.031 A 
HETATM   30  C   UNL     1       7.472  22.746  53.637  1.00  0.00     0.018 A 
HETATM   31  C   UNL     1       7.945  21.426  53.661  1.00  0.00    -0.028 A 
HETATM   32  C   UNL     1       8.296  20.851  54.890  1.00  0.00     0.077 A 
HETATM   33  C   UNL     1       8.143  20.690  52.364  1.00  0.00     0.051 C 
HETATM   34  C   UNL     1       8.157  21.561  56.091  1.00  0.00    -0.028 A 
HETATM   35  C   UNL     1       8.537  20.969  57.420  1.00  0.00     0.051 C 
HETATM   36  C   UNL     1       7.651  22.870  56.044  1.00  0.00     0.018 A 
BRANCH  32  37
HETATM   37  O   UNL     1       8.786  19.576  54.859  1.00  0.00    -0.360 OA
HETATM   38  H   UNL     1       8.079  18.933  55.024  1.00  0.00     0.217 HD
ENDBRANCH  32  37
ENDBRANCH  28  29
ENDBRANCH   1  28
TORSDOF 7
ENDMDL
MODEL 3
REMARK VINA RESULT:      -9.8      7.650     11.757
REMARK  7 active torsions:
REMARK  status: ('A' for Active; 'I' for Inactive)
REMARK    1  A    between atoms: C_3  and  O_4 
REMARK    2  A    between atoms: C_8  and  C_9 
REMARK    3  A    between atoms: C_9  and  N_10 
REMARK    4  A    between atoms: C_15  and  O_16 
REMARK    5  A    between atoms: C_18  and  N_19 
REMARK       I    between atoms: N_19  and  C_20 
REMARK    6  A    between atoms: C_20  and  C_21 
REMARK    7  A    between atoms: C_21  and  C_22 
ROOT
HETATM    1  N   UNL     1       5.112  32.095  49.683  1.00  0.00    -0.067 N 
HETATM    2  H   UNL     1       5.495  32.853  50.260  1.00  0.00     0.280 HD
HETATM    3  C   UNL     1       3.965  31.527  50.490  1.00  0.00     0.236 C 
HETATM    4  C   UNL     1       3.451  30.230  49.875  1.00  0.00     0.045 C 
HETATM    5  C   UNL     1       4.567  29.179  49.652  1.00  0.00     0.019 A 
HETATM    6  C   UNL     1       5.106  28.521  50.994  1.00  0.00     0.161 A 
HETATM    7  C   UNL     1       4.931  26.969  50.871  1.00  0.00     0.148 A 
HETATM    8  C   UNL     1       4.256  26.782  49.548  1.00  0.00    -0.026 A 
HETATM    9  C   UNL     1       4.031  27.987  48.884  1.00  0.00    -0.038 A 
HETATM   10  C   UNL     1       3.834  25.574  49.000  1.00  0.00     0.010 A 
HETATM   11  C   UNL     1       3.196  25.580  47.760  1.00  0.00     0.001 A 
HETATM   12  C   UNL     1       2.978  26.784  47.086  1.00  0.00     0.001 A 
HETATM   13  C   UNL     1       3.396  27.993  47.644  1.00  0.00     0.009 A 
HETATM   14  C   UNL     1       5.708  29.836  48.844  1.00  0.00     0.045 C 
HETATM   15  C   UNL     1       6.230  31.097  49.515  1.00  0.00     0.236 C 
ENDROOT
BRANCH   6  16
HETATM   16  O   UNL     1       4.366  29.042  52.120  1.00  0.00    -0.387 OA
HETATM   17  C   UNL     1       3.861  28.019  52.977  1.00  0.00     0.202 C 
ENDBRANCH   6  16
BRANCH   7  18
HETATM   18  N   UNL     1       6.127  26.146  51.006  1.00  0.00    -0.350 N 
HETATM   19  C   UNL     1       6.348  25.236  52.011  1.00  0.00     0.223 C 
HETATM   20  O   UNL     1       5.434  24.817  52.725  1.00  0.00    -0.273 OA
HETATM   21  H   UNL     1       6.952  26.530  50.558  1.00  0.00     0.163 HD
BRANCH  19  22
HETATM   22  C   UNL     1       7.767  24.717  52.230  1.00  0.00     0.148 C 
BRANCH  22  23
HETATM   23  C   UNL     1       7.898  23.593  53.214  1.00  0.00    -0.009 A 
HETATM   24  S   UNL     1       8.068  23.922  54.889  1.00  0.00    -0.106 SA
HETATM   25  C   UNL     1       8.107  22.258  55.278  1.00  0.00     0.050 A 
HETATM   26  C   UNL     1       7.977  21.464  54.161  1.00  0.00     0.008 A 
HETATM   27  C   UNL     1       7.855  22.234  52.968  1.00  0.00     0.015 A 
ENDBRANCH  22  23
ENDBRANCH  19  22
ENDBRANCH   7  18
BRANCH   1  28
HETATM   28  C   UNL     1       4.717  32.765  48.382  1.00  0.00     0.273 C 
BRANCH  28  29
HETATM   29  C   UNL     1       5.865  33.403  47.648  1.00  0.00    -0.031 A 
HETATM   30  C   UNL     1       5.983  33.275  46.256  1.00  0.00     0.018 A 
HETATM   31  C   UNL     1       7.048  33.873  45.567  1.00  0.00    -0.028 A 
HETATM   32  C   UNL     1       7.977  34.641  46.282  1.00  0.00     0.077 A 
HETATM   33  C   UNL     1       7.119  33.749  44.069  1.00  0.00     0.051 C 
HETATM   34  C   UNL     1       7.876  34.796  47.672  1.00  0.00    -0.028 A 
HETATM   35  C   UNL     1       8.855  35.622  48.459  1.00  0.00     0.051 C 
HETATM   36  C   UNL     1       6.819  34.160  48.344  1.00  0.00     0.018 A 
BRANCH  32  37
HETATM   37  O   UNL     1       8.975  35.234  45.562  1.00  0.00    -0.360 OA
HETATM   38  H   UNL     1       8.607  35.831  44.892  1.00  0.00     0.217 HD
ENDBRANCH  32  37
ENDBRANCH  28  29
ENDBRANCH   1  28
TORSDOF 7
ENDMDL
MODEL 4
REMARK VINA RESULT:      -9.6      2.989      9.646
REMARK  7 active torsions:
REMARK  status: ('A' for Active; 'I' for Inactive)
REMARK    1  A    between atoms: C_3  and  O_4 
REMARK    2  A    between atoms: C_8  and  C_9 
REMARK    3  A    between atoms: C_9  and  N_10 
REMARK    4  A    between atoms: C_15  and  O_16 
REMARK    5  A    between atoms: C_18  and  N_19 
REMARK       I    between atoms: N_19  and  C_20 
REMARK    6  A    between atoms: C_20  and  C_21 
REMARK    7  A    between atoms: C_21  and  C_22 
ROOT
HETATM    1  N   UNL     1       9.457  30.047  58.463  1.00  0.00    -0.067 N 
HETATM    2  H   UNL     1      10.262  29.867  59.075  1.00  0.00     0.280 HD
HETATM    3  C   UNL     1       8.326  29.230  59.048  1.00  0.00     0.236 C 
HETATM    4  C   UNL     1       7.128  29.197  58.106  1.00  0.00     0.045 C 
HETATM    5  C   UNL     1       7.492  28.724  56.677  1.00  0.00     0.019 A 
HETATM    6  C   UNL     1       7.820  27.173  56.578  1.00  0.00     0.161 A 
HETATM    7  C   UNL     1       6.854  26.545  55.516  1.00  0.00     0.148 A 
HETATM    8  C   UNL     1       5.979  27.687  55.099  1.00  0.00    -0.026 A 
HETATM    9  C   UNL     1       6.306  28.878  55.746  1.00  0.00    -0.038 A 
HETATM   10  C   UNL     1       4.915  27.628  54.203  1.00  0.00     0.010 A 
HETATM   11  C   UNL     1       4.184  28.786  53.944  1.00  0.00     0.001 A 
HETATM   12  C   UNL     1       4.515  29.985  54.581  1.00  0.00     0.001 A 
HETATM   13  C   UNL     1       5.577  30.037  55.484  1.00  0.00     0.009 A 
HETATM   14  C   UNL     1       8.664  29.587  56.157  1.00  0.00     0.045 C 
HETATM   15  C   UNL     1       9.859  29.552  57.096  1.00  0.00     0.236 C 
ENDROOT
BRANCH   6  16
HETATM   16  O   UNL     1       7.643  26.557  57.872  1.00  0.00    -0.387 OA
HETATM   17  C   UNL     1       8.090  25.203  57.913  1.00  0.00     0.202 C 
ENDBRANCH   6  16
BRANCH   7  18
HETATM   18  N   UNL     1       7.460  25.865  54.378  1.00  0.00    -0.350 N 
HETATM   19  C   UNL     1       6.972  24.721  53.793  1.00  0.00     0.223 C 
HETATM   20  O   UNL     1       5.819  24.328  53.987  1.00  0.00    -0.273 OA
HETATM   21  H   UNL     1       8.453  26.039  54.265  1.00  0.00     0.163 HD
BRANCH  19  22
HETATM   22  C   UNL     1       7.885  23.929  52.860  1.00  0.00     0.148 C 
BRANCH  22  23
HETATM   23  C   UNL     1       8.241  22.549  53.326  1.00  0.00    -0.009 A 
HETATM   24  S   UNL     1       8.960  22.311  54.865  1.00  0.00    -0.106 SA
HETATM   25  C   UNL     1       9.001  20.615  54.656  1.00  0.00     0.050 A 
HETATM   26  C   UNL     1       8.464  20.232  53.448  1.00  0.00     0.008 A 
HETATM   27  C   UNL     1       8.025  21.347  52.679  1.00  0.00     0.015 A 
ENDBRANCH  22  23
ENDBRANCH  19  22
ENDBRANCH   7  18
BRANCH   1  28
HETATM   28  C   UNL     1       9.264  31.549  58.515  1.00  0.00     0.273 C 
BRANCH  28  29
HETATM   29  C   UNL     1       8.270  32.003  59.548  1.00  0.00    -0.031 A 
HETATM   30  C   UNL     1       6.940  32.273  59.192  1.00  0.00     0.018 A 
HETATM   31  C   UNL     1       6.009  32.690  60.153  1.00  0.00    -0.028 A 
HETATM   32  C   UNL     1       6.411  32.796  61.492  1.00  0.00     0.077 A 
HETATM   33  C   UNL     1       4.582  32.932  59.741  1.00  0.00     0.051 C 
HETATM   34  C   UNL     1       7.730  32.520  61.878  1.00  0.00    -0.028 A 
HETATM   35  C   UNL     1       8.182  32.616  63.309  1.00  0.00     0.051 C 
HETATM   36  C   UNL     1       8.653  32.135  60.892  1.00  0.00     0.018 A 
BRANCH  32  37
HETATM   37  O   UNL     1       5.459  33.170  62.396  1.00  0.00    -0.360 OA
HETATM   38  H   UNL     1       5.118  34.055  62.191  1.00  0.00     0.217 HD
ENDBRANCH  32  37
ENDBRANCH  28  29
ENDBRANCH   1  28
TORSDOF 7
ENDMDL
MODEL 5
REMARK VINA RESULT:      -9.5      3.322      9.828
REMARK  7 active torsions:
REMARK  status: ('A' for Active; 'I' for Inactive)
REMARK    1  A    between atoms: C_3  and  O_4 
REMARK    2  A    between atoms: C_8  and  C_9 
REMARK    3  A    between atoms: C_9  and  N_10 
REMARK    4  A    between atoms: C_15  and  O_16 
REMARK    5  A    between atoms: C_18  and  N_19 
REMARK       I    between atoms: N_19  and  C_20 
REMARK    6  A    between atoms: C_20  and  C_21 
REMARK    7  A    between atoms: C_21  and  C_22 
ROOT
HETATM    1  N   UNL     1       6.855  28.890  57.638  1.00  0.00    -0.067 N 
HETATM    2  H   UNL     1       7.001  28.737  58.643  1.00  0.00     0.280 HD
HETATM    3  C   UNL     1       5.386  28.610  57.408  1.00  0.00     0.236 C 
HETATM    4  C   UNL     1       5.066  28.553  55.918  1.00  0.00     0.045 C 
HETATM    5  C   UNL     1       5.964  27.560  55.141  1.00  0.00     0.019 A 
HETATM    6  C   UNL     1       5.638  26.034  55.437  1.00  0.00     0.161 A 
HETATM    7  C   UNL     1       5.316  25.339  54.070  1.00  0.00     0.148 A 
HETATM    8  C   UNL     1       5.389  26.450  53.069  1.00  0.00    -0.026 A 
HETATM    9  C   UNL     1       5.721  27.674  53.649  1.00  0.00    -0.038 A 
HETATM   10  C   UNL     1       5.127  26.353  51.706  1.00  0.00     0.010 A 
HETATM   11  C   UNL     1       5.218  27.498  50.916  1.00  0.00     0.001 A 
HETATM   12  C   UNL     1       5.561  28.725  51.491  1.00  0.00     0.001 A 
HETATM   13  C   UNL     1       5.814  28.818  52.860  1.00  0.00     0.009 A 
HETATM   14  C   UNL     1       7.443  27.893  55.443  1.00  0.00     0.045 C 
HETATM   15  C   UNL     1       7.735  27.888  56.935  1.00  0.00     0.236 C 
ENDROOT
BRANCH   6  16
HETATM   16  O   UNL     1       4.517  25.944  56.343  1.00  0.00    -0.387 OA
HETATM   17  C   UNL     1       4.756  25.065  57.441  1.00  0.00     0.202 C 
ENDBRANCH   6  16
BRANCH   7  18
HETATM   18  N   UNL     1       6.135  24.194  53.689  1.00  0.00    -0.350 N 
HETATM   19  C   UNL     1       7.450  24.263  53.295  1.00  0.00     0.223 C 
HETATM   20  O   UNL     1       8.145  25.259  53.508  1.00  0.00    -0.273 OA
HETATM   21  H   UNL     1       5.608  23.393  53.358  1.00  0.00     0.163 HD
BRANCH  19  22
HETATM   22  C   UNL     1       8.067  23.056  52.591  1.00  0.00     0.148 C 
BRANCH  22  23
HETATM   23  C   UNL     1       8.455  21.917  53.486  1.00  0.00    -0.009 A 
HETATM   24  S   UNL     1       8.986  22.215  55.089  1.00  0.00    -0.106 SA
HETATM   25  C   UNL     1       9.169  20.546  55.408  1.00  0.00     0.050 A 
HETATM   26  C   UNL     1       8.819  19.773  54.324  1.00  0.00     0.008 A 
HETATM   27  C   UNL     1       8.406  20.563  53.214  1.00  0.00     0.015 A 
ENDBRANCH  22  23
ENDBRANCH  19  22
ENDBRANCH   7  18
BRANCH   1  28
HETATM   28  C   UNL     1       7.285  30.324  57.402  1.00  0.00     0.273 C 
BRANCH  28  29
HETATM   29  C   UNL     1       7.290  31.174  58.643  1.00  0.00    -0.031 A 
HETATM   30  C   UNL     1       6.153  31.906  59.014  1.00  0.00     0.018 A 
HETATM   31  C   UNL     1       6.151  32.695  60.173  1.00  0.00    -0.028 A 
HETATM   32  C   UNL     1       7.292  32.712  60.987  1.00  0.00     0.077 A 
HETATM   33  C   UNL     1       4.899  33.434  60.560  1.00  0.00     0.051 C 
HETATM   34  C   UNL     1       8.438  31.980  60.648  1.00  0.00    -0.028 A 
HETATM   35  C   UNL     1       9.670  31.975  61.510  1.00  0.00     0.051 C 
HETATM   36  C   UNL     1       8.427  31.223  59.465  1.00  0.00     0.018 A 
BRANCH  32  37
HETATM   37  O   UNL     1       7.229  33.466  62.125  1.00  0.00    -0.360 OA
HETATM   38  H   UNL     1       8.079  33.454  62.592  1.00  0.00     0.217 HD
ENDBRANCH  32  37
ENDBRANCH  28  29
ENDBRANCH   1  28
TORSDOF 7
ENDMDL
MODEL 6
REMARK VINA RESULT:      -9.5      5.598      7.334
REMARK  7 active torsions:
REMARK  status: ('A' for Active; 'I' for Inactive)
REMARK    1  A    between atoms: C_3  and  O_4 
REMARK    2  A    between atoms: C_8  and  C_9 
REMARK    3  A    between atoms: C_9  and  N_10 
REMARK    4  A    between atoms: C_15  and  O_16 
REMARK    5  A    between atoms: C_18  and  N_19 
REMARK       I    between atoms: N_19  and  C_20 
REMARK    6  A    between atoms: C_20  and  C_21 
REMARK    7  A    between atoms: C_21  and  C_22 
ROOT
HETATM    1  N   UNL     1       6.772  25.211  53.115  1.00  0.00    -0.067 N 
HETATM    2  H   UNL     1       7.246  24.487  52.561  1.00  0.00     0.280 HD
HETATM    3  C   UNL     1       5.362  25.262  52.570  1.00  0.00     0.236 C 
HETATM    4  C   UNL     1       4.603  26.463  53.124  1.00  0.00     0.045 C 
HETATM    5  C   UNL     1       5.347  27.804  52.909  1.00  0.00     0.019 A 
HETATM    6  C   UNL     1       5.355  28.298  51.399  1.00  0.00     0.161 A 
HETATM    7  C   UNL     1       4.725  29.732  51.360  1.00  0.00     0.148 A 
HETATM    8  C   UNL     1       4.319  29.991  52.779  1.00  0.00    -0.026 A 
HETATM    9  C   UNL     1       4.635  28.931  53.629  1.00  0.00    -0.038 A 
HETATM   10  C   UNL     1       3.660  31.120  53.257  1.00  0.00     0.010 A 
HETATM   11  C   UNL     1       3.332  31.189  54.610  1.00  0.00     0.001 A 
HETATM   12  C   UNL     1       3.656  30.135  55.468  1.00  0.00     0.001 A 
HETATM   13  C   UNL     1       4.309  29.002  54.982  1.00  0.00     0.009 A 
HETATM   14  C   UNL     1       6.781  27.667  53.468  1.00  0.00     0.045 C 
HETATM   15  C   UNL     1       7.523  26.491  52.853  1.00  0.00     0.236 C 
ENDROOT
BRANCH   6  16
HETATM   16  O   UNL     1       4.600  27.376  50.583  1.00  0.00    -0.387 OA
HETATM   17  C   UNL     1       3.711  28.029  49.678  1.00  0.00     0.202 C 
ENDBRANCH   6  16
BRANCH   7  18
HETATM   18  N   UNL     1       5.541  30.809  50.812  1.00  0.00    -0.350 N 
HETATM   19  C   UNL     1       5.119  31.715  49.868  1.00  0.00     0.223 C 
HETATM   20  O   UNL     1       3.925  31.885  49.614  1.00  0.00    -0.273 OA
HETATM   21  H   UNL     1       6.541  30.644  50.861  1.00  0.00     0.163 HD
BRANCH  19  22
HETATM   22  C   UNL     1       6.168  32.546  49.132  1.00  0.00     0.148 C 
BRANCH  22  23
HETATM   23  C   UNL     1       6.395  33.925  49.677  1.00  0.00    -0.009 A 
HETATM   24  S   UNL     1       7.205  35.107  48.733  1.00  0.00    -0.106 SA
HETATM   25  C   UNL     1       7.028  36.293  49.951  1.00  0.00     0.050 A 
HETATM   26  C   UNL     1       6.352  35.809  51.048  1.00  0.00     0.008 A 
HETATM   27  C   UNL     1       5.986  34.441  50.891  1.00  0.00     0.015 A 
ENDBRANCH  22  23
ENDBRANCH  19  22
ENDBRANCH   7  18
BRANCH   1  28
HETATM   28  C   UNL     1       6.893  24.736  54.549  1.00  0.00     0.273 C 
BRANCH  28  29
HETATM   29  C   UNL     1       7.402  23.327  54.688  1.00  0.00    -0.031 A 
HETATM   30  C   UNL     1       7.622  22.531  53.553  1.00  0.00     0.018 A 
HETATM   31  C   UNL     1       8.102  21.220  53.677  1.00  0.00    -0.028 A 
HETATM   32  C   UNL     1       8.403  20.721  54.952  1.00  0.00     0.077 A 
HETATM   33  C   UNL     1       8.363  20.410  52.436  1.00  0.00     0.051 C 
HETATM   34  C   UNL     1       8.205  21.499  56.102  1.00  0.00    -0.028 A 
HETATM   35  C   UNL     1       8.530  20.990  57.479  1.00  0.00     0.051 C 
HETATM   36  C   UNL     1       7.693  22.799  55.955  1.00  0.00     0.018 A 
BRANCH  32  37
HETATM   37  O   UNL     1       8.903  19.452  55.019  1.00  0.00    -0.360 OA
HETATM   38  H   UNL     1       8.226  18.832  55.333  1.00  0.00     0.217 HD
ENDBRANCH  32  37
ENDBRANCH  28  29
ENDBRANCH   1  28
TORSDOF 7
ENDMDL
MODEL 7
REMARK VINA RESULT:      -9.4      5.549      8.185
REMARK  7 active torsions:
REMARK  status: ('A' for Active; 'I' for Inactive)
REMARK    1  A    between atoms: C_3  and  O_4 
REMARK    2  A    between atoms: C_8  and  C_9 
REMARK    3  A    between atoms: C_9  and  N_10 
REMARK    4  A    between atoms: C_15  and  O_16 
REMARK    5  A    between atoms: C_18  and  N_19 
REMARK       I    between atoms: N_19  and  C_20 
REMARK    6  A    between atoms: C_20  and  C_21 
REMARK    7  A    between atoms: C_21  and  C_22 
ROOT
HETATM    1  N   UNL     1       6.830  25.226  53.196  1.00  0.00    -0.067 N 
HETATM    2  H   UNL     1       7.307  24.517  52.627  1.00  0.00     0.280 HD
HETATM    3  C   UNL     1       5.412  25.263  52.669  1.00  0.00     0.236 C 
HETATM    4  C   UNL     1       4.642  26.445  53.248  1.00  0.00     0.045 C 
HETATM    5  C   UNL     1       5.363  27.800  53.042  1.00  0.00     0.019 A 
HETATM    6  C   UNL     1       5.345  28.314  51.539  1.00  0.00     0.161 A 
HETATM    7  C   UNL     1       4.694  29.739  51.528  1.00  0.00     0.148 A 
HETATM    8  C   UNL     1       4.301  29.972  52.955  1.00  0.00    -0.026 A 
HETATM    9  C   UNL     1       4.643  28.906  53.787  1.00  0.00    -0.038 A 
HETATM   10  C   UNL     1       3.632  31.085  53.456  1.00  0.00     0.010 A 
HETATM   11  C   UNL     1       3.319  31.131  54.814  1.00  0.00     0.001 A 
HETATM   12  C   UNL     1       3.670  30.070  55.654  1.00  0.00     0.001 A 
HETATM   13  C   UNL     1       4.334  28.954  55.144  1.00  0.00     0.009 A 
HETATM   14  C   UNL     1       6.806  27.677  53.582  1.00  0.00     0.045 C 
HETATM   15  C   UNL     1       7.558  26.521  52.942  1.00  0.00     0.236 C 
ENDROOT
BRANCH   6  16
HETATM   16  O   UNL     1       4.594  27.391  50.721  1.00  0.00    -0.387 OA
HETATM   17  C   UNL     1       4.701  27.668  49.325  1.00  0.00     0.202 C 
ENDBRANCH   6  16
BRANCH   7  18
HETATM   18  N   UNL     1       5.486  30.835  50.984  1.00  0.00    -0.350 N 
HETATM   19  C   UNL     1       5.264  31.442  49.771  1.00  0.00     0.223 C 
HETATM   20  O   UNL     1       4.199  31.315  49.163  1.00  0.00    -0.273 OA
HETATM   21  H   UNL     1       6.432  30.888  51.347  1.00  0.00     0.163 HD
BRANCH  19  22
HETATM   22  C   UNL     1       6.367  32.314  49.176  1.00  0.00     0.148 C 
BRANCH  22  23
HETATM   23  C   UNL     1       5.922  33.293  48.132  1.00  0.00    -0.009 A 
HETATM   24  S   UNL     1       5.244  34.801  48.589  1.00  0.00    -0.106 SA
HETATM   25  C   UNL     1       5.064  35.287  46.961  1.00  0.00     0.050 A 
HETATM   26  C   UNL     1       5.524  34.331  46.083  1.00  0.00     0.008 A 
HETATM   27  C   UNL     1       6.020  33.179  46.759  1.00  0.00     0.015 A 
ENDBRANCH  22  23
ENDBRANCH  19  22
ENDBRANCH   7  18
BRANCH   1  28
HETATM   28  C   UNL     1       6.976  24.733  54.622  1.00  0.00     0.273 C 
BRANCH  28  29
HETATM   29  C   UNL     1       7.514  23.334  54.735  1.00  0.00    -0.031 A 
HETATM   30  C   UNL     1       7.793  22.774  55.991  1.00  0.00     0.018 A 
HETATM   31  C   UNL     1       8.288  21.466  56.102  1.00  0.00    -0.028 A 
HETATM   32  C   UNL     1       8.464  20.704  54.939  1.00  0.00     0.077 A 
HETATM   33  C   UNL     1       8.538  20.886  57.467  1.00  0.00     0.051 C 
HETATM   34  C   UNL     1       8.181  21.233  53.672  1.00  0.00    -0.028 A 
HETATM   35  C   UNL     1       8.352  20.431  52.412  1.00  0.00     0.051 C 
HETATM   36  C   UNL     1       7.717  22.556  53.585  1.00  0.00     0.018 A 
BRANCH  32  37
HETATM   37  O   UNL     1       8.914  19.424  55.100  1.00  0.00    -0.360 OA
HETATM   38  H   UNL     1       8.286  18.789  54.722  1.00  0.00     0.217 HD
ENDBRANCH  32  37
ENDBRANCH  28  29
ENDBRANCH   1  28
TORSDOF 7
ENDMDL
MODEL 8
REMARK VINA RESULT:      -8.8      4.776      6.613
REMARK  7 active torsions:
REMARK  status: ('A' for Active; 'I' for Inactive)
REMARK    1  A    between atoms: C_3  and  O_4 
REMARK    2  A    between atoms: C_8  and  C_9 
REMARK    3  A    between atoms: C_9  and  N_10 
REMARK    4  A    between atoms: C_15  and  O_16 
REMARK    5  A    between atoms: C_18  and  N_19 
REMARK       I    between atoms: N_19  and  C_20 
REMARK    6  A    between atoms: C_20  and  C_21 
REMARK    7  A    between atoms: C_21  and  C_22 
ROOT
HETATM    1  N   UNL     1       4.679  26.571  52.167  1.00  0.00    -0.067 N 
HETATM    2  H   UNL     1       3.830  26.113  51.817  1.00  0.00     0.280 HD
HETATM    3  C   UNL     1       5.289  25.583  53.137  1.00  0.00     0.236 C 
HETATM    4  C   UNL     1       6.426  26.220  53.928  1.00  0.00     0.045 C 
HETATM    5  C   UNL     1       6.012  27.533  54.637  1.00  0.00     0.019 A 
HETATM    6  C   UNL     1       5.049  27.314  55.882  1.00  0.00     0.161 A 
HETATM    7  C   UNL     1       5.728  27.967  57.133  1.00  0.00     0.148 A 
HETATM    8  C   UNL     1       7.045  28.461  56.618  1.00  0.00    -0.026 A 
HETATM    9  C   UNL     1       7.218  28.208  55.258  1.00  0.00    -0.038 A 
HETATM   10  C   UNL     1       8.046  29.076  57.365  1.00  0.00     0.010 A 
HETATM   11  C   UNL     1       9.227  29.454  56.729  1.00  0.00     0.001 A 
HETATM   12  C   UNL     1       9.402  29.213  55.364  1.00  0.00     0.001 A 
HETATM   13  C   UNL     1       8.398  28.589  54.622  1.00  0.00     0.009 A 
HETATM   14  C   UNL     1       5.380  28.479  53.591  1.00  0.00     0.045 C 
HETATM   15  C   UNL     1       4.216  27.827  52.861  1.00  0.00     0.236 C 
ENDROOT
BRANCH   6  16
HETATM   16  O   UNL     1       4.833  25.900  56.084  1.00  0.00    -0.387 OA
HETATM   17  C   UNL     1       5.284  25.443  57.358  1.00  0.00     0.202 C 
ENDBRANCH   6  16
BRANCH   7  18
HETATM   18  N   UNL     1       4.983  29.003  57.838  1.00  0.00    -0.350 N 
HETATM   19  C   UNL     1       4.734  30.263  57.350  1.00  0.00     0.223 C 
HETATM   20  O   UNL     1       4.862  30.539  56.155  1.00  0.00    -0.273 OA
HETATM   21  H   UNL     1       4.977  28.902  58.847  1.00  0.00     0.163 HD
BRANCH  19  22
HETATM   22  C   UNL     1       4.264  31.344  58.321  1.00  0.00     0.148 C 
BRANCH  22  23
HETATM   23  C   UNL     1       5.315  31.876  59.250  1.00  0.00    -0.009 A 
HETATM   24  S   UNL     1       4.872  32.554  60.762  1.00  0.00    -0.106 SA
HETATM   25  C   UNL     1       6.502  32.849  61.180  1.00  0.00     0.050 A 
HETATM   26  C   UNL     1       7.371  32.427  60.199  1.00  0.00     0.008 A 
HETATM   27  C   UNL     1       6.686  31.864  59.084  1.00  0.00     0.015 A 
ENDBRANCH  22  23
ENDBRANCH  19  22
ENDBRANCH   7  18
BRANCH   1  28
HETATM   28  C   UNL     1       5.503  26.850  50.925  1.00  0.00     0.273 C 
BRANCH  28  29
HETATM   29  C   UNL     1       4.694  27.307  49.743  1.00  0.00    -0.031 A 
HETATM   30  C   UNL     1       4.044  26.376  48.918  1.00  0.00     0.018 A 
HETATM   31  C   UNL     1       3.283  26.798  47.819  1.00  0.00    -0.028 A 
HETATM   32  C   UNL     1       3.142  28.171  47.573  1.00  0.00     0.077 A 
HETATM   33  C   UNL     1       2.568  25.774  46.981  1.00  0.00     0.051 C 
HETATM   34  C   UNL     1       3.770  29.123  48.389  1.00  0.00    -0.028 A 
HETATM   35  C   UNL     1       3.625  30.601  48.152  1.00  0.00     0.051 C 
HETATM   36  C   UNL     1       4.553  28.675  49.465  1.00  0.00     0.018 A 
BRANCH  32  37
HETATM   37  O   UNL     1       2.362  28.533  46.513  1.00  0.00    -0.360 OA
HETATM   38  H   UNL     1       2.715  29.328  46.082  1.00  0.00     0.217 HD
ENDBRANCH  32  37
ENDBRANCH  28  29
ENDBRANCH   1  28
TORSDOF 7
ENDMDL
MODEL 9
REMARK VINA RESULT:      -8.1      7.643     12.071
REMARK  7 active torsions:
REMARK  status: ('A' for Active; 'I' for Inactive)
REMARK    1  A    between atoms: C_3  and  O_4 
REMARK    2  A    between atoms: C_8  and  C_9 
REMARK    3  A    between atoms: C_9  and  N_10 
REMARK    4  A    between atoms: C_15  and  O_16 
REMARK    5  A    between atoms: C_18  and  N_19 
REMARK       I    between atoms: N_19  and  C_20 
REMARK    6  A    between atoms: C_20  and  C_21 
REMARK    7  A    between atoms: C_21  and  C_22 
ROOT
HETATM    1  N   UNL     1       5.005  32.088  49.985  1.00  0.00    -0.067 N 
HETATM    2  H   UNL     1       5.352  32.828  50.607  1.00  0.00     0.280 HD
HETATM    3  C   UNL     1       3.850  31.457  50.732  1.00  0.00     0.236 C 
HETATM    4  C   UNL     1       3.386  30.178  50.044  1.00  0.00     0.045 C 
HETATM    5  C   UNL     1       4.533  29.165  49.807  1.00  0.00     0.019 A 
HETATM    6  C   UNL     1       5.051  28.459  51.132  1.00  0.00     0.161 A 
HETATM    7  C   UNL     1       4.918  26.911  50.934  1.00  0.00     0.148 A 
HETATM    8  C   UNL     1       4.285  26.768  49.584  1.00  0.00    -0.026 A 
HETATM    9  C   UNL     1       4.050  27.998  48.969  1.00  0.00    -0.038 A 
HETATM   10  C   UNL     1       3.910  25.577  48.970  1.00  0.00     0.010 A 
HETATM   11  C   UNL     1       3.306  25.626  47.714  1.00  0.00     0.001 A 
HETATM   12  C   UNL     1       3.078  26.854  47.088  1.00  0.00     0.001 A 
HETATM   13  C   UNL     1       3.450  28.046  47.713  1.00  0.00     0.009 A 
HETATM   14  C   UNL     1       5.680  29.886  49.063  1.00  0.00     0.045 C 
HETATM   15  C   UNL     1       6.151  31.126  49.806  1.00  0.00     0.236 C 
ENDROOT
BRANCH   6  16
HETATM   16  O   UNL     1       4.267  28.910  52.259  1.00  0.00    -0.387 OA
HETATM   17  C   UNL     1       3.917  27.855  53.153  1.00  0.00     0.202 C 
ENDBRANCH   6  16
BRANCH   7  18
HETATM   18  N   UNL     1       6.130  26.111  51.066  1.00  0.00    -0.350 N 
HETATM   19  C   UNL     1       6.328  25.130  52.008  1.00  0.00     0.223 C 
HETATM   20  O   UNL     1       5.393  24.633  52.640  1.00  0.00    -0.273 OA
HETATM   21  H   UNL     1       6.965  26.550  50.693  1.00  0.00     0.163 HD
BRANCH  19  22
HETATM   22  C   UNL     1       7.749  24.632  52.259  1.00  0.00     0.148 C 
BRANCH  22  23
HETATM   23  C   UNL     1       7.912  23.711  53.431  1.00  0.00    -0.009 A 
HETATM   24  S   UNL     1       7.923  22.011  53.203  1.00  0.00    -0.106 SA
HETATM   25  C   UNL     1       8.173  21.724  54.869  1.00  0.00     0.050 A 
HETATM   26  C   UNL     1       8.263  22.895  55.586  1.00  0.00     0.008 A 
HETATM   27  C   UNL     1       8.113  24.044  54.757  1.00  0.00     0.015 A 
ENDBRANCH  22  23
ENDBRANCH  19  22
ENDBRANCH   7  18
BRANCH   1  28
HETATM   28  C   UNL     1       4.630  32.809  48.705  1.00  0.00     0.273 C 
BRANCH  28  29
HETATM   29  C   UNL     1       4.981  34.271  48.700  1.00  0.00    -0.031 A 
HETATM   30  C   UNL     1       6.192  34.718  49.250  1.00  0.00     0.018 A 
HETATM   31  C   UNL     1       6.526  36.080  49.241  1.00  0.00    -0.028 A 
HETATM   32  C   UNL     1       5.652  36.993  48.635  1.00  0.00     0.077 A 
HETATM   33  C   UNL     1       7.851  36.518  49.805  1.00  0.00     0.051 C 
HETATM   34  C   UNL     1       4.442  36.572  48.066  1.00  0.00    -0.028 A 
HETATM   35  C   UNL     1       3.494  37.530  47.400  1.00  0.00     0.051 C 
HETATM   36  C   UNL     1       4.114  35.207  48.116  1.00  0.00     0.018 A 
BRANCH  32  37
HETATM   37  O   UNL     1       6.039  38.303  48.619  1.00  0.00    -0.360 OA
HETATM   38  H   UNL     1       5.968  38.670  47.724  1.00  0.00     0.217 HD
ENDBRANCH  32  37
ENDBRANCH  28  29
ENDBRANCH   1  28
TORSDOF 7
ENDMDL
MODEL 10
REMARK VINA RESULT:      -8.1      3.493     10.125
REMARK  7 active torsions:
REMARK  status: ('A' for Active; 'I' for Inactive)
REMARK    1  A    between atoms: C_3  and  O_4 
REMARK    2  A    between atoms: C_8  and  C_9 
REMARK    3  A    between atoms: C_9  and  N_10 
REMARK    4  A    between atoms: C_15  and  O_16 
REMARK    5  A    between atoms: C_18  and  N_19 
REMARK       I    between atoms: N_19  and  C_20 
REMARK    6  A    between atoms: C_20  and  C_21 
REMARK    7  A    between atoms: C_21  and  C_22 
ROOT
HETATM    1  N   UNL     1       5.968  29.871  57.787  1.00  0.00    -0.067 N 
HETATM    2  H   UNL     1       6.000  29.984  58.807  1.00  0.00     0.280 HD
HETATM    3  C   UNL     1       4.652  29.177  57.510  1.00  0.00     0.236 C 
HETATM    4  C   UNL     1       4.570  28.715  56.059  1.00  0.00     0.045 C 
HETATM    5  C   UNL     1       5.776  27.844  55.630  1.00  0.00     0.019 A 
HETATM    6  C   UNL     1       5.773  26.388  56.265  1.00  0.00     0.161 A 
HETATM    7  C   UNL     1       5.820  25.352  55.090  1.00  0.00     0.148 A 
HETATM    8  C   UNL     1       5.775  26.199  53.856  1.00  0.00    -0.026 A 
HETATM    9  C   UNL     1       5.728  27.563  54.141  1.00  0.00    -0.038 A 
HETATM   10  C   UNL     1       5.741  25.741  52.541  1.00  0.00     0.010 A 
HETATM   11  C   UNL     1       5.676  26.670  51.504  1.00  0.00     0.001 A 
HETATM   12  C   UNL     1       5.639  28.039  51.784  1.00  0.00     0.001 A 
HETATM   13  C   UNL     1       5.666  28.491  53.104  1.00  0.00     0.009 A 
HETATM   14  C   UNL     1       7.078  28.606  55.963  1.00  0.00     0.045 C 
HETATM   15  C   UNL     1       7.147  29.002  57.430  1.00  0.00     0.236 C 
ENDROOT
BRANCH   6  16
HETATM   16  O   UNL     1       4.586  26.212  57.068  1.00  0.00    -0.387 OA
HETATM   17  C   UNL     1       4.420  24.873  57.533  1.00  0.00     0.202 C 
ENDBRANCH   6  16
BRANCH   7  18
HETATM   18  N   UNL     1       6.928  24.405  55.074  1.00  0.00    -0.350 N 
HETATM   19  C   UNL     1       7.966  24.391  55.974  1.00  0.00     0.223 C 
HETATM   20  O   UNL     1       7.906  24.990  57.050  1.00  0.00    -0.273 OA
HETATM   21  H   UNL     1       7.115  23.994  54.165  1.00  0.00     0.163 HD
BRANCH  19  22
HETATM   22  C   UNL     1       9.221  23.590  55.632  1.00  0.00     0.148 C 
BRANCH  22  23
HETATM   23  C   UNL     1       8.984  22.304  54.898  1.00  0.00    -0.009 A 
HETATM   24  S   UNL     1       8.918  20.818  55.751  1.00  0.00    -0.106 SA
HETATM   25  C   UNL     1       8.601  19.937  54.322  1.00  0.00     0.050 A 
HETATM   26  C   UNL     1       8.530  20.755  53.217  1.00  0.00     0.008 A 
HETATM   27  C   UNL     1       8.750  22.122  53.549  1.00  0.00     0.015 A 
ENDBRANCH  22  23
ENDBRANCH  19  22
ENDBRANCH   7  18
BRANCH   1  28
HETATM   28  C   UNL     1       6.083  31.280  57.241  1.00  0.00     0.273 C 
BRANCH  28  29
HETATM   29  C   UNL     1       5.501  32.335  58.140  1.00  0.00    -0.031 A 
HETATM   30  C   UNL     1       5.762  32.325  59.519  1.00  0.00     0.018 A 
HETATM   31  C   UNL     1       5.227  33.310  60.360  1.00  0.00    -0.028 A 
HETATM   32  C   UNL     1       4.456  34.339  59.801  1.00  0.00     0.077 A 
HETATM   33  C   UNL     1       5.561  33.289  61.827  1.00  0.00     0.051 C 
HETATM   34  C   UNL     1       4.190  34.382  58.425  1.00  0.00    -0.028 A 
HETATM   35  C   UNL     1       3.376  35.481  57.801  1.00  0.00     0.051 C 
HETATM   36  C   UNL     1       4.711  33.365  57.607  1.00  0.00     0.018 A 
BRANCH  32  37
HETATM   37  O   UNL     1       3.988  35.296  60.655  1.00  0.00    -0.360 OA
HETATM   38  H   UNL     1       3.040  35.448  60.515  1.00  0.00     0.217 HD
ENDBRANCH  32  37
ENDBRANCH  28  29
ENDBRANCH   1  28
TORSDOF 7
ENDMDL
