MODEL 1
REMARK VINA RESULT:     -10.4      0.000      0.000
REMARK  5 active torsions:
REMARK  status: ('A' for Active; 'I' for Inactive)
REMARK    1  A    between atoms: C_7  and  C_8 
REMARK    2  A    between atoms: C_16  and  C_17 
REMARK    3  A    between atoms: C_20  and  O_21 
REMARK    4  A    between atoms: C_24  and  C_25 
REMARK       I    between atoms: C_25  and  N_26 
REMARK    5  A    between atoms: N_26  and  C_27 
ROOT
HETATM    1  C   UNL     1       9.944  31.538  58.601  1.00  0.00     0.070 C 
HETATM    2  C   UNL     1       8.884  30.561  58.155  1.00  0.00     0.037 C 
HETATM    3  N   UNL     1       9.287  29.605  57.227  1.00  0.00    -0.192 N 
HETATM    4  C   UNL     1       8.524  28.546  56.894  1.00  0.00     0.726 A 
HETATM    5  N   UNL     1       7.221  28.504  57.303  1.00  0.00    -0.083 N 
HETATM    6  N   UNL     1       6.668  27.299  57.060  1.00  0.00    -0.135 NA
HETATM    7  C   UNL     1       7.664  26.680  56.397  1.00  0.00     0.199 A 
HETATM    8  N   UNL     1       8.818  27.435  56.275  1.00  0.00    -0.041 NA
HETATM    9  C   UNL     1       6.584  29.551  58.109  1.00  0.00     0.202 C 
HETATM   10  C   UNL     1       7.613  30.546  58.624  1.00  0.00     0.062 C 
HETATM   11  H   UNL     1      10.271  29.593  56.969  1.00  0.00     0.184 HD
ENDROOT
BRANCH  10  12
HETATM   12  C   UNL     1       7.161  31.536  59.638  1.00  0.00     0.256 C 
HETATM   13  N   UNL     1       7.285  31.065  60.929  1.00  0.00    -0.323 N 
HETATM   14  H   UNL     1       7.650  30.132  61.064  1.00  0.00     0.169 HD
HETATM   15  O   UNL     1       6.760  32.633  59.277  1.00  0.00    -0.267 OA
BRANCH  13  16
HETATM   16  C   UNL     1       6.998  31.764  62.122  1.00  0.00     0.035 A 
HETATM   17  C   UNL     1       5.709  31.979  62.610  1.00  0.00     0.029 A 
HETATM   18  C   UNL     1       5.511  32.707  63.789  1.00  0.00     0.002 A 
HETATM   19  C   UNL     1       6.600  33.213  64.494  1.00  0.00     0.000 A 
HETATM   20  C   UNL     1       7.891  32.997  64.020  1.00  0.00     0.002 A 
HETATM   21  C   UNL     1       8.089  32.282  62.835  1.00  0.00     0.029 A 
ENDBRANCH  13  16
ENDBRANCH  10  12
BRANCH   9  22
HETATM   22  C   UNL     1       5.455  30.213  57.325  1.00  0.00    -0.028 A 
HETATM   23  C   UNL     1       5.729  30.845  56.099  1.00  0.00     0.012 A 
HETATM   24  C   UNL     1       4.706  31.446  55.361  1.00  0.00     0.037 A 
HETATM   25  C   UNL     1       3.404  31.420  55.848  1.00  0.00     0.065 A 
HETATM   26  C   UNL     1       3.109  30.804  57.057  1.00  0.00     0.037 A 
HETATM   27  C   UNL     1       4.130  30.201  57.795  1.00  0.00     0.012 A 
BRANCH  25  28
HETATM   28  O   UNL     1       2.376  31.994  55.160  1.00  0.00    -0.361 OA
HETATM   29  H   UNL     1       1.979  31.324  54.579  1.00  0.00     0.217 HD
ENDBRANCH  25  28
ENDBRANCH   9  22
BRANCH   7  30
HETATM   30  C   UNL     1       7.585  25.306  55.909  1.00  0.00     0.016 A 
HETATM   31  C   UNL     1       7.976  24.231  56.720  1.00  0.00     0.039 A 
HETATM   32  C   UNL     1       7.924  22.927  56.227  1.00  0.00     0.035 A 
HETATM   33 CL   UNL     1       8.419  21.616  57.227  1.00  0.00    -0.084 Cl
HETATM   34  C   UNL     1       7.481  22.675  54.930  1.00  0.00     0.024 A 
HETATM   35  C   UNL     1       7.084  23.735  54.117  1.00  0.00     0.003 A 
HETATM   36  C   UNL     1       7.137  25.043  54.605  1.00  0.00     0.015 A 
ENDBRANCH   7  30
TORSDOF 5
ENDMDL
MODEL 2
REMARK VINA RESULT:      -9.4      6.861     10.529
REMARK  5 active torsions:
REMARK  status: ('A' for Active; 'I' for Inactive)
REMARK    1  A    between atoms: C_7  and  C_8 
REMARK    2  A    between atoms: C_16  and  C_17 
REMARK    3  A    between atoms: C_20  and  O_21 
REMARK    4  A    between atoms: C_24  and  C_25 
REMARK       I    between atoms: C_25  and  N_26 
REMARK    5  A    between atoms: N_26  and  C_27 
ROOT
HETATM    1  C   UNL     1       4.129  28.491  54.356  1.00  0.00     0.070 C 
HETATM    2  C   UNL     1       4.569  28.920  52.979  1.00  0.00     0.037 C 
HETATM    3  N   UNL     1       4.356  30.258  52.659  1.00  0.00    -0.192 N 
HETATM    4  C   UNL     1       4.880  30.837  51.561  1.00  0.00     0.726 A 
HETATM    5  N   UNL     1       5.461  30.054  50.603  1.00  0.00    -0.083 N 
HETATM    6  N   UNL     1       6.105  30.799  49.682  1.00  0.00    -0.135 NA
HETATM    7  C   UNL     1       5.784  32.045  50.081  1.00  0.00     0.199 A 
HETATM    8  N   UNL     1       5.020  32.093  51.235  1.00  0.00    -0.041 NA
HETATM    9  C   UNL     1       5.567  28.594  50.696  1.00  0.00     0.202 C 
HETATM   10  C   UNL     1       5.175  28.104  52.081  1.00  0.00     0.062 C 
HETATM   11  H   UNL     1       3.984  30.858  53.391  1.00  0.00     0.184 HD
ENDROOT
BRANCH  10  12
HETATM   12  C   UNL     1       5.443  26.678  52.405  1.00  0.00     0.256 C 
HETATM   13  N   UNL     1       6.711  26.478  52.908  1.00  0.00    -0.323 N 
HETATM   14  H   UNL     1       7.319  27.281  53.002  1.00  0.00     0.169 HD
HETATM   15  O   UNL     1       4.565  25.843  52.235  1.00  0.00    -0.267 OA
BRANCH  13  16
HETATM   16  C   UNL     1       7.267  25.262  53.361  1.00  0.00     0.035 A 
HETATM   17  C   UNL     1       7.722  24.248  52.519  1.00  0.00     0.029 A 
HETATM   18  C   UNL     1       8.235  23.061  53.052  1.00  0.00     0.002 A 
HETATM   19  C   UNL     1       8.309  22.884  54.431  1.00  0.00     0.000 A 
HETATM   20  C   UNL     1       7.865  23.893  55.282  1.00  0.00     0.002 A 
HETATM   21  C   UNL     1       7.340  25.074  54.749  1.00  0.00     0.029 A 
ENDBRANCH  13  16
ENDBRANCH  10  12
BRANCH   9  22
HETATM   22  C   UNL     1       4.766  27.930  49.581  1.00  0.00    -0.028 A 
HETATM   23  C   UNL     1       3.386  28.175  49.467  1.00  0.00     0.012 A 
HETATM   24  C   UNL     1       2.637  27.585  48.445  1.00  0.00     0.037 A 
HETATM   25  C   UNL     1       3.266  26.747  47.532  1.00  0.00     0.065 A 
HETATM   26  C   UNL     1       4.628  26.489  47.623  1.00  0.00     0.037 A 
HETATM   27  C   UNL     1       5.378  27.079  48.643  1.00  0.00     0.012 A 
BRANCH  25  28
HETATM   28  O   UNL     1       2.574  26.151  46.518  1.00  0.00    -0.361 OA
HETATM   29  H   UNL     1       1.795  26.694  46.314  1.00  0.00     0.217 HD
ENDBRANCH  25  28
ENDBRANCH   9  22
BRANCH   7  30
HETATM   30  C   UNL     1       6.253  33.258  49.415  1.00  0.00     0.016 A 
HETATM   31  C   UNL     1       6.801  33.204  48.125  1.00  0.00     0.039 A 
HETATM   32  C   UNL     1       7.273  34.368  47.517  1.00  0.00     0.035 A 
HETATM   33 CL   UNL     1       7.957  34.288  45.939  1.00  0.00    -0.084 Cl
HETATM   34  C   UNL     1       7.202  35.593  48.176  1.00  0.00     0.024 A 
HETATM   35  C   UNL     1       6.653  35.659  49.455  1.00  0.00     0.003 A 
HETATM   36  C   UNL     1       6.182  34.497  50.070  1.00  0.00     0.015 A 
ENDBRANCH   7  30
TORSDOF 5
ENDMDL
MODEL 3
REMARK VINA RESULT:      -9.2      4.384      6.929
REMARK  5 active torsions:
REMARK  status: ('A' for Active; 'I' for Inactive)
REMARK    1  A    between atoms: C_7  and  C_8 
REMARK    2  A    between atoms: C_16  and  C_17 
REMARK    3  A    between atoms: C_20  and  O_21 
REMARK    4  A    between atoms: C_24  and  C_25 
REMARK       I    between atoms: C_25  and  N_26 
REMARK    5  A    between atoms: N_26  and  C_27 
ROOT
HETATM    1  C   UNL     1       3.662  28.076  50.001  1.00  0.00     0.070 C 
HETATM    2  C   UNL     1       4.495  27.609  51.168  1.00  0.00     0.037 C 
HETATM    3  N   UNL     1       4.449  26.245  51.444  1.00  0.00    -0.192 N 
HETATM    4  C   UNL     1       5.290  25.648  52.310  1.00  0.00     0.726 A 
HETATM    5  N   UNL     1       6.079  26.419  53.117  1.00  0.00    -0.083 N 
HETATM    6  N   UNL     1       6.994  25.673  53.768  1.00  0.00    -0.135 NA
HETATM    7  C   UNL     1       6.636  24.430  53.393  1.00  0.00     0.199 A 
HETATM    8  N   UNL     1       5.580  24.389  52.498  1.00  0.00    -0.041 NA
HETATM    9  C   UNL     1       6.082  27.886  53.097  1.00  0.00     0.202 C 
HETATM   10  C   UNL     1       5.289  28.417  51.913  1.00  0.00     0.062 C 
HETATM   11  H   UNL     1       3.914  25.660  50.807  1.00  0.00     0.184 HD
ENDROOT
BRANCH  10  12
HETATM   12  C   UNL     1       5.382  29.873  51.623  1.00  0.00     0.256 C 
HETATM   13  N   UNL     1       4.455  30.613  52.327  1.00  0.00    -0.323 N 
HETATM   14  H   UNL     1       3.822  30.122  52.944  1.00  0.00     0.169 HD
HETATM   15  O   UNL     1       6.236  30.284  50.850  1.00  0.00    -0.267 OA
BRANCH  13  16
HETATM   16  C   UNL     1       4.307  32.017  52.326  1.00  0.00     0.035 A 
HETATM   17  C   UNL     1       4.099  32.780  51.177  1.00  0.00     0.029 A 
HETATM   18  C   UNL     1       3.989  34.172  51.262  1.00  0.00     0.002 A 
HETATM   19  C   UNL     1       4.073  34.810  52.496  1.00  0.00     0.000 A 
HETATM   20  C   UNL     1       4.273  34.058  53.650  1.00  0.00     0.002 A 
HETATM   21  C   UNL     1       4.396  32.668  53.565  1.00  0.00     0.029 A 
ENDBRANCH  13  16
ENDBRANCH  10  12
BRANCH   9  22
HETATM   22  C   UNL     1       5.598  28.437  54.434  1.00  0.00    -0.028 A 
HETATM   23  C   UNL     1       6.500  29.091  55.291  1.00  0.00     0.012 A 
HETATM   24  C   UNL     1       6.072  29.613  56.515  1.00  0.00     0.037 A 
HETATM   25  C   UNL     1       4.740  29.481  56.887  1.00  0.00     0.065 A 
HETATM   26  C   UNL     1       3.830  28.839  56.058  1.00  0.00     0.037 A 
HETATM   27  C   UNL     1       4.255  28.318  54.834  1.00  0.00     0.012 A 
BRANCH  25  28
HETATM   28  O   UNL     1       4.280  29.976  58.072  1.00  0.00    -0.361 OA
HETATM   29  H   UNL     1       4.553  30.905  58.147  1.00  0.00     0.217 HD
ENDBRANCH  25  28
ENDBRANCH   9  22
BRANCH   7  30
HETATM   30  C   UNL     1       7.334  23.219  53.817  1.00  0.00     0.016 A 
HETATM   31  C   UNL     1       7.470  22.907  55.178  1.00  0.00     0.039 A 
HETATM   32  C   UNL     1       8.167  21.762  55.566  1.00  0.00     0.035 A 
HETATM   33 CL   UNL     1       8.340  21.396  57.240  1.00  0.00    -0.084 Cl
HETATM   34  C   UNL     1       8.731  20.916  54.614  1.00  0.00     0.024 A 
HETATM   35  C   UNL     1       8.596  21.213  53.259  1.00  0.00     0.003 A 
HETATM   36  C   UNL     1       7.902  22.359  52.864  1.00  0.00     0.015 A 
ENDBRANCH   7  30
TORSDOF 5
ENDMDL
MODEL 4
REMARK VINA RESULT:      -9.1      3.206      4.958
REMARK  5 active torsions:
REMARK  status: ('A' for Active; 'I' for Inactive)
REMARK    1  A    between atoms: C_7  and  C_8 
REMARK    2  A    between atoms: C_16  and  C_17 
REMARK    3  A    between atoms: C_20  and  O_21 
REMARK    4  A    between atoms: C_24  and  C_25 
REMARK       I    between atoms: C_25  and  N_26 
REMARK    5  A    between atoms: N_26  and  C_27 
ROOT
HETATM    1  C   UNL     1       7.701  29.918  58.182  1.00  0.00     0.070 C 
HETATM    2  C   UNL     1       7.237  28.762  57.330  1.00  0.00     0.037 C 
HETATM    3  N   UNL     1       8.166  27.747  57.120  1.00  0.00    -0.192 N 
HETATM    4  C   UNL     1       7.839  26.564  56.565  1.00  0.00     0.726 A 
HETATM    5  N   UNL     1       6.612  26.413  55.984  1.00  0.00    -0.083 N 
HETATM    6  N   UNL     1       6.375  25.125  55.663  1.00  0.00    -0.135 NA
HETATM    7  C   UNL     1       7.553  24.553  55.980  1.00  0.00     0.199 A 
HETATM    8  N   UNL     1       8.477  25.425  56.532  1.00  0.00    -0.041 NA
HETATM    9  C   UNL     1       5.597  27.471  55.932  1.00  0.00     0.202 C 
HETATM   10  C   UNL     1       5.991  28.649  56.808  1.00  0.00     0.062 C 
HETATM   11  H   UNL     1       9.058  27.825  57.604  1.00  0.00     0.184 HD
ENDROOT
BRANCH  10  12
HETATM   12  C   UNL     1       4.968  29.703  57.040  1.00  0.00     0.256 C 
HETATM   13  N   UNL     1       5.018  30.706  56.095  1.00  0.00    -0.323 N 
HETATM   14  H   UNL     1       5.716  30.641  55.366  1.00  0.00     0.169 HD
HETATM   15  O   UNL     1       4.190  29.597  57.979  1.00  0.00    -0.267 OA
BRANCH  13  16
HETATM   16  C   UNL     1       4.160  31.823  55.991  1.00  0.00     0.035 A 
HETATM   17  C   UNL     1       4.450  33.082  56.515  1.00  0.00     0.029 A 
HETATM   18  C   UNL     1       3.530  34.130  56.391  1.00  0.00     0.002 A 
HETATM   19  C   UNL     1       2.321  33.929  55.731  1.00  0.00     0.000 A 
HETATM   20  C   UNL     1       2.024  32.678  55.197  1.00  0.00     0.002 A 
HETATM   21  C   UNL     1       2.937  31.628  55.333  1.00  0.00     0.029 A 
ENDBRANCH  13  16
ENDBRANCH  10  12
BRANCH   9  22
HETATM   22  C   UNL     1       5.318  27.869  54.487  1.00  0.00    -0.028 A 
HETATM   23  C   UNL     1       3.992  28.023  54.045  1.00  0.00     0.012 A 
HETATM   24  C   UNL     1       3.717  28.400  52.727  1.00  0.00     0.037 A 
HETATM   25  C   UNL     1       4.768  28.622  51.845  1.00  0.00     0.065 A 
HETATM   26  C   UNL     1       6.086  28.475  52.258  1.00  0.00     0.037 A 
HETATM   27  C   UNL     1       6.363  28.100  53.574  1.00  0.00     0.012 A 
BRANCH  25  28
HETATM   28  O   UNL     1       4.545  28.991  50.552  1.00  0.00    -0.361 OA
HETATM   29  H   UNL     1       4.547  28.194  49.997  1.00  0.00     0.217 HD
ENDBRANCH  25  28
ENDBRANCH   9  22
BRANCH   7  30
HETATM   30  C   UNL     1       7.829  23.126  55.836  1.00  0.00     0.016 A 
HETATM   31  C   UNL     1       7.759  22.503  54.582  1.00  0.00     0.039 A 
HETATM   32  C   UNL     1       7.995  21.133  54.467  1.00  0.00     0.035 A 
HETATM   33 CL   UNL     1       7.892  20.376  52.924  1.00  0.00    -0.084 Cl
HETATM   34  C   UNL     1       8.308  20.369  55.590  1.00  0.00     0.024 A 
HETATM   35  C   UNL     1       8.387  20.979  56.840  1.00  0.00     0.003 A 
HETATM   36  C   UNL     1       8.148  22.351  56.961  1.00  0.00     0.015 A 
ENDBRANCH   7  30
TORSDOF 5
ENDMDL
MODEL 5
REMARK VINA RESULT:      -9.1      4.222      7.649
REMARK  5 active torsions:
REMARK  status: ('A' for Active; 'I' for Inactive)
REMARK    1  A    between atoms: C_7  and  C_8 
REMARK    2  A    between atoms: C_16  and  C_17 
REMARK    3  A    between atoms: C_20  and  O_21 
REMARK    4  A    between atoms: C_24  and  C_25 
REMARK       I    between atoms: C_25  and  N_26 
REMARK    5  A    between atoms: N_26  and  C_27 
ROOT
HETATM    1  C   UNL     1       3.267  28.498  50.302  1.00  0.00     0.070 C 
HETATM    2  C   UNL     1       4.191  28.105  51.427  1.00  0.00     0.037 C 
HETATM    3  N   UNL     1       4.297  26.741  51.682  1.00  0.00    -0.192 N 
HETATM    4  C   UNL     1       5.230  26.223  52.504  1.00  0.00     0.726 A 
HETATM    5  N   UNL     1       5.967  27.062  53.293  1.00  0.00    -0.083 N 
HETATM    6  N   UNL     1       6.980  26.406  53.896  1.00  0.00    -0.135 NA
HETATM    7  C   UNL     1       6.737  25.138  53.514  1.00  0.00     0.199 A 
HETATM    8  N   UNL     1       5.656  24.999  52.660  1.00  0.00    -0.041 NA
HETATM    9  C   UNL     1       5.817  28.521  53.298  1.00  0.00     0.202 C 
HETATM   10  C   UNL     1       4.927  28.982  52.154  1.00  0.00     0.062 C 
HETATM   11  H   UNL     1       3.801  26.111  51.056  1.00  0.00     0.184 HD
ENDROOT
BRANCH  10  12
HETATM   12  C   UNL     1       4.857  30.443  51.886  1.00  0.00     0.256 C 
HETATM   13  N   UNL     1       5.731  30.841  50.896  1.00  0.00    -0.323 N 
HETATM   14  H   UNL     1       6.316  30.139  50.465  1.00  0.00     0.169 HD
HETATM   15  O   UNL     1       4.063  31.136  52.507  1.00  0.00    -0.267 OA
BRANCH  13  16
HETATM   16  C   UNL     1       5.881  32.141  50.365  1.00  0.00     0.035 A 
HETATM   17  C   UNL     1       5.711  33.312  51.103  1.00  0.00     0.029 A 
HETATM   18  C   UNL     1       5.853  34.562  50.491  1.00  0.00     0.002 A 
HETATM   19  C   UNL     1       6.178  34.650  49.140  1.00  0.00     0.000 A 
HETATM   20  C   UNL     1       6.358  33.488  48.396  1.00  0.00     0.002 A 
HETATM   21  C   UNL     1       6.204  32.239  49.004  1.00  0.00     0.029 A 
ENDBRANCH  13  16
ENDBRANCH  10  12
BRANCH   9  22
HETATM   22  C   UNL     1       5.333  29.002  54.661  1.00  0.00    -0.028 A 
HETATM   23  C   UNL     1       4.002  28.775  55.053  1.00  0.00     0.012 A 
HETATM   24  C   UNL     1       3.543  29.198  56.304  1.00  0.00     0.037 A 
HETATM   25  C   UNL     1       4.414  29.851  57.168  1.00  0.00     0.065 A 
HETATM   26  C   UNL     1       5.734  30.087  56.803  1.00  0.00     0.037 A 
HETATM   27  C   UNL     1       6.194  29.664  55.554  1.00  0.00     0.012 A 
BRANCH  25  28
HETATM   28  O   UNL     1       4.009  30.280  58.397  1.00  0.00    -0.361 OA
HETATM   29  H   UNL     1       3.051  30.143  58.473  1.00  0.00     0.217 HD
ENDBRANCH  25  28
ENDBRANCH   9  22
BRANCH   7  30
HETATM   30  C   UNL     1       7.574  24.001  53.890  1.00  0.00     0.016 A 
HETATM   31  C   UNL     1       7.606  22.840  53.104  1.00  0.00     0.039 A 
HETATM   32  C   UNL     1       8.387  21.752  53.494  1.00  0.00     0.035 A 
HETATM   33 CL   UNL     1       8.407  20.327  52.528  1.00  0.00    -0.084 Cl
HETATM   34  C   UNL     1       9.145  21.804  54.662  1.00  0.00     0.024 A 
HETATM   35  C   UNL     1       9.125  22.955  55.448  1.00  0.00     0.003 A 
HETATM   36  C   UNL     1       8.343  24.047  55.063  1.00  0.00     0.015 A 
ENDBRANCH   7  30
TORSDOF 5
ENDMDL
MODEL 6
REMARK VINA RESULT:      -8.7      1.478      2.230
REMARK  5 active torsions:
REMARK  status: ('A' for Active; 'I' for Inactive)
REMARK    1  A    between atoms: C_7  and  C_8 
REMARK    2  A    between atoms: C_16  and  C_17 
REMARK    3  A    between atoms: C_20  and  O_21 
REMARK    4  A    between atoms: C_24  and  C_25 
REMARK       I    between atoms: C_25  and  N_26 
REMARK    5  A    between atoms: N_26  and  C_27 
ROOT
HETATM    1  C   UNL     1       8.856  32.423  59.783  1.00  0.00     0.070 C 
HETATM    2  C   UNL     1       8.046  31.378  59.058  1.00  0.00     0.037 C 
HETATM    3  N   UNL     1       8.771  30.439  58.330  1.00  0.00    -0.192 N 
HETATM    4  C   UNL     1       8.211  29.331  57.807  1.00  0.00     0.726 A 
HETATM    5  N   UNL     1       6.849  29.212  57.791  1.00  0.00    -0.083 N 
HETATM    6  N   UNL     1       6.469  27.972  57.424  1.00  0.00    -0.135 NA
HETATM    7  C   UNL     1       7.655  27.411  57.122  1.00  0.00     0.199 A 
HETATM    8  N   UNL     1       8.746  28.234  57.343  1.00  0.00    -0.041 NA
HETATM    9  C   UNL     1       5.935  30.226  58.328  1.00  0.00     0.202 C 
HETATM   10  C   UNL     1       6.694  31.287  59.109  1.00  0.00     0.062 C 
HETATM   11  H   UNL     1       9.785  30.486  58.391  1.00  0.00     0.184 HD
ENDROOT
BRANCH  10  12
HETATM   12  C   UNL     1       5.893  32.257  59.903  1.00  0.00     0.256 C 
HETATM   13  N   UNL     1       5.754  31.875  61.221  1.00  0.00    -0.323 N 
HETATM   14  H   UNL     1       6.184  31.009  61.514  1.00  0.00     0.169 HD
HETATM   15  O   UNL     1       5.464  33.270  59.368  1.00  0.00    -0.267 OA
BRANCH  13  16
HETATM   16  C   UNL     1       5.103  32.589  62.251  1.00  0.00     0.035 A 
HETATM   17  C   UNL     1       5.663  32.839  63.503  1.00  0.00     0.029 A 
HETATM   18  C   UNL     1       4.938  33.533  64.478  1.00  0.00     0.002 A 
HETATM   19  C   UNL     1       3.653  33.993  64.202  1.00  0.00     0.000 A 
HETATM   20  C   UNL     1       3.087  33.757  62.953  1.00  0.00     0.002 A 
HETATM   21  C   UNL     1       3.806  33.052  61.983  1.00  0.00     0.029 A 
ENDBRANCH  13  16
ENDBRANCH  10  12
BRANCH   9  22
HETATM   22  C   UNL     1       5.072  30.808  57.214  1.00  0.00    -0.028 A 
HETATM   23  C   UNL     1       3.700  30.507  57.159  1.00  0.00     0.012 A 
HETATM   24  C   UNL     1       2.891  31.041  56.152  1.00  0.00     0.037 A 
HETATM   25  C   UNL     1       3.453  31.877  55.193  1.00  0.00     0.065 A 
HETATM   26  C   UNL     1       4.806  32.187  55.226  1.00  0.00     0.037 A 
HETATM   27  C   UNL     1       5.615  31.656  56.232  1.00  0.00     0.012 A 
BRANCH  25  28
HETATM   28  O   UNL     1       2.700  32.419  54.194  1.00  0.00    -0.361 OA
HETATM   29  H   UNL     1       1.859  32.726  54.571  1.00  0.00     0.217 HD
ENDBRANCH  25  28
ENDBRANCH   9  22
BRANCH   7  30
HETATM   30  C   UNL     1       7.810  26.029  56.673  1.00  0.00     0.016 A 
HETATM   31  C   UNL     1       7.322  25.619  55.424  1.00  0.00     0.039 A 
HETATM   32  C   UNL     1       7.451  24.289  55.024  1.00  0.00     0.035 A 
HETATM   33 CL   UNL     1       6.836  23.794  53.494  1.00  0.00    -0.084 Cl
HETATM   34  C   UNL     1       8.067  23.354  55.854  1.00  0.00     0.024 A 
HETATM   35  C   UNL     1       8.561  23.752  57.095  1.00  0.00     0.003 A 
HETATM   36  C   UNL     1       8.432  25.082  57.502  1.00  0.00     0.015 A 
ENDBRANCH   7  30
TORSDOF 5
ENDMDL
MODEL 7
REMARK VINA RESULT:      -8.4      3.741      5.310
REMARK  5 active torsions:
REMARK  status: ('A' for Active; 'I' for Inactive)
REMARK    1  A    between atoms: C_7  and  C_8 
REMARK    2  A    between atoms: C_16  and  C_17 
REMARK    3  A    between atoms: C_20  and  O_21 
REMARK    4  A    between atoms: C_24  and  C_25 
REMARK       I    between atoms: C_25  and  N_26 
REMARK    5  A    between atoms: N_26  and  C_27 
ROOT
HETATM    1  C   UNL     1       7.936  32.247  61.990  1.00  0.00     0.070 C 
HETATM    2  C   UNL     1       6.760  32.214  61.046  1.00  0.00     0.037 C 
HETATM    3  N   UNL     1       7.060  31.984  59.706  1.00  0.00    -0.192 N 
HETATM    4  C   UNL     1       6.115  31.718  58.783  1.00  0.00     0.726 A 
HETATM    5  N   UNL     1       4.798  31.888  59.104  1.00  0.00    -0.083 N 
HETATM    6  N   UNL     1       3.990  31.390  58.147  1.00  0.00    -0.135 NA
HETATM    7  C   UNL     1       4.886  31.024  57.210  1.00  0.00     0.199 A 
HETATM    8  N   UNL     1       6.206  31.225  57.578  1.00  0.00    -0.041 NA
HETATM    9  C   UNL     1       4.330  32.339  60.419  1.00  0.00     0.202 C 
HETATM   10  C   UNL     1       5.467  32.354  61.429  1.00  0.00     0.062 C 
HETATM   11  H   UNL     1       8.031  31.793  59.473  1.00  0.00     0.184 HD
ENDROOT
BRANCH  10  12
HETATM   12  C   UNL     1       5.113  32.571  62.857  1.00  0.00     0.256 C 
HETATM   13  N   UNL     1       5.299  33.878  63.255  1.00  0.00    -0.323 N 
HETATM   14  H   UNL     1       5.647  34.539  62.574  1.00  0.00     0.169 HD
HETATM   15  O   UNL     1       4.687  31.638  63.524  1.00  0.00    -0.267 OA
BRANCH  13  16
HETATM   16  C   UNL     1       5.012  34.431  64.522  1.00  0.00     0.035 A 
HETATM   17  C   UNL     1       3.979  35.337  64.763  1.00  0.00     0.029 A 
HETATM   18  C   UNL     1       3.780  35.859  66.046  1.00  0.00     0.002 A 
HETATM   19  C   UNL     1       4.602  35.468  67.099  1.00  0.00     0.000 A 
HETATM   20  C   UNL     1       5.630  34.558  66.872  1.00  0.00     0.002 A 
HETATM   21  C   UNL     1       5.839  34.047  65.588  1.00  0.00     0.029 A 
ENDBRANCH  13  16
ENDBRANCH  10  12
BRANCH   9  22
HETATM   22  C   UNL     1       3.623  33.685  60.299  1.00  0.00    -0.028 A 
HETATM   23  C   UNL     1       4.268  34.763  59.668  1.00  0.00     0.012 A 
HETATM   24  C   UNL     1       3.632  36.001  59.538  1.00  0.00     0.037 A 
HETATM   25  C   UNL     1       2.346  36.165  60.040  1.00  0.00     0.065 A 
HETATM   26  C   UNL     1       1.688  35.116  60.669  1.00  0.00     0.037 A 
HETATM   27  C   UNL     1       2.322  33.879  60.798  1.00  0.00     0.012 A 
BRANCH  25  28
HETATM   28  O   UNL     1       1.688  37.355  59.935  1.00  0.00    -0.361 OA
HETATM   29  H   UNL     1       0.762  37.222  60.197  1.00  0.00     0.217 HD
ENDBRANCH  25  28
ENDBRANCH   9  22
BRANCH   7  30
HETATM   30  C   UNL     1       4.525  30.396  55.942  1.00  0.00     0.016 A 
HETATM   31  C   UNL     1       4.878  29.066  55.672  1.00  0.00     0.039 A 
HETATM   32  C   UNL     1       4.553  28.491  54.443  1.00  0.00     0.035 A 
HETATM   33 CL   UNL     1       5.004  26.861  54.118  1.00  0.00    -0.084 Cl
HETATM   34  C   UNL     1       3.873  29.225  53.473  1.00  0.00     0.024 A 
HETATM   35  C   UNL     1       3.512  30.545  53.732  1.00  0.00     0.003 A 
HETATM   36  C   UNL     1       3.837  31.127  54.960  1.00  0.00     0.015 A 
ENDBRANCH   7  30
TORSDOF 5
ENDMDL
MODEL 8
REMARK VINA RESULT:      -8.2      3.780      7.090
REMARK  5 active torsions:
REMARK  status: ('A' for Active; 'I' for Inactive)
REMARK    1  A    between atoms: C_7  and  C_8 
REMARK    2  A    between atoms: C_16  and  C_17 
REMARK    3  A    between atoms: C_20  and  O_21 
REMARK    4  A    between atoms: C_24  and  C_25 
REMARK       I    between atoms: C_25  and  N_26 
REMARK    5  A    between atoms: N_26  and  C_27 
ROOT
HETATM    1  C   UNL     1       2.386  29.715  50.946  1.00  0.00     0.070 C 
HETATM    2  C   UNL     1       3.373  29.209  51.968  1.00  0.00     0.037 C 
HETATM    3  N   UNL     1       3.429  27.828  52.131  1.00  0.00    -0.192 N 
HETATM    4  C   UNL     1       4.395  27.217  52.844  1.00  0.00     0.726 A 
HETATM    5  N   UNL     1       5.233  27.968  53.620  1.00  0.00    -0.083 N 
HETATM    6  N   UNL     1       6.254  27.230  54.098  1.00  0.00    -0.135 NA
HETATM    7  C   UNL     1       5.918  26.001  53.662  1.00  0.00     0.199 A 
HETATM    8  N   UNL     1       4.769  25.967  52.890  1.00  0.00    -0.041 NA
HETATM    9  C   UNL     1       5.158  29.429  53.724  1.00  0.00     0.202 C 
HETATM   10  C   UNL     1       4.206  30.003  52.685  1.00  0.00     0.062 C 
HETATM   11  H   UNL     1       2.855  27.263  51.510  1.00  0.00     0.184 HD
ENDROOT
BRANCH  10  12
HETATM   12  C   UNL     1       4.191  31.480  52.512  1.00  0.00     0.256 C 
HETATM   13  N   UNL     1       5.175  31.922  51.653  1.00  0.00    -0.323 N 
HETATM   14  H   UNL     1       5.792  31.236  51.241  1.00  0.00     0.169 HD
HETATM   15  O   UNL     1       3.344  32.149  53.089  1.00  0.00    -0.267 OA
BRANCH  13  16
HETATM   16  C   UNL     1       5.404  33.250  51.231  1.00  0.00     0.035 A 
HETATM   17  C   UNL     1       5.119  33.723  49.950  1.00  0.00     0.029 A 
HETATM   18  C   UNL     1       5.403  35.050  49.606  1.00  0.00     0.002 A 
HETATM   19  C   UNL     1       5.959  35.915  50.544  1.00  0.00     0.000 A 
HETATM   20  C   UNL     1       6.240  35.456  51.827  1.00  0.00     0.002 A 
HETATM   21  C   UNL     1       5.969  34.127  52.168  1.00  0.00     0.029 A 
ENDBRANCH  13  16
ENDBRANCH  10  12
BRANCH   9  22
HETATM   22  C   UNL     1       4.805  29.844  55.148  1.00  0.00    -0.028 A 
HETATM   23  C   UNL     1       5.818  30.267  56.027  1.00  0.00     0.012 A 
HETATM   24  C   UNL     1       5.513  30.662  57.332  1.00  0.00     0.037 A 
HETATM   25  C   UNL     1       4.192  30.633  57.765  1.00  0.00     0.065 A 
HETATM   26  C   UNL     1       3.174  30.218  56.917  1.00  0.00     0.037 A 
HETATM   27  C   UNL     1       3.477  29.825  55.611  1.00  0.00     0.012 A 
BRANCH  25  28
HETATM   28  O   UNL     1       3.850  31.011  59.030  1.00  0.00    -0.361 OA
HETATM   29  H   UNL     1       4.432  30.554  59.659  1.00  0.00     0.217 HD
ENDBRANCH  25  28
ENDBRANCH   9  22
BRANCH   7  30
HETATM   30  C   UNL     1       6.722  24.805  53.901  1.00  0.00     0.016 A 
HETATM   31  C   UNL     1       7.089  24.433  55.203  1.00  0.00     0.039 A 
HETATM   32  C   UNL     1       7.883  23.305  55.411  1.00  0.00     0.035 A 
HETATM   33 CL   UNL     1       8.338  22.866  57.012  1.00  0.00    -0.084 Cl
HETATM   34  C   UNL     1       8.318  22.534  54.335  1.00  0.00     0.024 A 
HETATM   35  C   UNL     1       7.955  22.891  53.037  1.00  0.00     0.003 A 
HETATM   36  C   UNL     1       7.162  24.021  52.823  1.00  0.00     0.015 A 
ENDBRANCH   7  30
TORSDOF 5
ENDMDL
MODEL 9
REMARK VINA RESULT:      -8.0      3.343      4.628
REMARK  5 active torsions:
REMARK  status: ('A' for Active; 'I' for Inactive)
REMARK    1  A    between atoms: C_7  and  C_8 
REMARK    2  A    between atoms: C_16  and  C_17 
REMARK    3  A    between atoms: C_20  and  O_21 
REMARK    4  A    between atoms: C_24  and  C_25 
REMARK       I    between atoms: C_25  and  N_26 
REMARK    5  A    between atoms: N_26  and  C_27 
ROOT
HETATM    1  C   UNL     1       8.445  32.372  62.502  1.00  0.00     0.070 C 
HETATM    2  C   UNL     1       7.494  32.097  61.365  1.00  0.00     0.037 C 
HETATM    3  N   UNL     1       8.080  31.809  60.135  1.00  0.00    -0.192 N 
HETATM    4  C   UNL     1       7.378  31.340  59.085  1.00  0.00     0.726 A 
HETATM    5  N   UNL     1       6.012  31.345  59.137  1.00  0.00    -0.083 N 
HETATM    6  N   UNL     1       5.479  30.664  58.103  1.00  0.00    -0.135 NA
HETATM    7  C   UNL     1       6.581  30.358  57.392  1.00  0.00     0.199 A 
HETATM    8  N   UNL     1       7.766  30.772  57.976  1.00  0.00    -0.041 NA
HETATM    9  C   UNL     1       5.240  31.826  60.288  1.00  0.00     0.202 C 
HETATM   10  C   UNL     1       6.144  32.081  61.484  1.00  0.00     0.062 C 
HETATM   11  H   UNL     1       9.094  31.741  60.108  1.00  0.00     0.184 HD
ENDROOT
BRANCH  10  12
HETATM   12  C   UNL     1       5.489  32.356  62.791  1.00  0.00     0.256 C 
HETATM   13  N   UNL     1       5.661  33.660  63.205  1.00  0.00    -0.323 N 
HETATM   14  H   UNL     1       6.196  34.282  62.613  1.00  0.00     0.169 HD
HETATM   15  O   UNL     1       4.866  31.467  63.355  1.00  0.00    -0.267 OA
BRANCH  13  16
HETATM   16  C   UNL     1       5.129  34.263  64.366  1.00  0.00     0.035 A 
HETATM   17  C   UNL     1       5.359  33.800  65.661  1.00  0.00     0.029 A 
HETATM   18  C   UNL     1       4.770  34.442  66.757  1.00  0.00     0.002 A 
HETATM   19  C   UNL     1       3.960  35.558  66.566  1.00  0.00     0.000 A 
HETATM   20  C   UNL     1       3.732  36.033  65.278  1.00  0.00     0.002 A 
HETATM   21  C   UNL     1       4.308  35.385  64.182  1.00  0.00     0.029 A 
ENDBRANCH  13  16
ENDBRANCH  10  12
BRANCH   9  22
HETATM   22  C   UNL     1       4.408  33.044  59.899  1.00  0.00    -0.028 A 
HETATM   23  C   UNL     1       4.872  33.921  58.903  1.00  0.00     0.012 A 
HETATM   24  C   UNL     1       4.118  35.036  58.525  1.00  0.00     0.037 A 
HETATM   25  C   UNL     1       2.897  35.279  59.143  1.00  0.00     0.065 A 
HETATM   26  C   UNL     1       2.418  34.427  60.130  1.00  0.00     0.037 A 
HETATM   27  C   UNL     1       3.170  33.312  60.508  1.00  0.00     0.012 A 
BRANCH  25  28
HETATM   28  O   UNL     1       2.130  36.353  58.804  1.00  0.00    -0.361 OA
HETATM   29  H   UNL     1       1.444  36.471  59.482  1.00  0.00     0.217 HD
ENDBRANCH  25  28
ENDBRANCH   9  22
BRANCH   7  30
HETATM   30  C   UNL     1       6.560  29.587  56.151  1.00  0.00     0.016 A 
HETATM   31  C   UNL     1       5.362  29.381  55.452  1.00  0.00     0.039 A 
HETATM   32  C   UNL     1       5.355  28.617  54.285  1.00  0.00     0.035 A 
HETATM   33 CL   UNL     1       3.875  28.359  53.443  1.00  0.00    -0.084 Cl
HETATM   34  C   UNL     1       6.533  28.055  53.797  1.00  0.00     0.024 A 
HETATM   35  C   UNL     1       7.731  28.258  54.480  1.00  0.00     0.003 A 
HETATM   36  C   UNL     1       7.742  29.020  55.651  1.00  0.00     0.015 A 
ENDBRANCH   7  30
TORSDOF 5
ENDMDL
MODEL 10
REMARK VINA RESULT:      -7.9      6.379      9.715
REMARK  5 active torsions:
REMARK  status: ('A' for Active; 'I' for Inactive)
REMARK    1  A    between atoms: C_7  and  C_8 
REMARK    2  A    between atoms: C_16  and  C_17 
REMARK    3  A    between atoms: C_20  and  O_21 
REMARK    4  A    between atoms: C_24  and  C_25 
REMARK       I    between atoms: C_25  and  N_26 
REMARK    5  A    between atoms: N_26  and  C_27 
ROOT
HETATM    1  C   UNL     1       5.198  32.265  49.951  1.00  0.00     0.070 C 
HETATM    2  C   UNL     1       4.847  30.853  50.348  1.00  0.00     0.037 C 
HETATM    3  N   UNL     1       5.837  30.144  51.022  1.00  0.00    -0.192 N 
HETATM    4  C   UNL     1       5.605  28.960  51.622  1.00  0.00     0.726 A 
HETATM    5  N   UNL     1       4.425  28.311  51.390  1.00  0.00    -0.083 N 
HETATM    6  N   UNL     1       4.275  27.255  52.215  1.00  0.00    -0.135 NA
HETATM    7  C   UNL     1       5.458  27.252  52.858  1.00  0.00     0.199 A 
HETATM    8  N   UNL     1       6.300  28.291  52.502  1.00  0.00    -0.041 NA
HETATM    9  C   UNL     1       3.363  28.832  50.522  1.00  0.00     0.202 C 
HETATM   10  C   UNL     1       3.643  30.272  50.122  1.00  0.00     0.062 C 
HETATM   11  H   UNL     1       6.692  30.644  51.253  1.00  0.00     0.184 HD
ENDROOT
BRANCH  10  12
HETATM   12  C   UNL     1       2.555  31.014  49.431  1.00  0.00     0.256 C 
HETATM   13  N   UNL     1       1.631  31.540  50.310  1.00  0.00    -0.323 N 
HETATM   14  H   UNL     1       1.767  31.377  51.299  1.00  0.00     0.169 HD
HETATM   15  O   UNL     1       2.571  31.118  48.213  1.00  0.00    -0.267 OA
BRANCH  13  16
HETATM   16  C   UNL     1       0.511  32.338  49.993  1.00  0.00     0.035 A 
HETATM   17  C   UNL     1      -0.749  31.827  49.681  1.00  0.00     0.029 A 
HETATM   18  C   UNL     1      -1.801  32.689  49.352  1.00  0.00     0.002 A 
HETATM   19  C   UNL     1      -1.604  34.068  49.345  1.00  0.00     0.000 A 
HETATM   20  C   UNL     1      -0.353  34.589  49.663  1.00  0.00     0.002 A 
HETATM   21  C   UNL     1       0.702  33.727  49.979  1.00  0.00     0.029 A 
ENDBRANCH  13  16
ENDBRANCH  10  12
BRANCH   9  22
HETATM   22  C   UNL     1       3.155  27.910  49.325  1.00  0.00    -0.028 A 
HETATM   23  C   UNL     1       4.254  27.249  48.749  1.00  0.00     0.012 A 
HETATM   24  C   UNL     1       4.080  26.391  47.659  1.00  0.00     0.037 A 
HETATM   25  C   UNL     1       2.806  26.193  47.139  1.00  0.00     0.065 A 
HETATM   26  C   UNL     1       1.705  26.837  47.690  1.00  0.00     0.037 A 
HETATM   27  C   UNL     1       1.877  27.693  48.780  1.00  0.00     0.012 A 
BRANCH  25  28
HETATM   28  O   UNL     1       2.592  25.365  46.078  1.00  0.00    -0.361 OA
HETATM   29  H   UNL     1       3.017  24.511  46.259  1.00  0.00     0.217 HD
ENDBRANCH  25  28
ENDBRANCH   9  22
BRANCH   7  30
HETATM   30  C   UNL     1       5.814  26.292  53.900  1.00  0.00     0.016 A 
HETATM   31  C   UNL     1       6.432  25.076  53.577  1.00  0.00     0.039 A 
HETATM   32  C   UNL     1       6.738  24.157  54.582  1.00  0.00     0.035 A 
HETATM   33 CL   UNL     1       7.484  22.661  54.171  1.00  0.00    -0.084 Cl
HETATM   34  C   UNL     1       6.439  24.436  55.914  1.00  0.00     0.024 A 
HETATM   35  C   UNL     1       5.831  25.645  56.247  1.00  0.00     0.003 A 
HETATM   36  C   UNL     1       5.520  26.567  55.245  1.00  0.00     0.015 A 
ENDBRANCH   7  30
TORSDOF 5
ENDMDL
