MODEL 1
REMARK VINA RESULT:      -8.9      0.000      0.000
REMARK  9 active torsions:
REMARK  status: ('A' for Active; 'I' for Inactive)
REMARK    1  A    between atoms: O_2  and  C_3 
REMARK    2  A    between atoms: C_3  and  C_4 
REMARK    3  A    between atoms: C_4  and  O_5 
REMARK    4  A    between atoms: O_5  and  C_6 
REMARK       I    between atoms: C_6  and  N_8 
REMARK    5  A    between atoms: N_15  and  C_28 
REMARK    6  A    between atoms: N_18  and  C_19 
REMARK    7  A    between atoms: C_19  and  C_20 
REMARK    8  A    between atoms: C_24  and  O_25 
REMARK    9  A    between atoms: C_31  and  C_34 
ROOT
HETATM    1  C   UNL     1       8.250  23.160  55.823  1.00  0.00     0.362 C 
HETATM    2  O   UNL     1       7.989  23.228  57.019  1.00  0.00    -0.238 OA
HETATM    3  N   UNL     1       7.398  23.628  54.813  1.00  0.00    -0.328 N 
HETATM    4  C   UNL     1       7.939  23.825  53.473  1.00  0.00     0.130 C 
HETATM    5  C   UNL     1       6.901  24.215  52.429  1.00  0.00     0.053 C 
HETATM    6  C   UNL     1       5.945  25.334  52.883  1.00  0.00     0.057 C 
HETATM    7  C   UNL     1       5.335  24.953  54.239  1.00  0.00     0.053 C 
HETATM    8  C   UNL     1       6.342  24.511  55.286  1.00  0.00     0.130 C 
HETATM    9  C   UNL     1       4.795  25.455  51.841  1.00  0.00     0.165 C 
HETATM   10  N   UNL     1       5.074  26.645  51.067  1.00  0.00    -0.297 N 
HETATM   11  C   UNL     1       6.122  27.371  51.656  1.00  0.00     0.326 C 
HETATM   12  O   UNL     1       6.590  28.446  51.310  1.00  0.00    -0.247 OA
HETATM   13  N   UNL     1       6.552  26.670  52.793  1.00  0.00    -0.318 N 
ENDROOT
BRANCH  13  14
HETATM   14  C   UNL     1       7.528  27.268  53.697  1.00  0.00     0.167 C 
BRANCH  14  15
HETATM   15  C   UNL     1       6.929  27.900  54.937  1.00  0.00    -0.037 A 
HETATM   16  C   UNL     1       5.641  28.452  54.932  1.00  0.00     0.009 A 
HETATM   17  C   UNL     1       5.128  29.064  56.075  1.00  0.00     0.003 A 
HETATM   18  C   UNL     1       5.897  29.132  57.235  1.00  0.00     0.037 A 
HETATM   19  C   UNL     1       7.185  28.599  57.262  1.00  0.00     0.068 A 
HETATM   20  C   UNL     1       7.705  28.014  56.106  1.00  0.00     0.045 A 
BRANCH  19  21
HETATM   21  O   UNL     1       7.838  28.723  58.456  1.00  0.00    -0.356 OA
HETATM   22  C   UNL     1       8.038  30.047  58.939  1.00  0.00     0.210 C 
ENDBRANCH  19  21
ENDBRANCH  14  15
ENDBRANCH  13  14
BRANCH  10  23
HETATM   23  C   UNL     1       4.196  27.115  50.047  1.00  0.00     0.039 A 
HETATM   24  C   UNL     1       3.356  28.217  50.240  1.00  0.00     0.030 A 
HETATM   25  C   UNL     1       2.429  28.613  49.265  1.00  0.00     0.014 A 
HETATM   26  C   UNL     1       2.326  27.925  48.055  1.00  0.00    -0.023 A 
HETATM   27  C   UNL     1       3.192  26.852  47.829  1.00  0.00     0.014 A 
HETATM   28  C   UNL     1       4.110  26.452  48.813  1.00  0.00     0.030 A 
BRANCH  26  29
HETATM   29  C   UNL     1       1.341  28.301  47.059  1.00  0.00     0.010 A 
HETATM   30  C   UNL     1       0.278  27.571  46.480  1.00  0.00     0.152 A 
HETATM   31  N   UNL     1      -0.435  28.295  45.614  1.00  0.00    -0.187 NA
HETATM   32  N   UNL     1       0.167  29.494  45.637  1.00  0.00    -0.289 N 
HETATM   33  H   UNL     1      -0.208  30.233  45.051  1.00  0.00     0.188 HD
HETATM   34  C   UNL     1       1.233  29.552  46.487  1.00  0.00     0.123 A 
ENDBRANCH  26  29
ENDBRANCH  10  23
BRANCH   1  35
HETATM   35  O   UNL     1       9.432  22.693  55.338  1.00  0.00    -0.302 OA
BRANCH  35  36
HETATM   36  C   UNL     1       9.662  21.289  55.527  1.00  0.00     0.207 C 
BRANCH  36  37
HETATM   37  C   UNL     1       8.444  20.449  55.166  1.00  0.00     0.193 C 
BRANCH  37  38
HETATM   38  O   UNL     1       8.745  19.693  53.991  1.00  0.00    -0.394 OA
HETATM   39  C   UNL     1       8.398  20.395  52.807  1.00  0.00     0.201 C 
ENDBRANCH  37  38
ENDBRANCH  36  37
ENDBRANCH  35  36
ENDBRANCH   1  35
TORSDOF 9
ENDMDL
MODEL 2
REMARK VINA RESULT:      -8.8      5.476      9.806
REMARK  9 active torsions:
REMARK  status: ('A' for Active; 'I' for Inactive)
REMARK    1  A    between atoms: O_2  and  C_3 
REMARK    2  A    between atoms: C_3  and  C_4 
REMARK    3  A    between atoms: C_4  and  O_5 
REMARK    4  A    between atoms: O_5  and  C_6 
REMARK       I    between atoms: C_6  and  N_8 
REMARK    5  A    between atoms: N_15  and  C_28 
REMARK    6  A    between atoms: N_18  and  C_19 
REMARK    7  A    between atoms: C_19  and  C_20 
REMARK    8  A    between atoms: C_24  and  O_25 
REMARK    9  A    between atoms: C_31  and  C_34 
ROOT
HETATM    1  C   UNL     1       3.461  32.728  57.025  1.00  0.00     0.362 C 
HETATM    2  O   UNL     1       3.415  33.634  56.200  1.00  0.00    -0.238 OA
HETATM    3  N   UNL     1       3.910  31.433  56.733  1.00  0.00    -0.328 N 
HETATM    4  C   UNL     1       4.259  30.545  57.837  1.00  0.00     0.130 C 
HETATM    5  C   UNL     1       4.614  29.126  57.412  1.00  0.00     0.053 C 
HETATM    6  C   UNL     1       5.593  29.054  56.224  1.00  0.00     0.057 C 
HETATM    7  C   UNL     1       5.054  29.919  55.077  1.00  0.00     0.053 C 
HETATM    8  C   UNL     1       4.643  31.324  55.481  1.00  0.00     0.130 C 
HETATM    9  C   UNL     1       5.669  27.578  55.736  1.00  0.00     0.165 C 
HETATM   10  N   UNL     1       6.935  27.060  56.210  1.00  0.00    -0.297 N 
HETATM   11  C   UNL     1       7.720  28.103  56.729  1.00  0.00     0.326 C 
HETATM   12  O   UNL     1       8.860  28.048  57.168  1.00  0.00    -0.247 OA
HETATM   13  N   UNL     1       6.987  29.294  56.624  1.00  0.00    -0.318 N 
ENDROOT
BRANCH  13  14
HETATM   14  C   UNL     1       7.615  30.572  56.941  1.00  0.00     0.167 C 
BRANCH  14  15
HETATM   15  C   UNL     1       7.715  30.870  58.424  1.00  0.00    -0.037 A 
HETATM   16  C   UNL     1       8.639  30.213  59.246  1.00  0.00     0.009 A 
HETATM   17  C   UNL     1       8.683  30.475  60.615  1.00  0.00     0.003 A 
HETATM   18  C   UNL     1       7.802  31.398  61.177  1.00  0.00     0.037 A 
HETATM   19  C   UNL     1       6.867  32.057  60.381  1.00  0.00     0.068 A 
HETATM   20  C   UNL     1       6.807  31.768  59.016  1.00  0.00     0.045 A 
BRANCH  19  21
HETATM   21  O   UNL     1       6.062  32.941  61.045  1.00  0.00    -0.356 OA
HETATM   22  C   UNL     1       6.545  33.430  62.292  1.00  0.00     0.210 C 
ENDBRANCH  19  21
ENDBRANCH  14  15
ENDBRANCH  13  14
BRANCH  10  23
HETATM   23  C   UNL     1       7.384  25.743  55.901  1.00  0.00     0.039 A 
HETATM   24  C   UNL     1       7.469  25.279  54.584  1.00  0.00     0.030 A 
HETATM   25  C   UNL     1       7.822  23.952  54.295  1.00  0.00     0.014 A 
HETATM   26  C   UNL     1       8.118  23.052  55.319  1.00  0.00    -0.023 A 
HETATM   27  C   UNL     1       8.083  23.515  56.637  1.00  0.00     0.014 A 
HETATM   28  C   UNL     1       7.717  24.840  56.922  1.00  0.00     0.030 A 
BRANCH  26  29
HETATM   29  C   UNL     1       8.441  21.668  55.031  1.00  0.00     0.010 A 
HETATM   30  C   UNL     1       8.438  20.945  53.817  1.00  0.00     0.152 A 
HETATM   31  N   UNL     1       8.839  19.679  53.967  1.00  0.00    -0.187 NA
HETATM   32  N   UNL     1       9.104  19.588  55.280  1.00  0.00    -0.289 N 
HETATM   33  H   UNL     1       9.440  18.703  55.644  1.00  0.00     0.188 HD
HETATM   34  C   UNL     1       8.886  20.750  55.961  1.00  0.00     0.123 A 
ENDBRANCH  26  29
ENDBRANCH  10  23
BRANCH   1  35
HETATM   35  O   UNL     1       3.154  32.894  58.340  1.00  0.00    -0.302 OA
BRANCH  35  36
HETATM   36  C   UNL     1       3.634  34.108  58.934  1.00  0.00     0.207 C 
BRANCH  36  37
HETATM   37  C   UNL     1       2.796  34.539  60.131  1.00  0.00     0.193 C 
BRANCH  37  38
HETATM   38  O   UNL     1       2.854  33.509  61.121  1.00  0.00    -0.394 OA
HETATM   39  C   UNL     1       2.594  34.013  62.423  1.00  0.00     0.201 C 
ENDBRANCH  37  38
ENDBRANCH  36  37
ENDBRANCH  35  36
ENDBRANCH   1  35
TORSDOF 9
ENDMDL
MODEL 3
REMARK VINA RESULT:      -8.7      5.913     10.320
REMARK  9 active torsions:
REMARK  status: ('A' for Active; 'I' for Inactive)
REMARK    1  A    between atoms: O_2  and  C_3 
REMARK    2  A    between atoms: C_3  and  C_4 
REMARK    3  A    between atoms: C_4  and  O_5 
REMARK    4  A    between atoms: O_5  and  C_6 
REMARK       I    between atoms: C_6  and  N_8 
REMARK    5  A    between atoms: N_15  and  C_28 
REMARK    6  A    between atoms: N_18  and  C_19 
REMARK    7  A    between atoms: C_19  and  C_20 
REMARK    8  A    between atoms: C_24  and  O_25 
REMARK    9  A    between atoms: C_31  and  C_34 
ROOT
HETATM    1  C   UNL     1       4.027  34.389  58.733  1.00  0.00     0.362 C 
HETATM    2  O   UNL     1       4.225  35.414  58.090  1.00  0.00    -0.238 OA
HETATM    3  N   UNL     1       4.225  33.100  58.222  1.00  0.00    -0.328 N 
HETATM    4  C   UNL     1       4.306  31.979  59.153  1.00  0.00     0.130 C 
HETATM    5  C   UNL     1       4.397  30.613  58.485  1.00  0.00     0.053 C 
HETATM    6  C   UNL     1       5.423  30.544  57.338  1.00  0.00     0.057 C 
HETATM    7  C   UNL     1       5.154  31.689  56.354  1.00  0.00     0.053 C 
HETATM    8  C   UNL     1       5.008  33.057  56.997  1.00  0.00     0.130 C 
HETATM    9  C   UNL     1       5.234  29.193  56.588  1.00  0.00     0.165 C 
HETATM   10  N   UNL     1       6.332  28.344  57.000  1.00  0.00    -0.297 N 
HETATM   11  C   UNL     1       7.273  29.090  57.729  1.00  0.00     0.326 C 
HETATM   12  O   UNL     1       8.343  28.720  58.187  1.00  0.00    -0.247 OA
HETATM   13  N   UNL     1       6.805  30.409  57.821  1.00  0.00    -0.318 N 
ENDROOT
BRANCH  13  14
HETATM   14  C   UNL     1       7.654  31.450  58.391  1.00  0.00     0.167 C 
BRANCH  14  15
HETATM   15  C   UNL     1       7.923  31.297  59.874  1.00  0.00    -0.037 A 
HETATM   16  C   UNL     1       9.058  30.628  60.351  1.00  0.00     0.009 A 
HETATM   17  C   UNL     1       9.261  30.465  61.721  1.00  0.00     0.003 A 
HETATM   18  C   UNL     1       8.332  30.969  62.629  1.00  0.00     0.037 A 
HETATM   19  C   UNL     1       7.190  31.630  62.179  1.00  0.00     0.068 A 
HETATM   20  C   UNL     1       6.976  31.764  60.805  1.00  0.00     0.045 A 
BRANCH  19  21
HETATM   21  O   UNL     1       6.357  32.082  63.164  1.00  0.00    -0.356 OA
HETATM   22  C   UNL     1       4.969  31.809  63.000  1.00  0.00     0.210 C 
ENDBRANCH  19  21
ENDBRANCH  14  15
ENDBRANCH  13  14
BRANCH  10  23
HETATM   23  C   UNL     1       6.526  27.037  56.467  1.00  0.00     0.039 A 
HETATM   24  C   UNL     1       6.519  25.896  57.277  1.00  0.00     0.030 A 
HETATM   25  C   UNL     1       6.803  24.625  56.757  1.00  0.00     0.014 A 
HETATM   26  C   UNL     1       7.087  24.454  55.402  1.00  0.00    -0.023 A 
HETATM   27  C   UNL     1       7.051  25.577  54.572  1.00  0.00     0.014 A 
HETATM   28  C   UNL     1       6.778  26.850  55.099  1.00  0.00     0.030 A 
BRANCH  26  29
HETATM   29  C   UNL     1       7.425  23.150  54.865  1.00  0.00     0.010 A 
HETATM   30  C   UNL     1       7.664  21.913  55.506  1.00  0.00     0.152 A 
HETATM   31  N   UNL     1       7.913  20.923  54.644  1.00  0.00    -0.187 NA
HETATM   32  N   UNL     1       7.833  21.523  53.446  1.00  0.00    -0.289 N 
HETATM   33  H   UNL     1       7.981  20.961  52.614  1.00  0.00     0.188 HD
HETATM   34  C   UNL     1       7.540  22.854  53.522  1.00  0.00     0.123 A 
ENDBRANCH  26  29
ENDBRANCH  10  23
BRANCH   1  35
HETATM   35  O   UNL     1       3.667  34.385  60.046  1.00  0.00    -0.302 OA
BRANCH  35  36
HETATM   36  C   UNL     1       3.967  35.587  60.769  1.00  0.00     0.207 C 
BRANCH  36  37
HETATM   37  C   UNL     1       4.988  35.358  61.876  1.00  0.00     0.193 C 
BRANCH  37  38
HETATM   38  O   UNL     1       4.299  35.311  63.127  1.00  0.00    -0.394 OA
HETATM   39  C   UNL     1       3.699  36.558  63.447  1.00  0.00     0.201 C 
ENDBRANCH  37  38
ENDBRANCH  36  37
ENDBRANCH  35  36
ENDBRANCH   1  35
TORSDOF 9
ENDMDL
MODEL 4
REMARK VINA RESULT:      -8.7      3.528      9.756
REMARK  9 active torsions:
REMARK  status: ('A' for Active; 'I' for Inactive)
REMARK    1  A    between atoms: O_2  and  C_3 
REMARK    2  A    between atoms: C_3  and  C_4 
REMARK    3  A    between atoms: C_4  and  O_5 
REMARK    4  A    between atoms: O_5  and  C_6 
REMARK       I    between atoms: C_6  and  N_8 
REMARK    5  A    between atoms: N_15  and  C_28 
REMARK    6  A    between atoms: N_18  and  C_19 
REMARK    7  A    between atoms: C_19  and  C_20 
REMARK    8  A    between atoms: C_24  and  O_25 
REMARK    9  A    between atoms: C_31  and  C_34 
ROOT
HETATM    1  C   UNL     1       4.618  26.489  50.478  1.00  0.00     0.362 C 
HETATM    2  O   UNL     1       4.203  25.337  50.416  1.00  0.00    -0.238 OA
HETATM    3  N   UNL     1       4.782  27.194  51.678  1.00  0.00    -0.328 N 
HETATM    4  C   UNL     1       5.601  28.401  51.678  1.00  0.00     0.130 C 
HETATM    5  C   UNL     1       5.609  29.154  53.002  1.00  0.00     0.053 C 
HETATM    6  C   UNL     1       5.830  28.254  54.233  1.00  0.00     0.057 C 
HETATM    7  C   UNL     1       4.825  27.095  54.194  1.00  0.00     0.053 C 
HETATM    8  C   UNL     1       4.757  26.358  52.869  1.00  0.00     0.130 C 
HETATM    9  C   UNL     1       5.564  29.096  55.515  1.00  0.00     0.165 C 
HETATM   10  N   UNL     1       6.863  29.394  56.080  1.00  0.00    -0.297 N 
HETATM   11  C   UNL     1       7.858  28.653  55.422  1.00  0.00     0.326 C 
HETATM   12  O   UNL     1       9.055  28.610  55.662  1.00  0.00    -0.247 OA
HETATM   13  N   UNL     1       7.241  27.887  54.422  1.00  0.00    -0.318 N 
ENDROOT
BRANCH  13  14
HETATM   14  C   UNL     1       8.011  26.896  53.677  1.00  0.00     0.167 C 
BRANCH  14  15
HETATM   15  C   UNL     1       7.792  25.466  54.128  1.00  0.00    -0.037 A 
HETATM   16  C   UNL     1       7.575  25.143  55.474  1.00  0.00     0.009 A 
HETATM   17  C   UNL     1       7.417  23.815  55.868  1.00  0.00     0.003 A 
HETATM   18  C   UNL     1       7.474  22.795  54.920  1.00  0.00     0.037 A 
HETATM   19  C   UNL     1       7.699  23.090  53.577  1.00  0.00     0.068 A 
HETATM   20  C   UNL     1       7.886  24.419  53.191  1.00  0.00     0.045 A 
BRANCH  19  21
HETATM   21  O   UNL     1       7.729  22.006  52.743  1.00  0.00    -0.356 OA
HETATM   22  C   UNL     1       8.199  20.785  53.304  1.00  0.00     0.210 C 
ENDBRANCH  19  21
ENDBRANCH  14  15
ENDBRANCH  13  14
BRANCH  10  23
HETATM   23  C   UNL     1       7.015  30.106  57.305  1.00  0.00     0.039 A 
HETATM   24  C   UNL     1       8.011  29.781  58.233  1.00  0.00     0.030 A 
HETATM   25  C   UNL     1       8.095  30.426  59.476  1.00  0.00     0.014 A 
HETATM   26  C   UNL     1       7.190  31.430  59.822  1.00  0.00    -0.023 A 
HETATM   27  C   UNL     1       6.219  31.798  58.887  1.00  0.00     0.014 A 
HETATM   28  C   UNL     1       6.133  31.141  57.648  1.00  0.00     0.030 A 
BRANCH  26  29
HETATM   29  C   UNL     1       7.242  32.071  61.122  1.00  0.00     0.010 A 
HETATM   30  C   UNL     1       8.142  31.916  62.201  1.00  0.00     0.152 A 
HETATM   31  N   UNL     1       7.866  32.727  63.225  1.00  0.00    -0.187 NA
HETATM   32  N   UNL     1       6.788  33.408  62.805  1.00  0.00    -0.289 N 
HETATM   33  H   UNL     1       6.388  34.106  63.423  1.00  0.00     0.188 HD
HETATM   34  C   UNL     1       6.377  33.056  61.553  1.00  0.00     0.123 A 
ENDBRANCH  26  29
ENDBRANCH  10  23
BRANCH   1  35
HETATM   35  O   UNL     1       5.043  27.193  49.393  1.00  0.00    -0.302 OA
BRANCH  35  36
HETATM   36  C   UNL     1       4.082  27.333  48.337  1.00  0.00     0.207 C 
BRANCH  36  37
HETATM   37  C   UNL     1       3.068  28.435  48.619  1.00  0.00     0.193 C 
BRANCH  37  38
HETATM   38  O   UNL     1       1.796  27.831  48.860  1.00  0.00    -0.394 OA
HETATM   39  C   UNL     1       1.394  26.997  47.784  1.00  0.00     0.201 C 
ENDBRANCH  37  38
ENDBRANCH  36  37
ENDBRANCH  35  36
ENDBRANCH   1  35
TORSDOF 9
ENDMDL
MODEL 5
REMARK VINA RESULT:      -8.2      9.175     15.803
REMARK  9 active torsions:
REMARK  status: ('A' for Active; 'I' for Inactive)
REMARK    1  A    between atoms: O_2  and  C_3 
REMARK    2  A    between atoms: C_3  and  C_4 
REMARK    3  A    between atoms: C_4  and  O_5 
REMARK    4  A    between atoms: O_5  and  C_6 
REMARK       I    between atoms: C_6  and  N_8 
REMARK    5  A    between atoms: N_15  and  C_28 
REMARK    6  A    between atoms: N_18  and  C_19 
REMARK    7  A    between atoms: C_19  and  C_20 
REMARK    8  A    between atoms: C_24  and  O_25 
REMARK    9  A    between atoms: C_31  and  C_34 
ROOT
HETATM    1  C   UNL     1       1.665  35.463  58.484  1.00  0.00     0.362 C 
HETATM    2  O   UNL     1       0.480  35.256  58.244  1.00  0.00    -0.238 OA
HETATM    3  N   UNL     1       2.207  35.472  59.775  1.00  0.00    -0.328 N 
HETATM    4  C   UNL     1       3.655  35.373  59.931  1.00  0.00     0.130 C 
HETATM    5  C   UNL     1       4.143  35.518  61.366  1.00  0.00     0.053 C 
HETATM    6  C   UNL     1       3.350  34.678  62.385  1.00  0.00     0.057 C 
HETATM    7  C   UNL     1       1.853  34.967  62.217  1.00  0.00     0.053 C 
HETATM    8  C   UNL     1       1.347  34.880  60.788  1.00  0.00     0.130 C 
HETATM    9  C   UNL     1       3.778  35.109  63.819  1.00  0.00     0.165 C 
HETATM   10  N   UNL     1       4.636  34.055  64.318  1.00  0.00    -0.297 N 
HETATM   11  C   UNL     1       4.598  32.949  63.454  1.00  0.00     0.326 C 
HETATM   12  O   UNL     1       5.152  31.868  63.581  1.00  0.00    -0.247 OA
HETATM   13  N   UNL     1       3.746  33.262  62.384  1.00  0.00    -0.318 N 
ENDROOT
BRANCH  13  14
HETATM   14  C   UNL     1       3.389  32.239  61.407  1.00  0.00     0.167 C 
BRANCH  14  15
HETATM   15  C   UNL     1       4.344  32.132  60.235  1.00  0.00    -0.037 A 
HETATM   16  C   UNL     1       3.901  31.778  58.954  1.00  0.00     0.009 A 
HETATM   17  C   UNL     1       4.806  31.647  57.902  1.00  0.00     0.003 A 
HETATM   18  C   UNL     1       6.165  31.868  58.119  1.00  0.00     0.037 A 
HETATM   19  C   UNL     1       6.631  32.212  59.386  1.00  0.00     0.068 A 
HETATM   20  C   UNL     1       5.725  32.313  60.443  1.00  0.00     0.045 A 
BRANCH  19  21
HETATM   21  O   UNL     1       7.982  32.408  59.472  1.00  0.00    -0.356 OA
HETATM   22  C   UNL     1       8.809  31.411  58.881  1.00  0.00     0.210 C 
ENDBRANCH  19  21
ENDBRANCH  14  15
ENDBRANCH  13  14
BRANCH  10  23
HETATM   23  C   UNL     1       5.176  34.074  65.637  1.00  0.00     0.039 A 
HETATM   24  C   UNL     1       4.360  34.115  66.773  1.00  0.00     0.030 A 
HETATM   25  C   UNL     1       4.902  34.226  68.062  1.00  0.00     0.014 A 
HETATM   26  C   UNL     1       6.282  34.284  68.255  1.00  0.00    -0.023 A 
HETATM   27  C   UNL     1       7.111  34.197  67.134  1.00  0.00     0.014 A 
HETATM   28  C   UNL     1       6.564  34.097  65.844  1.00  0.00     0.030 A 
BRANCH  26  29
HETATM   29  C   UNL     1       6.849  34.444  69.581  1.00  0.00     0.010 A 
HETATM   30  C   UNL     1       7.079  33.507  70.613  1.00  0.00     0.152 A 
HETATM   31  N   UNL     1       7.661  34.051  71.685  1.00  0.00    -0.187 NA
HETATM   32  N   UNL     1       7.808  35.340  71.342  1.00  0.00    -0.289 N 
HETATM   33  H   UNL     1       8.245  35.969  72.007  1.00  0.00     0.188 HD
HETATM   34  C   UNL     1       7.342  35.627  70.092  1.00  0.00     0.123 A 
ENDBRANCH  26  29
ENDBRANCH  10  23
BRANCH   1  35
HETATM   35  O   UNL     1       2.607  35.630  57.516  1.00  0.00    -0.302 OA
BRANCH  35  36
HETATM   36  C   UNL     1       2.201  35.259  56.192  1.00  0.00     0.207 C 
BRANCH  36  37
HETATM   37  C   UNL     1       2.857  33.965  55.725  1.00  0.00     0.193 C 
BRANCH  37  38
HETATM   38  O   UNL     1       1.959  32.883  55.977  1.00  0.00    -0.394 OA
HETATM   39  C   UNL     1       2.340  31.706  55.280  1.00  0.00     0.201 C 
ENDBRANCH  37  38
ENDBRANCH  36  37
ENDBRANCH  35  36
ENDBRANCH   1  35
TORSDOF 9
ENDMDL
MODEL 6
REMARK VINA RESULT:      -8.1      3.932      8.792
REMARK  9 active torsions:
REMARK  status: ('A' for Active; 'I' for Inactive)
REMARK    1  A    between atoms: O_2  and  C_3 
REMARK    2  A    between atoms: C_3  and  C_4 
REMARK    3  A    between atoms: C_4  and  O_5 
REMARK    4  A    between atoms: O_5  and  C_6 
REMARK       I    between atoms: C_6  and  N_8 
REMARK    5  A    between atoms: N_15  and  C_28 
REMARK    6  A    between atoms: N_18  and  C_19 
REMARK    7  A    between atoms: C_19  and  C_20 
REMARK    8  A    between atoms: C_24  and  O_25 
REMARK    9  A    between atoms: C_31  and  C_34 
ROOT
HETATM    1  C   UNL     1       7.674  24.300  52.947  1.00  0.00     0.362 C 
HETATM    2  O   UNL     1       8.018  24.428  51.777  1.00  0.00    -0.238 OA
HETATM    3  N   UNL     1       7.621  25.358  53.863  1.00  0.00    -0.328 N 
HETATM    4  C   UNL     1       6.874  25.179  55.103  1.00  0.00     0.130 C 
HETATM    5  C   UNL     1       6.987  26.343  56.078  1.00  0.00     0.053 C 
HETATM    6  C   UNL     1       6.788  27.726  55.428  1.00  0.00     0.057 C 
HETATM    7  C   UNL     1       7.721  27.850  54.217  1.00  0.00     0.053 C 
HETATM    8  C   UNL     1       7.668  26.678  53.252  1.00  0.00     0.130 C 
HETATM    9  C   UNL     1       7.177  28.819  56.466  1.00  0.00     0.165 C 
HETATM   10  N   UNL     1       5.933  29.382  56.946  1.00  0.00    -0.297 N 
HETATM   11  C   UNL     1       4.860  28.918  56.167  1.00  0.00     0.326 C 
HETATM   12  O   UNL     1       3.678  29.219  56.248  1.00  0.00    -0.247 OA
HETATM   13  N   UNL     1       5.372  28.045  55.196  1.00  0.00    -0.318 N 
ENDROOT
BRANCH  13  14
HETATM   14  C   UNL     1       4.504  27.530  54.142  1.00  0.00     0.167 C 
BRANCH  14  15
HETATM   15  C   UNL     1       4.556  28.317  52.849  1.00  0.00    -0.037 A 
HETATM   16  C   UNL     1       4.386  29.708  52.825  1.00  0.00     0.009 A 
HETATM   17  C   UNL     1       4.397  30.403  51.617  1.00  0.00     0.003 A 
HETATM   18  C   UNL     1       4.580  29.716  50.418  1.00  0.00     0.037 A 
HETATM   19  C   UNL     1       4.742  28.332  50.415  1.00  0.00     0.068 A 
HETATM   20  C   UNL     1       4.699  27.636  51.625  1.00  0.00     0.045 A 
BRANCH  19  21
HETATM   21  O   UNL     1       4.917  27.773  49.179  1.00  0.00    -0.356 OA
HETATM   22  C   UNL     1       3.772  27.171  48.584  1.00  0.00     0.210 C 
ENDBRANCH  19  21
ENDBRANCH  14  15
ENDBRANCH  13  14
BRANCH  10  23
HETATM   23  C   UNL     1       5.893  30.464  57.873  1.00  0.00     0.039 A 
HETATM   24  C   UNL     1       7.028  30.878  58.580  1.00  0.00     0.030 A 
HETATM   25  C   UNL     1       6.958  31.881  59.557  1.00  0.00     0.014 A 
HETATM   26  C   UNL     1       5.749  32.515  59.846  1.00  0.00    -0.023 A 
HETATM   27  C   UNL     1       4.617  32.145  59.115  1.00  0.00     0.014 A 
HETATM   28  C   UNL     1       4.689  31.131  58.146  1.00  0.00     0.030 A 
BRANCH  26  29
HETATM   29  C   UNL     1       5.659  33.522  60.886  1.00  0.00     0.010 A 
HETATM   30  C   UNL     1       4.706  34.540  61.115  1.00  0.00     0.152 A 
HETATM   31  N   UNL     1       4.961  35.249  62.218  1.00  0.00    -0.187 NA
HETATM   32  N   UNL     1       6.080  34.686  62.701  1.00  0.00    -0.289 N 
HETATM   33  H   UNL     1       6.474  35.056  63.559  1.00  0.00     0.188 HD
HETATM   34  C   UNL     1       6.536  33.646  61.944  1.00  0.00     0.123 A 
ENDBRANCH  26  29
ENDBRANCH  10  23
BRANCH   1  35
HETATM   35  O   UNL     1       7.226  23.127  53.473  1.00  0.00    -0.302 OA
BRANCH  35  36
HETATM   36  C   UNL     1       8.238  22.142  53.727  1.00  0.00     0.207 C 
BRANCH  36  37
HETATM   37  C   UNL     1       7.933  20.810  53.053  1.00  0.00     0.193 C 
BRANCH  37  38
HETATM   38  O   UNL     1       8.580  19.770  53.790  1.00  0.00    -0.394 OA
HETATM   39  C   UNL     1       8.657  20.073  55.175  1.00  0.00     0.201 C 
ENDBRANCH  37  38
ENDBRANCH  36  37
ENDBRANCH  35  36
ENDBRANCH   1  35
TORSDOF 9
ENDMDL
MODEL 7
REMARK VINA RESULT:      -8.0      4.383      5.291
REMARK  9 active torsions:
REMARK  status: ('A' for Active; 'I' for Inactive)
REMARK    1  A    between atoms: O_2  and  C_3 
REMARK    2  A    between atoms: C_3  and  C_4 
REMARK    3  A    between atoms: C_4  and  O_5 
REMARK    4  A    between atoms: O_5  and  C_6 
REMARK       I    between atoms: C_6  and  N_8 
REMARK    5  A    between atoms: N_15  and  C_28 
REMARK    6  A    between atoms: N_18  and  C_19 
REMARK    7  A    between atoms: C_19  and  C_20 
REMARK    8  A    between atoms: C_24  and  O_25 
REMARK    9  A    between atoms: C_31  and  C_34 
ROOT
HETATM    1  C   UNL     1       7.897  23.818  56.275  1.00  0.00     0.362 C 
HETATM    2  O   UNL     1       7.652  23.026  57.178  1.00  0.00    -0.238 OA
HETATM    3  N   UNL     1       7.040  24.860  55.900  1.00  0.00    -0.328 N 
HETATM    4  C   UNL     1       7.567  25.943  55.076  1.00  0.00     0.130 C 
HETATM    5  C   UNL     1       6.522  26.954  54.624  1.00  0.00     0.053 C 
HETATM    6  C   UNL     1       5.585  27.431  55.750  1.00  0.00     0.057 C 
HETATM    7  C   UNL     1       4.986  26.208  56.457  1.00  0.00     0.053 C 
HETATM    8  C   UNL     1       6.000  25.157  56.874  1.00  0.00     0.130 C 
HETATM    9  C   UNL     1       4.424  28.250  55.112  1.00  0.00     0.165 C 
HETATM   10  N   UNL     1       4.709  29.641  55.393  1.00  0.00    -0.297 N 
HETATM   11  C   UNL     1       5.773  29.743  56.305  1.00  0.00     0.326 C 
HETATM   12  O   UNL     1       6.248  30.751  56.806  1.00  0.00    -0.247 OA
HETATM   13  N   UNL     1       6.207  28.445  56.614  1.00  0.00    -0.318 N 
ENDROOT
BRANCH  13  14
HETATM   14  C   UNL     1       7.201  28.234  57.661  1.00  0.00     0.167 C 
BRANCH  14  15
HETATM   15  C   UNL     1       8.441  29.094  57.529  1.00  0.00    -0.037 A 
HETATM   16  C   UNL     1       9.417  28.834  56.558  1.00  0.00     0.009 A 
HETATM   17  C   UNL     1      10.569  29.615  56.483  1.00  0.00     0.003 A 
HETATM   18  C   UNL     1      10.759  30.666  57.379  1.00  0.00     0.037 A 
HETATM   19  C   UNL     1       9.807  30.938  58.360  1.00  0.00     0.068 A 
HETATM   20  C   UNL     1       8.669  30.134  58.450  1.00  0.00     0.045 A 
BRANCH  19  21
HETATM   21  O   UNL     1      10.103  31.995  59.176  1.00  0.00    -0.356 OA
HETATM   22  C   UNL     1       9.440  32.033  60.435  1.00  0.00     0.210 C 
ENDBRANCH  19  21
ENDBRANCH  14  15
ENDBRANCH  13  14
BRANCH  10  23
HETATM   23  C   UNL     1       3.824  30.692  55.012  1.00  0.00     0.039 A 
HETATM   24  C   UNL     1       2.863  31.207  55.888  1.00  0.00     0.030 A 
HETATM   25  C   UNL     1       1.936  32.176  55.474  1.00  0.00     0.014 A 
HETATM   26  C   UNL     1       1.956  32.671  54.170  1.00  0.00    -0.023 A 
HETATM   27  C   UNL     1       2.940  32.200  53.297  1.00  0.00     0.014 A 
HETATM   28  C   UNL     1       3.858  31.222  53.713  1.00  0.00     0.030 A 
BRANCH  26  29
HETATM   29  C   UNL     1       0.974  33.640  53.720  1.00  0.00     0.010 A 
HETATM   30  C   UNL     1       0.692  34.150  52.433  1.00  0.00     0.152 A 
HETATM   31  N   UNL     1      -0.328  35.012  52.430  1.00  0.00    -0.187 NA
HETATM   32  N   UNL     1      -0.705  35.056  53.718  1.00  0.00    -0.289 N 
HETATM   33  H   UNL     1      -1.487  35.652  53.971  1.00  0.00     0.188 HD
HETATM   34  C   UNL     1       0.039  34.251  54.530  1.00  0.00     0.123 A 
ENDBRANCH  26  29
ENDBRANCH  10  23
BRANCH   1  35
HETATM   35  O   UNL     1       9.068  23.825  55.582  1.00  0.00    -0.302 OA
BRANCH  35  36
HETATM   36  C   UNL     1       9.297  22.680  54.750  1.00  0.00     0.207 C 
BRANCH  36  37
HETATM   37  C   UNL     1       8.467  22.717  53.472  1.00  0.00     0.193 C 
BRANCH  37  38
HETATM   38  O   UNL     1       7.704  21.511  53.391  1.00  0.00    -0.394 OA
HETATM   39  C   UNL     1       8.505  20.404  53.003  1.00  0.00     0.201 C 
ENDBRANCH  37  38
ENDBRANCH  36  37
ENDBRANCH  35  36
ENDBRANCH   1  35
TORSDOF 9
ENDMDL
MODEL 8
REMARK VINA RESULT:      -7.9      3.846      9.724
REMARK  9 active torsions:
REMARK  status: ('A' for Active; 'I' for Inactive)
REMARK    1  A    between atoms: O_2  and  C_3 
REMARK    2  A    between atoms: C_3  and  C_4 
REMARK    3  A    between atoms: C_4  and  O_5 
REMARK    4  A    between atoms: O_5  and  C_6 
REMARK       I    between atoms: C_6  and  N_8 
REMARK    5  A    between atoms: N_15  and  C_28 
REMARK    6  A    between atoms: N_18  and  C_19 
REMARK    7  A    between atoms: C_19  and  C_20 
REMARK    8  A    between atoms: C_24  and  O_25 
REMARK    9  A    between atoms: C_31  and  C_34 
ROOT
HETATM    1  C   UNL     1       3.538  32.913  56.968  1.00  0.00     0.362 C 
HETATM    2  O   UNL     1       2.400  33.274  56.686  1.00  0.00    -0.238 OA
HETATM    3  N   UNL     1       3.971  31.582  56.904  1.00  0.00    -0.328 N 
HETATM    4  C   UNL     1       5.404  31.308  56.912  1.00  0.00     0.130 C 
HETATM    5  C   UNL     1       5.759  29.828  56.965  1.00  0.00     0.053 C 
HETATM    6  C   UNL     1       4.966  28.957  55.971  1.00  0.00     0.057 C 
HETATM    7  C   UNL     1       3.467  29.233  56.148  1.00  0.00     0.053 C 
HETATM    8  C   UNL     1       3.088  30.704  56.151  1.00  0.00     0.130 C 
HETATM    9  C   UNL     1       5.235  27.460  56.302  1.00  0.00     0.165 C 
HETATM   10  N   UNL     1       6.142  26.978  55.283  1.00  0.00    -0.297 N 
HETATM   11  C   UNL     1       6.275  27.933  54.262  1.00  0.00     0.326 C 
HETATM   12  O   UNL     1       6.913  27.849  53.223  1.00  0.00    -0.247 OA
HETATM   13  N   UNL     1       5.488  29.044  54.599  1.00  0.00    -0.318 N 
ENDROOT
BRANCH  13  14
HETATM   14  C   UNL     1       5.306  30.131  53.644  1.00  0.00     0.167 C 
BRANCH  14  15
HETATM   15  C   UNL     1       4.506  29.757  52.414  1.00  0.00    -0.037 A 
HETATM   16  C   UNL     1       3.177  29.323  52.503  1.00  0.00     0.009 A 
HETATM   17  C   UNL     1       2.476  28.945  51.359  1.00  0.00     0.003 A 
HETATM   18  C   UNL     1       3.096  28.997  50.111  1.00  0.00     0.037 A 
HETATM   19  C   UNL     1       4.420  29.416  49.998  1.00  0.00     0.068 A 
HETATM   20  C   UNL     1       5.128  29.765  51.150  1.00  0.00     0.045 A 
BRANCH  19  21
HETATM   21  O   UNL     1       4.915  29.429  48.724  1.00  0.00    -0.356 OA
HETATM   22  C   UNL     1       4.013  29.814  47.692  1.00  0.00     0.210 C 
ENDBRANCH  19  21
ENDBRANCH  14  15
ENDBRANCH  13  14
BRANCH  10  23
HETATM   23  C   UNL     1       6.569  25.619  55.224  1.00  0.00     0.039 A 
HETATM   24  C   UNL     1       7.225  25.001  56.294  1.00  0.00     0.030 A 
HETATM   25  C   UNL     1       7.724  23.694  56.193  1.00  0.00     0.014 A 
HETATM   26  C   UNL     1       7.566  22.958  55.018  1.00  0.00    -0.023 A 
HETATM   27  C   UNL     1       6.872  23.545  53.957  1.00  0.00     0.014 A 
HETATM   28  C   UNL     1       6.385  24.858  54.060  1.00  0.00     0.030 A 
BRANCH  26  29
HETATM   29  C   UNL     1       8.118  21.622  54.889  1.00  0.00     0.010 A 
HETATM   30  C   UNL     1       8.218  20.761  53.773  1.00  0.00     0.152 A 
HETATM   31  N   UNL     1       8.833  19.611  54.061  1.00  0.00    -0.187 NA
HETATM   32  N   UNL     1       9.132  19.732  55.364  1.00  0.00    -0.289 N 
HETATM   33  H   UNL     1       9.621  18.969  55.820  1.00  0.00     0.188 HD
HETATM   34  C   UNL     1       8.728  20.918  55.907  1.00  0.00     0.123 A 
ENDBRANCH  26  29
ENDBRANCH  10  23
BRANCH   1  35
HETATM   35  O   UNL     1       4.536  33.775  57.302  1.00  0.00    -0.302 OA
BRANCH  35  36
HETATM   36  C   UNL     1       4.251  34.649  58.404  1.00  0.00     0.207 C 
BRANCH  36  37
HETATM   37  C   UNL     1       4.082  33.892  59.715  1.00  0.00     0.193 C 
BRANCH  37  38
HETATM   38  O   UNL     1       5.318  33.249  60.031  1.00  0.00    -0.394 OA
HETATM   39  C   UNL     1       5.629  33.351  61.413  1.00  0.00     0.201 C 
ENDBRANCH  37  38
ENDBRANCH  36  37
ENDBRANCH  35  36
ENDBRANCH   1  35
TORSDOF 9
ENDMDL
MODEL 9
REMARK VINA RESULT:      -7.9      1.793      2.497
REMARK  9 active torsions:
REMARK  status: ('A' for Active; 'I' for Inactive)
REMARK    1  A    between atoms: O_2  and  C_3 
REMARK    2  A    between atoms: C_3  and  C_4 
REMARK    3  A    between atoms: C_4  and  O_5 
REMARK    4  A    between atoms: O_5  and  C_6 
REMARK       I    between atoms: C_6  and  N_8 
REMARK    5  A    between atoms: N_15  and  C_28 
REMARK    6  A    between atoms: N_18  and  C_19 
REMARK    7  A    between atoms: C_19  and  C_20 
REMARK    8  A    between atoms: C_24  and  O_25 
REMARK    9  A    between atoms: C_31  and  C_34 
ROOT
HETATM    1  C   UNL     1       7.695  23.715  55.039  1.00  0.00     0.362 C 
HETATM    2  O   UNL     1       7.189  23.491  56.134  1.00  0.00    -0.238 OA
HETATM    3  N   UNL     1       7.008  24.305  53.970  1.00  0.00    -0.328 N 
HETATM    4  C   UNL     1       7.775  24.846  52.854  1.00  0.00     0.130 C 
HETATM    5  C   UNL     1       6.927  25.350  51.694  1.00  0.00     0.053 C 
HETATM    6  C   UNL     1       5.744  26.239  52.123  1.00  0.00     0.057 C 
HETATM    7  C   UNL     1       4.933  25.510  53.203  1.00  0.00     0.053 C 
HETATM    8  C   UNL     1       5.760  24.951  54.348  1.00  0.00     0.130 C 
HETATM    9  C   UNL     1       4.826  26.469  50.887  1.00  0.00     0.165 C 
HETATM   10  N   UNL     1       5.079  27.823  50.442  1.00  0.00    -0.297 N 
HETATM   11  C   UNL     1       5.867  28.503  51.385  1.00  0.00     0.326 C 
HETATM   12  O   UNL     1       6.232  29.670  51.370  1.00  0.00    -0.247 OA
HETATM   13  N   UNL     1       6.154  27.616  52.434  1.00  0.00    -0.318 N 
ENDROOT
BRANCH  13  14
HETATM   14  C   UNL     1       6.827  28.095  53.636  1.00  0.00     0.167 C 
BRANCH  14  15
HETATM   15  C   UNL     1       5.898  28.667  54.688  1.00  0.00    -0.037 A 
HETATM   16  C   UNL     1       6.080  28.404  56.052  1.00  0.00     0.009 A 
HETATM   17  C   UNL     1       5.187  28.908  56.997  1.00  0.00     0.003 A 
HETATM   18  C   UNL     1       4.101  29.681  56.588  1.00  0.00     0.037 A 
HETATM   19  C   UNL     1       3.893  29.947  55.236  1.00  0.00     0.068 A 
HETATM   20  C   UNL     1       4.773  29.415  54.292  1.00  0.00     0.045 A 
BRANCH  19  21
HETATM   21  O   UNL     1       2.798  30.718  54.961  1.00  0.00    -0.356 OA
HETATM   22  C   UNL     1       2.849  32.075  55.391  1.00  0.00     0.210 C 
ENDBRANCH  19  21
ENDBRANCH  14  15
ENDBRANCH  13  14
BRANCH  10  23
HETATM   23  C   UNL     1       4.368  28.414  49.358  1.00  0.00     0.039 A 
HETATM   24  C   UNL     1       4.967  29.336  48.492  1.00  0.00     0.030 A 
HETATM   25  C   UNL     1       4.233  29.981  47.485  1.00  0.00     0.014 A 
HETATM   26  C   UNL     1       2.877  29.710  47.304  1.00  0.00    -0.023 A 
HETATM   27  C   UNL     1       2.276  28.757  48.131  1.00  0.00     0.014 A 
HETATM   28  C   UNL     1       3.012  28.123  49.145  1.00  0.00     0.030 A 
BRANCH  26  29
HETATM   29  C   UNL     1       2.101  30.406  46.295  1.00  0.00     0.010 A 
HETATM   30  C   UNL     1       2.459  31.425  45.384  1.00  0.00     0.152 A 
HETATM   31  N   UNL     1       1.452  31.779  44.581  1.00  0.00    -0.187 NA
HETATM   32  N   UNL     1       0.444  30.986  44.975  1.00  0.00    -0.289 N 
HETATM   33  H   UNL     1      -0.447  31.066  44.496  1.00  0.00     0.188 HD
HETATM   34  C   UNL     1       0.780  30.143  45.994  1.00  0.00     0.123 A 
ENDBRANCH  26  29
ENDBRANCH  10  23
BRANCH   1  35
HETATM   35  O   UNL     1       9.007  23.488  54.759  1.00  0.00    -0.302 OA
BRANCH  35  36
HETATM   36  C   UNL     1       9.440  22.128  54.905  1.00  0.00     0.207 C 
BRANCH  36  37
HETATM   37  C   UNL     1       8.813  21.205  53.867  1.00  0.00     0.193 C 
BRANCH  37  38
HETATM   38  O   UNL     1       8.013  20.235  54.545  1.00  0.00    -0.394 OA
HETATM   39  C   UNL     1       8.459  20.020  55.876  1.00  0.00     0.201 C 
ENDBRANCH  37  38
ENDBRANCH  36  37
ENDBRANCH  35  36
ENDBRANCH   1  35
TORSDOF 9
ENDMDL
MODEL 10
REMARK VINA RESULT:      -7.6      4.311      8.877
REMARK  9 active torsions:
REMARK  status: ('A' for Active; 'I' for Inactive)
REMARK    1  A    between atoms: O_2  and  C_3 
REMARK    2  A    between atoms: C_3  and  C_4 
REMARK    3  A    between atoms: C_4  and  O_5 
REMARK    4  A    between atoms: O_5  and  C_6 
REMARK       I    between atoms: C_6  and  N_8 
REMARK    5  A    between atoms: N_15  and  C_28 
REMARK    6  A    between atoms: N_18  and  C_19 
REMARK    7  A    between atoms: C_19  and  C_20 
REMARK    8  A    between atoms: C_24  and  O_25 
REMARK    9  A    between atoms: C_31  and  C_34 
ROOT
HETATM    1  C   UNL     1       7.474  24.659  53.074  1.00  0.00     0.362 C 
HETATM    2  O   UNL     1       7.942  24.796  51.949  1.00  0.00    -0.238 OA
HETATM    3  N   UNL     1       7.414  25.688  54.022  1.00  0.00    -0.328 N 
HETATM    4  C   UNL     1       6.535  25.531  55.176  1.00  0.00     0.130 C 
HETATM    5  C   UNL     1       6.642  26.650  56.204  1.00  0.00     0.053 C 
HETATM    6  C   UNL     1       6.618  28.064  55.594  1.00  0.00     0.057 C 
HETATM    7  C   UNL     1       7.674  28.150  54.484  1.00  0.00     0.053 C 
HETATM    8  C   UNL     1       7.625  27.019  53.473  1.00  0.00     0.130 C 
HETATM    9  C   UNL     1       6.986  29.088  56.707  1.00  0.00     0.165 C 
HETATM   10  N   UNL     1       5.749  29.735  57.087  1.00  0.00    -0.297 N 
HETATM   11  C   UNL     1       4.725  29.386  56.191  1.00  0.00     0.326 C 
HETATM   12  O   UNL     1       3.569  29.781  56.169  1.00  0.00    -0.247 OA
HETATM   13  N   UNL     1       5.261  28.506  55.239  1.00  0.00    -0.318 N 
ENDROOT
BRANCH  13  14
HETATM   14  C   UNL     1       4.465  28.099  54.087  1.00  0.00     0.167 C 
BRANCH  14  15
HETATM   15  C   UNL     1       4.605  29.002  52.879  1.00  0.00    -0.037 A 
HETATM   16  C   UNL     1       5.249  28.575  51.710  1.00  0.00     0.009 A 
HETATM   17  C   UNL     1       5.401  29.440  50.627  1.00  0.00     0.003 A 
HETATM   18  C   UNL     1       4.909  30.743  50.700  1.00  0.00     0.037 A 
HETATM   19  C   UNL     1       4.272  31.193  51.855  1.00  0.00     0.068 A 
HETATM   20  C   UNL     1       4.150  30.333  52.948  1.00  0.00     0.045 A 
BRANCH  19  21
HETATM   21  O   UNL     1       3.830  32.486  51.805  1.00  0.00    -0.356 OA
HETATM   22  C   UNL     1       4.731  33.448  51.266  1.00  0.00     0.210 C 
ENDBRANCH  19  21
ENDBRANCH  14  15
ENDBRANCH  13  14
BRANCH  10  23
HETATM   23  C   UNL     1       5.703  30.786  58.049  1.00  0.00     0.039 A 
HETATM   24  C   UNL     1       6.857  31.277  58.668  1.00  0.00     0.030 A 
HETATM   25  C   UNL     1       6.792  32.246  59.680  1.00  0.00     0.014 A 
HETATM   26  C   UNL     1       5.565  32.767  60.093  1.00  0.00    -0.023 A 
HETATM   27  C   UNL     1       4.407  32.320  59.451  1.00  0.00     0.014 A 
HETATM   28  C   UNL     1       4.477  31.341  58.447  1.00  0.00     0.030 A 
BRANCH  26  29
HETATM   29  C   UNL     1       5.485  33.737  61.169  1.00  0.00     0.010 A 
HETATM   30  C   UNL     1       6.327  33.964  62.280  1.00  0.00     0.152 A 
HETATM   31  N   UNL     1       5.925  34.991  63.033  1.00  0.00    -0.187 NA
HETATM   32  N   UNL     1       4.822  35.428  62.404  1.00  0.00    -0.289 N 
HETATM   33  H   UNL     1       4.330  36.226  62.792  1.00  0.00     0.188 HD
HETATM   34  C   UNL     1       4.518  34.714  61.281  1.00  0.00     0.123 A 
ENDBRANCH  26  29
ENDBRANCH  10  23
BRANCH   1  35
HETATM   35  O   UNL     1       6.886  23.511  53.506  1.00  0.00    -0.302 OA
BRANCH  35  36
HETATM   36  C   UNL     1       7.644  22.312  53.289  1.00  0.00     0.207 C 
BRANCH  36  37
HETATM   37  C   UNL     1       8.498  21.941  54.495  1.00  0.00     0.193 C 
BRANCH  37  38
HETATM   38  O   UNL     1       7.694  22.045  55.671  1.00  0.00    -0.394 OA
HETATM   39  C   UNL     1       8.369  22.733  56.714  1.00  0.00     0.201 C 
ENDBRANCH  37  38
ENDBRANCH  36  37
ENDBRANCH  35  36
ENDBRANCH   1  35
TORSDOF 9
ENDMDL
