MODEL 1
REMARK VINA RESULT:      -9.8      0.000      0.000
REMARK  4 active torsions:
REMARK  status: ('A' for Active; 'I' for Inactive)
REMARK       I    between atoms: N_6  and  C_7 
REMARK    1  A    between atoms: C_7  and  C_8 
REMARK    2  A    between atoms: C_9  and  N_10 
REMARK       I    between atoms: N_10  and  C_11 
REMARK    3  A    between atoms: C_11  and  C_12 
REMARK    4  A    between atoms: N_20  and  C_21 
ROOT
HETATM    1  C   UNL     1       5.157  28.163  53.863  1.00  0.00     0.097 C 
HETATM    2  C   UNL     1       5.223  27.263  52.806  1.00  0.00     0.149 C 
HETATM    3  N   UNL     1       4.820  27.955  51.657  1.00  0.00    -0.217 N 
HETATM    4  N   UNL     1       4.443  29.226  51.980  1.00  0.00    -0.177 NA
HETATM    5  C   UNL     1       4.788  29.373  53.254  1.00  0.00     0.160 C 
ENDROOT
BRANCH   2   6
HETATM    6  N   UNL     1       5.605  25.931  53.000  1.00  0.00    -0.306 N 
HETATM    7  C   UNL     1       6.960  25.496  52.835  1.00  0.00     0.257 C 
HETATM    8  O   UNL     1       7.723  26.192  52.189  1.00  0.00    -0.267 OA
HETATM    9  H   UNL     1       4.852  25.248  53.063  1.00  0.00     0.170 HD
BRANCH   7  10
HETATM   10  C   UNL     1       7.350  24.193  53.438  1.00  0.00     0.032 A 
HETATM   11  C   UNL     1       7.820  23.116  52.672  1.00  0.00     0.018 A 
HETATM   12  C   UNL     1       8.121  21.896  53.291  1.00  0.00     0.020 A 
HETATM   13  C   UNL     1       7.943  21.747  54.665  1.00  0.00     0.011 A 
HETATM   14 BR   UNL     1       8.331  20.092  55.487  1.00  0.00    -0.051 Br
HETATM   15  C   UNL     1       7.469  22.809  55.433  1.00  0.00     0.020 A 
HETATM   16  C   UNL     1       7.175  24.031  54.820  1.00  0.00     0.018 A 
ENDBRANCH   7  10
ENDBRANCH   2   6
BRANCH   1  17
HETATM   17  C   UNL     1       5.437  27.830  55.246  1.00  0.00     0.259 C 
HETATM   18  N   UNL     1       6.754  27.587  55.656  1.00  0.00    -0.345 N 
HETATM   19  C   UNL     1       6.957  27.122  57.036  1.00  0.00     0.154 C 
HETATM   20  C   UNL     1       7.943  28.237  55.076  1.00  0.00     0.154 C 
HETATM   21  C   UNL     1       7.380  28.281  57.959  1.00  0.00     0.254 C 
HETATM   22  N   UNL     1       8.633  28.953  57.392  1.00  0.00    -0.072 N 
HETATM   23  C   UNL     1       9.114  30.078  58.267  1.00  0.00     0.269 C 
HETATM   24  H   UNL     1       9.383  28.248  57.388  1.00  0.00     0.279 HD
HETATM   25  C   UNL     1       8.428  29.411  55.953  1.00  0.00     0.254 C 
HETATM   26  O   UNL     1       4.510  27.813  56.060  1.00  0.00    -0.267 OA
ENDBRANCH   1  17
BRANCH   3  27
HETATM   27  C   UNL     1       4.847  27.578  50.286  1.00  0.00     0.060 A 
HETATM   28  C   UNL     1       4.364  26.339  49.850  1.00  0.00     0.031 A 
HETATM   29  C   UNL     1       4.366  26.031  48.486  1.00  0.00     0.002 A 
HETATM   30  C   UNL     1       4.870  26.943  47.561  1.00  0.00     0.000 A 
HETATM   31  C   UNL     1       5.400  28.156  47.994  1.00  0.00     0.002 A 
HETATM   32  C   UNL     1       5.399  28.470  49.353  1.00  0.00     0.031 A 
ENDBRANCH   3  27
TORSDOF 4
ENDMDL
MODEL 2
REMARK VINA RESULT:      -9.4      3.081      6.118
REMARK  4 active torsions:
REMARK  status: ('A' for Active; 'I' for Inactive)
REMARK       I    between atoms: N_6  and  C_7 
REMARK    1  A    between atoms: C_7  and  C_8 
REMARK    2  A    between atoms: C_9  and  N_10 
REMARK       I    between atoms: N_10  and  C_11 
REMARK    3  A    between atoms: C_11  and  C_12 
REMARK    4  A    between atoms: N_20  and  C_21 
ROOT
HETATM    1  C   UNL     1       7.513  26.656  55.581  1.00  0.00     0.097 C 
HETATM    2  C   UNL     1       7.468  25.674  54.598  1.00  0.00     0.149 C 
HETATM    3  N   UNL     1       7.881  24.478  55.199  1.00  0.00    -0.217 N 
HETATM    4  N   UNL     1       8.244  24.703  56.495  1.00  0.00    -0.177 NA
HETATM    5  C   UNL     1       7.881  25.957  56.741  1.00  0.00     0.160 C 
ENDROOT
BRANCH   2   6
HETATM    6  N   UNL     1       7.092  25.969  53.284  1.00  0.00    -0.306 N 
HETATM    7  C   UNL     1       5.732  25.882  52.842  1.00  0.00     0.257 C 
HETATM    8  O   UNL     1       4.947  25.219  53.495  1.00  0.00    -0.267 OA
HETATM    9  H   UNL     1       7.847  26.050  52.604  1.00  0.00     0.170 HD
BRANCH   7  10
HETATM   10  C   UNL     1       5.364  26.583  51.583  1.00  0.00     0.032 A 
HETATM   11  C   UNL     1       4.928  25.902  50.437  1.00  0.00     0.018 A 
HETATM   12  C   UNL     1       4.646  26.613  49.263  1.00  0.00     0.020 A 
HETATM   13  C   UNL     1       4.811  27.997  49.230  1.00  0.00     0.011 A 
HETATM   14 BR   UNL     1       4.449  28.945  47.637  1.00  0.00    -0.051 Br
HETATM   15  C   UNL     1       5.250  28.682  50.360  1.00  0.00     0.020 A 
HETATM   16  C   UNL     1       5.524  27.976  51.536  1.00  0.00     0.018 A 
ENDBRANCH   7  10
ENDBRANCH   2   6
BRANCH   1  17
HETATM   17  C   UNL     1       7.216  28.057  55.358  1.00  0.00     0.259 C 
HETATM   18  N   UNL     1       5.886  28.496  55.326  1.00  0.00    -0.345 N 
HETATM   19  C   UNL     1       5.647  29.900  54.960  1.00  0.00     0.154 C 
HETATM   20  C   UNL     1       4.791  27.900  56.111  1.00  0.00     0.154 C 
HETATM   21  C   UNL     1       5.412  30.769  56.210  1.00  0.00     0.254 C 
HETATM   22  N   UNL     1       4.256  30.186  57.027  1.00  0.00    -0.072 N 
HETATM   23  C   UNL     1       3.958  31.010  58.250  1.00  0.00     0.269 C 
HETATM   24  H   UNL     1       3.414  30.228  56.437  1.00  0.00     0.279 HD
HETATM   25  C   UNL     1       4.495  28.724  57.382  1.00  0.00     0.254 C 
HETATM   26  O   UNL     1       8.147  28.859  55.247  1.00  0.00    -0.267 OA
ENDBRANCH   1  17
BRANCH   3  27
HETATM   27  C   UNL     1       7.876  23.142  54.713  1.00  0.00     0.060 A 
HETATM   28  C   UNL     1       7.981  22.851  53.348  1.00  0.00     0.031 A 
HETATM   29  C   UNL     1       8.020  21.520  52.921  1.00  0.00     0.002 A 
HETATM   30  C   UNL     1       7.929  20.482  53.845  1.00  0.00     0.000 A 
HETATM   31  C   UNL     1       7.772  20.765  55.200  1.00  0.00     0.002 A 
HETATM   32  C   UNL     1       7.734  22.091  55.634  1.00  0.00     0.031 A 
ENDBRANCH   3  27
TORSDOF 4
ENDMDL
MODEL 3
REMARK VINA RESULT:      -9.1      2.853      6.330
REMARK  4 active torsions:
REMARK  status: ('A' for Active; 'I' for Inactive)
REMARK       I    between atoms: N_6  and  C_7 
REMARK    1  A    between atoms: C_7  and  C_8 
REMARK    2  A    between atoms: C_9  and  N_10 
REMARK       I    between atoms: N_10  and  C_11 
REMARK    3  A    between atoms: C_11  and  C_12 
REMARK    4  A    between atoms: N_20  and  C_21 
ROOT
HETATM    1  C   UNL     1       5.432  27.943  51.189  1.00  0.00     0.097 C 
HETATM    2  C   UNL     1       6.084  27.447  52.311  1.00  0.00     0.149 C 
HETATM    3  N   UNL     1       6.035  26.049  52.223  1.00  0.00    -0.217 N 
HETATM    4  N   UNL     1       5.319  25.670  51.126  1.00  0.00    -0.177 NA
HETATM    5  C   UNL     1       5.099  26.795  50.453  1.00  0.00     0.160 C 
ENDROOT
BRANCH   2   6
HETATM    6  N   UNL     1       6.615  28.296  53.286  1.00  0.00    -0.306 N 
HETATM    7  C   UNL     1       6.063  28.382  54.605  1.00  0.00     0.257 C 
HETATM    8  O   UNL     1       4.925  27.989  54.789  1.00  0.00    -0.267 OA
HETATM    9  H   UNL     1       7.279  28.998  52.963  1.00  0.00     0.170 HD
BRANCH   7  10
HETATM   10  C   UNL     1       6.906  28.981  55.674  1.00  0.00     0.032 A 
HETATM   11  C   UNL     1       8.304  28.866  55.690  1.00  0.00     0.018 A 
HETATM   12  C   UNL     1       9.040  29.406  56.752  1.00  0.00     0.020 A 
HETATM   13  C   UNL     1       8.383  30.048  57.801  1.00  0.00     0.011 A 
HETATM   14 BR   UNL     1       9.382  30.754  59.240  1.00  0.00    -0.051 Br
HETATM   15  C   UNL     1       6.995  30.162  57.798  1.00  0.00     0.020 A 
HETATM   16  C   UNL     1       6.257  29.631  56.735  1.00  0.00     0.018 A 
ENDBRANCH   7  10
ENDBRANCH   2   6
BRANCH   1  17
HETATM   17  C   UNL     1       5.207  29.351  50.924  1.00  0.00     0.259 C 
HETATM   18  N   UNL     1       3.945  29.915  51.148  1.00  0.00    -0.345 N 
HETATM   19  C   UNL     1       3.743  31.311  50.732  1.00  0.00     0.154 C 
HETATM   20  C   UNL     1       3.010  29.476  52.200  1.00  0.00     0.154 C 
HETATM   21  C   UNL     1       3.868  32.273  51.929  1.00  0.00     0.254 C 
HETATM   22  N   UNL     1       2.884  31.855  53.024  1.00  0.00    -0.072 N 
HETATM   23  C   UNL     1       2.937  32.777  54.211  1.00  0.00     0.269 C 
HETATM   24  H   UNL     1       1.936  31.943  52.631  1.00  0.00     0.279 HD
HETATM   25  C   UNL     1       3.077  30.401  53.434  1.00  0.00     0.254 C 
HETATM   26  O   UNL     1       6.151  30.050  50.547  1.00  0.00    -0.267 OA
ENDBRANCH   1  17
BRANCH   3  27
HETATM   27  C   UNL     1       6.672  25.045  53.003  1.00  0.00     0.060 A 
HETATM   28  C   UNL     1       6.351  24.841  54.350  1.00  0.00     0.031 A 
HETATM   29  C   UNL     1       6.969  23.810  55.064  1.00  0.00     0.002 A 
HETATM   30  C   UNL     1       7.920  23.000  54.449  1.00  0.00     0.000 A 
HETATM   31  C   UNL     1       8.281  23.231  53.123  1.00  0.00     0.002 A 
HETATM   32  C   UNL     1       7.669  24.258  52.404  1.00  0.00     0.031 A 
ENDBRANCH   3  27
TORSDOF 4
ENDMDL
MODEL 4
REMARK VINA RESULT:      -9.0      3.124      6.655
REMARK  4 active torsions:
REMARK  status: ('A' for Active; 'I' for Inactive)
REMARK       I    between atoms: N_6  and  C_7 
REMARK    1  A    between atoms: C_7  and  C_8 
REMARK    2  A    between atoms: C_9  and  N_10 
REMARK       I    between atoms: N_10  and  C_11 
REMARK    3  A    between atoms: C_11  and  C_12 
REMARK    4  A    between atoms: N_20  and  C_21 
ROOT
HETATM    1  C   UNL     1       5.004  27.005  54.001  1.00  0.00     0.097 C 
HETATM    2  C   UNL     1       6.091  26.410  54.630  1.00  0.00     0.149 C 
HETATM    3  N   UNL     1       6.194  25.110  54.119  1.00  0.00    -0.217 N 
HETATM    4  N   UNL     1       5.170  24.861  53.254  1.00  0.00    -0.177 NA
HETATM    5  C   UNL     1       4.568  26.034  53.087  1.00  0.00     0.160 C 
ENDROOT
BRANCH   2   6
HETATM    6  N   UNL     1       6.840  27.088  55.598  1.00  0.00    -0.306 N 
HETATM    7  C   UNL     1       7.762  28.129  55.257  1.00  0.00     0.257 C 
HETATM    8  O   UNL     1       8.167  28.200  54.111  1.00  0.00    -0.267 OA
HETATM    9  H   UNL     1       6.855  26.675  56.529  1.00  0.00     0.170 HD
BRANCH   7  10
HETATM   10  C   UNL     1       8.201  29.051  56.340  1.00  0.00     0.032 A 
HETATM   11  C   UNL     1       9.552  29.291  56.627  1.00  0.00     0.018 A 
HETATM   12  C   UNL     1       9.904  30.128  57.694  1.00  0.00     0.020 A 
HETATM   13  C   UNL     1       8.912  30.713  58.478  1.00  0.00     0.011 A 
HETATM   14 BR   UNL     1       9.395  31.823  59.927  1.00  0.00    -0.051 Br
HETATM   15  C   UNL     1       7.566  30.475  58.205  1.00  0.00     0.020 A 
HETATM   16  C   UNL     1       7.211  29.647  57.136  1.00  0.00     0.018 A 
ENDBRANCH   7  10
ENDBRANCH   2   6
BRANCH   1  17
HETATM   17  C   UNL     1       4.516  28.340  54.290  1.00  0.00     0.259 C 
HETATM   18  N   UNL     1       4.816  29.399  53.423  1.00  0.00    -0.345 N 
HETATM   19  C   UNL     1       4.410  30.749  53.841  1.00  0.00     0.154 C 
HETATM   20  C   UNL     1       4.986  29.262  51.966  1.00  0.00     0.154 C 
HETATM   21  C   UNL     1       3.099  31.175  53.153  1.00  0.00     0.254 C 
HETATM   22  N   UNL     1       3.262  31.070  51.634  1.00  0.00    -0.072 N 
HETATM   23  C   UNL     1       2.020  31.502  50.903  1.00  0.00     0.269 C 
HETATM   24  H   UNL     1       4.004  31.730  51.361  1.00  0.00     0.279 HD
HETATM   25  C   UNL     1       3.708  29.678  51.208  1.00  0.00     0.254 C 
HETATM   26  O   UNL     1       3.797  28.517  55.276  1.00  0.00    -0.267 OA
ENDBRANCH   1  17
BRANCH   3  27
HETATM   27  C   UNL     1       7.203  24.122  54.285  1.00  0.00     0.060 A 
HETATM   28  C   UNL     1       7.893  23.966  55.493  1.00  0.00     0.031 A 
HETATM   29  C   UNL     1       8.844  22.949  55.625  1.00  0.00     0.002 A 
HETATM   30  C   UNL     1       9.125  22.105  54.553  1.00  0.00     0.000 A 
HETATM   31  C   UNL     1       8.478  22.288  53.333  1.00  0.00     0.002 A 
HETATM   32  C   UNL     1       7.528  23.300  53.193  1.00  0.00     0.031 A 
ENDBRANCH   3  27
TORSDOF 4
ENDMDL
MODEL 5
REMARK VINA RESULT:      -8.9      2.935      6.774
REMARK  4 active torsions:
REMARK  status: ('A' for Active; 'I' for Inactive)
REMARK       I    between atoms: N_6  and  C_7 
REMARK    1  A    between atoms: C_7  and  C_8 
REMARK    2  A    between atoms: C_9  and  N_10 
REMARK       I    between atoms: N_10  and  C_11 
REMARK    3  A    between atoms: C_11  and  C_12 
REMARK    4  A    between atoms: N_20  and  C_21 
ROOT
HETATM    1  C   UNL     1       5.078  26.727  53.553  1.00  0.00     0.097 C 
HETATM    2  C   UNL     1       6.080  26.150  54.324  1.00  0.00     0.149 C 
HETATM    3  N   UNL     1       6.207  24.822  53.897  1.00  0.00    -0.217 N 
HETATM    4  N   UNL     1       5.274  24.542  52.943  1.00  0.00    -0.177 NA
HETATM    5  C   UNL     1       4.719  25.713  52.650  1.00  0.00     0.160 C 
ENDROOT
BRANCH   2   6
HETATM    6  N   UNL     1       6.737  26.868  55.328  1.00  0.00    -0.306 N 
HETATM    7  C   UNL     1       7.654  27.927  55.032  1.00  0.00     0.257 C 
HETATM    8  O   UNL     1       8.140  27.986  53.917  1.00  0.00    -0.267 OA
HETATM    9  H   UNL     1       6.695  26.475  56.267  1.00  0.00     0.170 HD
BRANCH   7  10
HETATM   10  C   UNL     1       7.988  28.883  56.123  1.00  0.00     0.032 A 
HETATM   11  C   UNL     1       9.300  29.088  56.573  1.00  0.00     0.018 A 
HETATM   12  C   UNL     1       9.546  29.961  57.641  1.00  0.00     0.020 A 
HETATM   13  C   UNL     1       8.486  30.618  58.263  1.00  0.00     0.011 A 
HETATM   14 BR   UNL     1       8.825  31.777  59.715  1.00  0.00    -0.051 Br
HETATM   15  C   UNL     1       7.179  30.416  57.828  1.00  0.00     0.020 A 
HETATM   16  C   UNL     1       6.930  29.551  56.758  1.00  0.00     0.018 A 
ENDBRANCH   7  10
ENDBRANCH   2   6
BRANCH   1  17
HETATM   17  C   UNL     1       4.592  28.083  53.716  1.00  0.00     0.259 C 
HETATM   18  N   UNL     1       4.833  29.039  52.721  1.00  0.00    -0.345 N 
HETATM   19  C   UNL     1       4.436  30.426  53.006  1.00  0.00     0.154 C 
HETATM   20  C   UNL     1       4.926  28.740  51.281  1.00  0.00     0.154 C 
HETATM   21  C   UNL     1       3.085  30.765  52.348  1.00  0.00     0.254 C 
HETATM   22  N   UNL     1       3.166  30.491  50.844  1.00  0.00    -0.072 N 
HETATM   23  C   UNL     1       1.882  30.832  50.139  1.00  0.00     0.269 C 
HETATM   24  H   UNL     1       3.885  31.119  50.458  1.00  0.00     0.279 HD
HETATM   25  C   UNL     1       3.603  29.061  50.552  1.00  0.00     0.254 C 
HETATM   26  O   UNL     1       3.926  28.367  54.714  1.00  0.00    -0.267 OA
ENDBRANCH   1  17
BRANCH   3  27
HETATM   27  C   UNL     1       7.171  23.828  54.222  1.00  0.00     0.060 A 
HETATM   28  C   UNL     1       7.875  23.129  53.234  1.00  0.00     0.031 A 
HETATM   29  C   UNL     1       8.848  22.195  53.602  1.00  0.00     0.002 A 
HETATM   30  C   UNL     1       9.104  21.939  54.948  1.00  0.00     0.000 A 
HETATM   31  C   UNL     1       8.371  22.594  55.934  1.00  0.00     0.002 A 
HETATM   32  C   UNL     1       7.399  23.528  55.575  1.00  0.00     0.031 A 
ENDBRANCH   3  27
TORSDOF 4
ENDMDL
MODEL 6
REMARK VINA RESULT:      -8.9      1.617      6.206
REMARK  4 active torsions:
REMARK  status: ('A' for Active; 'I' for Inactive)
REMARK       I    between atoms: N_6  and  C_7 
REMARK    1  A    between atoms: C_7  and  C_8 
REMARK    2  A    between atoms: C_9  and  N_10 
REMARK       I    between atoms: N_10  and  C_11 
REMARK    3  A    between atoms: C_11  and  C_12 
REMARK    4  A    between atoms: N_20  and  C_21 
ROOT
HETATM    1  C   UNL     1       4.969  28.974  54.162  1.00  0.00     0.097 C 
HETATM    2  C   UNL     1       6.159  28.610  54.780  1.00  0.00     0.149 C 
HETATM    3  N   UNL     1       6.467  29.624  55.696  1.00  0.00    -0.217 N 
HETATM    4  N   UNL     1       5.548  30.629  55.614  1.00  0.00    -0.177 NA
HETATM    5  C   UNL     1       4.597  30.160  54.813  1.00  0.00     0.160 C 
ENDROOT
BRANCH   2   6
HETATM    6  N   UNL     1       6.837  27.437  54.433  1.00  0.00    -0.306 N 
HETATM    7  C   UNL     1       6.872  26.294  55.296  1.00  0.00     0.257 C 
HETATM    8  O   UNL     1       6.617  26.444  56.477  1.00  0.00    -0.267 OA
HETATM    9  H   UNL     1       7.473  27.499  53.640  1.00  0.00     0.170 HD
BRANCH   7  10
HETATM   10  C   UNL     1       7.254  24.985  54.700  1.00  0.00     0.032 A 
HETATM   11  C   UNL     1       7.555  24.832  53.339  1.00  0.00     0.018 A 
HETATM   12  C   UNL     1       7.855  23.564  52.825  1.00  0.00     0.020 A 
HETATM   13  C   UNL     1       7.843  22.451  53.664  1.00  0.00     0.011 A 
HETATM   14 BR   UNL     1       8.229  20.742  52.960  1.00  0.00    -0.051 Br
HETATM   15  C   UNL     1       7.539  22.591  55.016  1.00  0.00     0.020 A 
HETATM   16  C   UNL     1       7.246  23.857  55.534  1.00  0.00     0.018 A 
ENDBRANCH   7  10
ENDBRANCH   2   6
BRANCH   1  17
HETATM   17  C   UNL     1       4.330  28.221  53.100  1.00  0.00     0.259 C 
HETATM   18  N   UNL     1       3.907  28.872  51.934  1.00  0.00    -0.345 N 
HETATM   19  C   UNL     1       3.145  28.081  50.957  1.00  0.00     0.154 C 
HETATM   20  C   UNL     1       4.575  30.047  51.346  1.00  0.00     0.154 C 
HETATM   21  C   UNL     1       4.047  27.604  49.802  1.00  0.00     0.254 C 
HETATM   22  N   UNL     1       4.728  28.812  49.154  1.00  0.00    -0.072 N 
HETATM   23  C   UNL     1       5.602  28.412  47.997  1.00  0.00     0.269 C 
HETATM   24  H   UNL     1       3.985  29.408  48.764  1.00  0.00     0.279 HD
HETATM   25  C   UNL     1       5.495  29.643  50.174  1.00  0.00     0.254 C 
HETATM   26  O   UNL     1       4.210  26.998  53.217  1.00  0.00    -0.267 OA
ENDBRANCH   1  17
BRANCH   3  27
HETATM   27  C   UNL     1       7.472  29.698  56.700  1.00  0.00     0.060 A 
HETATM   28  C   UNL     1       8.816  29.421  56.423  1.00  0.00     0.031 A 
HETATM   29  C   UNL     1       9.776  29.554  57.431  1.00  0.00     0.002 A 
HETATM   30  C   UNL     1       9.398  29.937  58.716  1.00  0.00     0.000 A 
HETATM   31  C   UNL     1       8.055  30.163  59.010  1.00  0.00     0.002 A 
HETATM   32  C   UNL     1       7.092  30.034  58.010  1.00  0.00     0.031 A 
ENDBRANCH   3  27
TORSDOF 4
ENDMDL
MODEL 7
REMARK VINA RESULT:      -8.9      2.818      7.043
REMARK  4 active torsions:
REMARK  status: ('A' for Active; 'I' for Inactive)
REMARK       I    between atoms: N_6  and  C_7 
REMARK    1  A    between atoms: C_7  and  C_8 
REMARK    2  A    between atoms: C_9  and  N_10 
REMARK       I    between atoms: N_10  and  C_11 
REMARK    3  A    between atoms: C_11  and  C_12 
REMARK    4  A    between atoms: N_20  and  C_21 
ROOT
HETATM    1  C   UNL     1       5.352  27.446  51.552  1.00  0.00     0.097 C 
HETATM    2  C   UNL     1       6.066  27.012  52.663  1.00  0.00     0.149 C 
HETATM    3  N   UNL     1       6.038  25.611  52.641  1.00  0.00    -0.217 N 
HETATM    4  N   UNL     1       5.276  25.172  51.599  1.00  0.00    -0.177 NA
HETATM    5  C   UNL     1       5.005  26.260  50.887  1.00  0.00     0.160 C 
ENDROOT
BRANCH   2   6
HETATM    6  N   UNL     1       6.629  27.914  53.572  1.00  0.00    -0.306 N 
HETATM    7  C   UNL     1       6.019  28.202  54.835  1.00  0.00     0.257 C 
HETATM    8  O   UNL     1       4.839  27.943  54.988  1.00  0.00    -0.267 OA
HETATM    9  H   UNL     1       7.377  28.508  53.216  1.00  0.00     0.170 HD
BRANCH   7  10
HETATM   10  C   UNL     1       6.861  28.838  55.884  1.00  0.00     0.032 A 
HETATM   11  C   UNL     1       8.230  28.564  56.025  1.00  0.00     0.018 A 
HETATM   12  C   UNL     1       8.959  29.152  57.067  1.00  0.00     0.020 A 
HETATM   13  C   UNL     1       8.323  30.002  57.970  1.00  0.00     0.011 A 
HETATM   14 BR   UNL     1       9.308  30.774  59.384  1.00  0.00    -0.051 Br
HETATM   15  C   UNL     1       6.962  30.275  57.843  1.00  0.00     0.020 A 
HETATM   16  C   UNL     1       6.233  29.696  56.800  1.00  0.00     0.018 A 
ENDBRANCH   7  10
ENDBRANCH   2   6
BRANCH   1  17
HETATM   17  C   UNL     1       5.091  28.837  51.235  1.00  0.00     0.259 C 
HETATM   18  N   UNL     1       5.578  29.388  50.043  1.00  0.00    -0.345 N 
HETATM   19  C   UNL     1       5.399  30.834  49.844  1.00  0.00     0.154 C 
HETATM   20  C   UNL     1       5.747  28.640  48.785  1.00  0.00     0.154 C 
HETATM   21  C   UNL     1       4.189  31.125  48.935  1.00  0.00     0.254 C 
HETATM   22  N   UNL     1       4.356  30.381  47.608  1.00  0.00    -0.072 N 
HETATM   23  C   UNL     1       3.217  30.650  46.664  1.00  0.00     0.269 C 
HETATM   24  H   UNL     1       5.203  30.754  47.155  1.00  0.00     0.279 HD
HETATM   25  C   UNL     1       4.569  28.888  47.819  1.00  0.00     0.254 C 
HETATM   26  O   UNL     1       4.396  29.509  52.002  1.00  0.00    -0.267 OA
ENDBRANCH   1  17
BRANCH   3  27
HETATM   27  C   UNL     1       6.728  24.655  53.434  1.00  0.00     0.060 A 
HETATM   28  C   UNL     1       6.519  24.548  54.814  1.00  0.00     0.031 A 
HETATM   29  C   UNL     1       7.185  23.559  55.545  1.00  0.00     0.002 A 
HETATM   30  C   UNL     1       8.075  22.695  54.911  1.00  0.00     0.000 A 
HETATM   31  C   UNL     1       8.326  22.830  53.548  1.00  0.00     0.002 A 
HETATM   32  C   UNL     1       7.664  23.813  52.811  1.00  0.00     0.031 A 
ENDBRANCH   3  27
TORSDOF 4
ENDMDL
MODEL 8
REMARK VINA RESULT:      -8.2     10.074     14.730
REMARK  4 active torsions:
REMARK  status: ('A' for Active; 'I' for Inactive)
REMARK       I    between atoms: N_6  and  C_7 
REMARK    1  A    between atoms: C_7  and  C_8 
REMARK    2  A    between atoms: C_9  and  N_10 
REMARK       I    between atoms: N_10  and  C_11 
REMARK    3  A    between atoms: C_11  and  C_12 
REMARK    4  A    between atoms: N_20  and  C_21 
ROOT
HETATM    1  C   UNL     1       5.365  32.803  61.704  1.00  0.00     0.097 C 
HETATM    2  C   UNL     1       5.522  33.776  62.684  1.00  0.00     0.149 C 
HETATM    3  N   UNL     1       5.256  33.160  63.914  1.00  0.00    -0.217 N 
HETATM    4  N   UNL     1       4.875  31.865  63.719  1.00  0.00    -0.177 NA
HETATM    5  C   UNL     1       5.088  31.633  62.429  1.00  0.00     0.160 C 
ENDROOT
BRANCH   2   6
HETATM    6  N   UNL     1       5.854  35.096  62.361  1.00  0.00    -0.306 N 
HETATM    7  C   UNL     1       4.993  36.196  62.674  1.00  0.00     0.257 C 
HETATM    8  O   UNL     1       3.818  35.973  62.904  1.00  0.00    -0.267 OA
HETATM    9  H   UNL     1       6.632  35.222  61.715  1.00  0.00     0.170 HD
BRANCH   7  10
HETATM   10  C   UNL     1       5.581  37.563  62.668  1.00  0.00     0.032 A 
HETATM   11  C   UNL     1       6.091  38.162  61.507  1.00  0.00     0.018 A 
HETATM   12  C   UNL     1       6.682  39.430  61.574  1.00  0.00     0.020 A 
HETATM   13  C   UNL     1       6.774  40.093  62.796  1.00  0.00     0.011 A 
HETATM   14 BR   UNL     1       7.591  41.794  62.881  1.00  0.00    -0.051 Br
HETATM   15  C   UNL     1       6.277  39.504  63.957  1.00  0.00     0.020 A 
HETATM   16  C   UNL     1       5.680  38.241  63.892  1.00  0.00     0.018 A 
ENDBRANCH   7  10
ENDBRANCH   2   6
BRANCH   1  17
HETATM   17  C   UNL     1       5.491  33.043  60.279  1.00  0.00     0.259 C 
HETATM   18  N   UNL     1       4.347  33.242  59.497  1.00  0.00    -0.345 N 
HETATM   19  C   UNL     1       4.532  33.342  58.041  1.00  0.00     0.154 C 
HETATM   20  C   UNL     1       3.109  33.883  59.975  1.00  0.00     0.154 C 
HETATM   21  C   UNL     1       4.533  34.812  57.580  1.00  0.00     0.254 C 
HETATM   22  N   UNL     1       3.241  35.491  58.040  1.00  0.00    -0.072 N 
HETATM   23  C   UNL     1       3.168  36.926  57.592  1.00  0.00     0.269 C 
HETATM   24  H   UNL     1       2.459  35.004  57.579  1.00  0.00     0.279 HD
HETATM   25  C   UNL     1       3.038  35.363  59.544  1.00  0.00     0.254 C 
HETATM   26  O   UNL     1       6.617  33.117  59.779  1.00  0.00    -0.267 OA
ENDBRANCH   1  17
BRANCH   3  27
HETATM   27  C   UNL     1       5.419  33.632  65.245  1.00  0.00     0.060 A 
HETATM   28  C   UNL     1       4.324  33.972  66.048  1.00  0.00     0.031 A 
HETATM   29  C   UNL     1       4.530  34.385  67.368  1.00  0.00     0.002 A 
HETATM   30  C   UNL     1       5.822  34.484  67.880  1.00  0.00     0.000 A 
HETATM   31  C   UNL     1       6.918  34.197  67.070  1.00  0.00     0.002 A 
HETATM   32  C   UNL     1       6.720  33.783  65.752  1.00  0.00     0.031 A 
ENDBRANCH   3  27
TORSDOF 4
ENDMDL
MODEL 9
REMARK VINA RESULT:      -8.1      8.777     12.537
REMARK  4 active torsions:
REMARK  status: ('A' for Active; 'I' for Inactive)
REMARK       I    between atoms: N_6  and  C_7 
REMARK    1  A    between atoms: C_7  and  C_8 
REMARK    2  A    between atoms: C_9  and  N_10 
REMARK       I    between atoms: N_10  and  C_11 
REMARK    3  A    between atoms: C_11  and  C_12 
REMARK    4  A    between atoms: N_20  and  C_21 
ROOT
HETATM    1  C   UNL     1       3.181  34.061  61.747  1.00  0.00     0.097 C 
HETATM    2  C   UNL     1       4.380  33.985  62.445  1.00  0.00     0.149 C 
HETATM    3  N   UNL     1       4.089  34.280  63.784  1.00  0.00    -0.217 N 
HETATM    4  N   UNL     1       2.771  34.602  63.920  1.00  0.00    -0.177 NA
HETATM    5  C   UNL     1       2.226  34.325  62.740  1.00  0.00     0.160 C 
ENDROOT
BRANCH   2   6
HETATM    6  N   UNL     1       5.587  33.689  61.802  1.00  0.00    -0.306 N 
HETATM    7  C   UNL     1       6.143  32.370  61.795  1.00  0.00     0.257 C 
HETATM    8  O   UNL     1       5.766  31.571  62.634  1.00  0.00    -0.267 OA
HETATM    9  H   UNL     1       6.154  34.486  61.515  1.00  0.00     0.170 HD
BRANCH   7  10
HETATM   10  C   UNL     1       7.183  32.060  60.778  1.00  0.00     0.032 A 
HETATM   11  C   UNL     1       6.871  31.563  59.504  1.00  0.00     0.018 A 
HETATM   12  C   UNL     1       7.897  31.238  58.607  1.00  0.00     0.020 A 
HETATM   13  C   UNL     1       9.229  31.397  58.984  1.00  0.00     0.011 A 
HETATM   14 BR   UNL     1      10.606  30.937  57.777  1.00  0.00    -0.051 Br
HETATM   15  C   UNL     1       9.550  31.883  60.250  1.00  0.00     0.020 A 
HETATM   16  C   UNL     1       8.529  32.216  61.144  1.00  0.00     0.018 A 
ENDBRANCH   7  10
ENDBRANCH   2   6
BRANCH   1  17
HETATM   17  C   UNL     1       3.052  33.882  60.313  1.00  0.00     0.259 C 
HETATM   18  N   UNL     1       2.670  34.958  59.503  1.00  0.00    -0.345 N 
HETATM   19  C   UNL     1       2.423  34.679  58.081  1.00  0.00     0.154 C 
HETATM   20  C   UNL     1       3.004  36.368  59.774  1.00  0.00     0.154 C 
HETATM   21  C   UNL     1       3.638  35.068  57.217  1.00  0.00     0.254 C 
HETATM   22  N   UNL     1       3.987  36.538  57.460  1.00  0.00    -0.072 N 
HETATM   23  C   UNL     1       5.151  36.987  56.620  1.00  0.00     0.269 C 
HETATM   24  H   UNL     1       3.178  37.098  57.156  1.00  0.00     0.279 HD
HETATM   25  C   UNL     1       4.216  36.830  58.937  1.00  0.00     0.254 C 
HETATM   26  O   UNL     1       3.329  32.787  59.817  1.00  0.00    -0.267 OA
ENDBRANCH   1  17
BRANCH   3  27
HETATM   27  C   UNL     1       4.895  34.194  64.952  1.00  0.00     0.060 A 
HETATM   28  C   UNL     1       6.287  34.056  64.882  1.00  0.00     0.031 A 
HETATM   29  C   UNL     1       7.043  34.024  66.057  1.00  0.00     0.002 A 
HETATM   30  C   UNL     1       6.417  34.104  67.299  1.00  0.00     0.000 A 
HETATM   31  C   UNL     1       5.029  34.190  67.376  1.00  0.00     0.002 A 
HETATM   32  C   UNL     1       4.267  34.223  66.208  1.00  0.00     0.031 A 
ENDBRANCH   3  27
TORSDOF 4
ENDMDL
MODEL 10
REMARK VINA RESULT:      -7.9      7.441     10.529
REMARK  4 active torsions:
REMARK  status: ('A' for Active; 'I' for Inactive)
REMARK       I    between atoms: N_6  and  C_7 
REMARK    1  A    between atoms: C_7  and  C_8 
REMARK    2  A    between atoms: C_9  and  N_10 
REMARK       I    between atoms: N_10  and  C_11 
REMARK    3  A    between atoms: C_11  and  C_12 
REMARK    4  A    between atoms: N_20  and  C_21 
ROOT
HETATM    1  C   UNL     1       6.927  31.666  62.326  1.00  0.00     0.097 C 
HETATM    2  C   UNL     1       6.973  31.490  60.948  1.00  0.00     0.149 C 
HETATM    3  N   UNL     1       8.303  31.193  60.622  1.00  0.00    -0.217 N 
HETATM    4  N   UNL     1       9.086  31.249  61.737  1.00  0.00    -0.177 NA
HETATM    5  C   UNL     1       8.235  31.383  62.748  1.00  0.00     0.160 C 
ENDROOT
BRANCH   2   6
HETATM    6  N   UNL     1       5.834  31.642  60.151  1.00  0.00    -0.306 N 
HETATM    7  C   UNL     1       5.574  32.843  59.416  1.00  0.00     0.257 C 
HETATM    8  O   UNL     1       6.146  33.866  59.745  1.00  0.00    -0.267 OA
HETATM    9  H   UNL     1       5.099  30.947  60.274  1.00  0.00     0.170 HD
BRANCH   7  10
HETATM   10  C   UNL     1       4.587  32.778  58.305  1.00  0.00     0.032 A 
HETATM   11  C   UNL     1       4.177  31.567  57.726  1.00  0.00     0.018 A 
HETATM   12  C   UNL     1       3.285  31.573  56.646  1.00  0.00     0.020 A 
HETATM   13  C   UNL     1       2.812  32.782  56.138  1.00  0.00     0.011 A 
HETATM   14 BR   UNL     1       1.626  32.782  54.669  1.00  0.00    -0.051 Br
HETATM   15  C   UNL     1       3.218  33.990  56.701  1.00  0.00     0.020 A 
HETATM   16  C   UNL     1       4.102  33.988  57.784  1.00  0.00     0.018 A 
ENDBRANCH   7  10
ENDBRANCH   2   6
BRANCH   1  17
HETATM   17  C   UNL     1       5.740  32.046  63.067  1.00  0.00     0.259 C 
HETATM   18  N   UNL     1       5.727  33.232  63.811  1.00  0.00    -0.345 N 
HETATM   19  C   UNL     1       4.547  33.492  64.649  1.00  0.00     0.154 C 
HETATM   20  C   UNL     1       6.469  34.453  63.448  1.00  0.00     0.154 C 
HETATM   21  C   UNL     1       3.575  34.467  63.956  1.00  0.00     0.254 C 
HETATM   22  N   UNL     1       4.317  35.757  63.596  1.00  0.00    -0.072 N 
HETATM   23  C   UNL     1       3.411  36.763  62.941  1.00  0.00     0.269 C 
HETATM   24  H   UNL     1       4.633  36.183  64.478  1.00  0.00     0.279 HD
HETATM   25  C   UNL     1       5.553  35.482  62.751  1.00  0.00     0.254 C 
HETATM   26  O   UNL     1       4.732  31.337  62.994  1.00  0.00    -0.267 OA
ENDBRANCH   1  17
BRANCH   3  27
HETATM   27  C   UNL     1       8.888  30.770  59.397  1.00  0.00     0.060 A 
HETATM   28  C   UNL     1       9.981  31.436  58.830  1.00  0.00     0.031 A 
HETATM   29  C   UNL     1      10.553  30.955  57.648  1.00  0.00     0.002 A 
HETATM   30  C   UNL     1      10.025  29.829  57.019  1.00  0.00     0.000 A 
HETATM   31  C   UNL     1       8.906  29.193  57.551  1.00  0.00     0.002 A 
HETATM   32  C   UNL     1       8.330  29.667  58.730  1.00  0.00     0.031 A 
ENDBRANCH   3  27
TORSDOF 4
ENDMDL
