MODEL 1
REMARK VINA RESULT:     -10.6      0.000      0.000
REMARK  6 active torsions:
REMARK  status: ('A' for Active; 'I' for Inactive)
REMARK    1  A    between atoms: C_4  and  C_5 
REMARK    2  A    between atoms: C_5  and  N_6 
REMARK    3  A    between atoms: C_8  and  C_9 
REMARK       I    between atoms: C_9  and  N_10 
REMARK    4  A    between atoms: N_13  and  C_15 
REMARK    5  A    between atoms: C_29  and  S_30 
REMARK    6  A    between atoms: S_30  and  C_31 
ROOT
HETATM    1  N   UNL     1       7.537  27.079  56.500  1.00  0.00    -0.053 N 
HETATM    2  H   UNL     1       8.263  27.506  55.909  1.00  0.00     0.281 HD
HETATM    3  C   UNL     1       6.380  26.739  55.522  1.00  0.00     0.281 C 
HETATM    4  C   UNL     1       5.932  25.373  56.030  1.00  0.00     0.060 C 
HETATM    5  C   UNL     1       7.244  24.651  56.318  1.00  0.00     0.083 C 
HETATM    6  C   UNL     1       8.099  25.733  56.984  1.00  0.00     0.252 C 
ENDROOT
BRANCH   3   7
HETATM    7  C   UNL     1       5.251  27.762  55.282  1.00  0.00     0.251 C 
HETATM    8  N   UNL     1       5.049  28.269  54.000  1.00  0.00    -0.347 N 
HETATM    9  C   UNL     1       3.883  29.126  53.756  1.00  0.00     0.153 C 
HETATM   10  C   UNL     1       6.044  28.354  52.928  1.00  0.00     0.153 C 
HETATM   11  C   UNL     1       3.181  28.746  52.442  1.00  0.00     0.255 C 
HETATM   12  N   UNL     1       4.146  28.716  51.242  1.00  0.00    -0.063 N 
HETATM   13  H   UNL     1       4.399  29.691  51.037  1.00  0.00     0.280 HD
HETATM   14  C   UNL     1       5.444  27.958  51.567  1.00  0.00     0.255 C 
HETATM   15  O   UNL     1       4.540  28.143  56.211  1.00  0.00    -0.271 OA
BRANCH  12  16
HETATM   16  C   UNL     1       3.459  28.122  49.982  1.00  0.00     0.196 C 
HETATM   17  C   UNL     1       2.143  28.865  49.625  1.00  0.00     0.017 C 
HETATM   18  C   UNL     1       2.427  30.310  49.176  1.00  0.00     0.011 C 
HETATM   19  C   UNL     1       1.461  28.111  48.463  1.00  0.00     0.011 C 
HETATM   20  C   UNL     1       3.348  30.311  47.946  1.00  0.00    -0.013 C 
HETATM   21  C   UNL     1       4.670  29.605  48.296  1.00  0.00     0.011 C 
HETATM   22  C   UNL     1       2.660  29.550  46.799  1.00  0.00     0.009 C 
HETATM   23  C   UNL     1       4.395  28.157  48.743  1.00  0.00     0.017 C 
HETATM   24  C   UNL     1       3.698  27.410  47.586  1.00  0.00     0.011 C 
HETATM   25  C   UNL     1       2.374  28.101  47.227  1.00  0.00    -0.013 C 
ENDBRANCH  12  16
ENDBRANCH   3   7
BRANCH   1  26
HETATM   26  C   UNL     1       7.363  28.102  57.616  1.00  0.00     0.274 C 
BRANCH  26  27
HETATM   27  C   UNL     1       8.401  29.191  57.755  1.00  0.00    -0.033 A 
HETATM   28  C   UNL     1       8.228  30.209  58.713  1.00  0.00     0.009 A 
HETATM   29  C   UNL     1       9.184  31.213  58.879  1.00  0.00     0.001 A 
HETATM   30  C   UNL     1      10.339  31.207  58.106  1.00  0.00     0.000 A 
HETATM   31  C   UNL     1      10.543  30.193  57.175  1.00  0.00     0.001 A 
HETATM   32  C   UNL     1       9.582  29.191  57.002  1.00  0.00     0.009 A 
ENDBRANCH  26  27
ENDBRANCH   1  26
BRANCH   5  33
HETATM   33  S   UNL     1       7.985  24.057  54.747  1.00  0.00    -0.084 SA
BRANCH  33  34
HETATM   34  C   UNL     1       8.252  22.347  55.164  1.00  0.00     0.188 A 
HETATM   35  N   UNL     1       8.276  22.013  56.465  1.00  0.00    -0.235 NA
HETATM   36  C   UNL     1       8.476  20.706  56.733  1.00  0.00     0.121 A 
HETATM   37  C   UNL     1       8.697  19.758  55.762  1.00  0.00     0.038 A 
HETATM   38  C   UNL     1       8.700  20.223  54.468  1.00  0.00     0.121 A 
HETATM   39  N   UNL     1       8.489  21.515  54.144  1.00  0.00    -0.235 NA
ENDBRANCH  33  34
ENDBRANCH   5  33
TORSDOF 6
ENDMDL
MODEL 2
REMARK VINA RESULT:     -10.1      2.459      5.954
REMARK  6 active torsions:
REMARK  status: ('A' for Active; 'I' for Inactive)
REMARK    1  A    between atoms: C_4  and  C_5 
REMARK    2  A    between atoms: C_5  and  N_6 
REMARK    3  A    between atoms: C_8  and  C_9 
REMARK       I    between atoms: C_9  and  N_10 
REMARK    4  A    between atoms: N_13  and  C_15 
REMARK    5  A    between atoms: C_29  and  S_30 
REMARK    6  A    between atoms: S_30  and  C_31 
ROOT
HETATM    1  N   UNL     1       5.739  26.940  56.050  1.00  0.00    -0.053 N 
HETATM    2  H   UNL     1       4.781  27.303  55.951  1.00  0.00     0.281 HD
HETATM    3  C   UNL     1       6.566  27.711  54.986  1.00  0.00     0.281 C 
HETATM    4  C   UNL     1       7.859  27.998  55.741  1.00  0.00     0.060 C 
HETATM    5  C   UNL     1       7.378  28.411  57.128  1.00  0.00     0.083 C 
HETATM    6  C   UNL     1       6.252  27.415  57.418  1.00  0.00     0.252 C 
ENDROOT
BRANCH   3   7
HETATM    7  C   UNL     1       6.739  27.121  53.571  1.00  0.00     0.251 C 
HETATM    8  N   UNL     1       5.681  27.192  52.666  1.00  0.00    -0.347 N 
HETATM    9  C   UNL     1       5.906  26.761  51.282  1.00  0.00     0.153 C 
HETATM   10  C   UNL     1       4.258  27.309  52.995  1.00  0.00     0.153 C 
HETATM   11  C   UNL     1       5.281  27.751  50.285  1.00  0.00     0.255 C 
HETATM   12  N   UNL     1       3.794  28.026  50.577  1.00  0.00    -0.063 N 
HETATM   13  H   UNL     1       3.278  27.171  50.332  1.00  0.00     0.280 HD
HETATM   14  C   UNL     1       3.543  28.309  52.068  1.00  0.00     0.255 C 
HETATM   15  O   UNL     1       7.792  26.579  53.241  1.00  0.00    -0.271 OA
BRANCH  12  16
HETATM   16  C   UNL     1       3.252  29.184  49.695  1.00  0.00     0.196 C 
HETATM   17  C   UNL     1       3.871  29.178  48.271  1.00  0.00     0.017 C 
HETATM   18  C   UNL     1       3.419  27.938  47.476  1.00  0.00     0.011 C 
HETATM   19  C   UNL     1       3.392  30.443  47.528  1.00  0.00     0.011 C 
HETATM   20  C   UNL     1       1.888  27.919  47.352  1.00  0.00    -0.013 C 
HETATM   21  C   UNL     1       1.262  27.893  48.757  1.00  0.00     0.011 C 
HETATM   22  C   UNL     1       1.424  29.190  46.618  1.00  0.00     0.009 C 
HETATM   23  C   UNL     1       1.705  29.131  49.559  1.00  0.00     0.017 C 
HETATM   24  C   UNL     1       1.241  30.396  48.806  1.00  0.00     0.011 C 
HETATM   25  C   UNL     1       1.861  30.439  47.402  1.00  0.00    -0.013 C 
ENDBRANCH  12  16
ENDBRANCH   3   7
BRANCH   1  26
HETATM   26  C   UNL     1       5.541  25.431  55.965  1.00  0.00     0.274 C 
BRANCH  26  27
HETATM   27  C   UNL     1       6.764  24.558  55.809  1.00  0.00    -0.033 A 
HETATM   28  C   UNL     1       6.906  23.742  54.670  1.00  0.00     0.009 A 
HETATM   29  C   UNL     1       8.037  22.945  54.488  1.00  0.00     0.001 A 
HETATM   30  C   UNL     1       9.058  22.963  55.432  1.00  0.00     0.000 A 
HETATM   31  C   UNL     1       8.951  23.786  56.550  1.00  0.00     0.001 A 
HETATM   32  C   UNL     1       7.814  24.579  56.736  1.00  0.00     0.009 A 
ENDBRANCH  26  27
ENDBRANCH   1  26
BRANCH   5  33
HETATM   33  S   UNL     1       6.773  30.144  57.085  1.00  0.00    -0.084 SA
BRANCH  33  34
HETATM   34  C   UNL     1       7.529  30.766  58.572  1.00  0.00     0.188 A 
HETATM   35  N   UNL     1       8.356  29.950  59.247  1.00  0.00    -0.235 NA
HETATM   36  C   UNL     1       8.909  30.467  60.363  1.00  0.00     0.121 A 
HETATM   37  C   UNL     1       8.624  31.725  60.839  1.00  0.00     0.038 A 
HETATM   38  C   UNL     1       7.726  32.452  60.095  1.00  0.00     0.121 A 
HETATM   39  N   UNL     1       7.157  31.991  58.962  1.00  0.00    -0.235 NA
ENDBRANCH  33  34
ENDBRANCH   5  33
TORSDOF 6
ENDMDL
MODEL 3
REMARK VINA RESULT:      -9.7      2.093      6.157
REMARK  6 active torsions:
REMARK  status: ('A' for Active; 'I' for Inactive)
REMARK    1  A    between atoms: C_4  and  C_5 
REMARK    2  A    between atoms: C_5  and  N_6 
REMARK    3  A    between atoms: C_8  and  C_9 
REMARK       I    between atoms: C_9  and  N_10 
REMARK    4  A    between atoms: N_13  and  C_15 
REMARK    5  A    between atoms: C_29  and  S_30 
REMARK    6  A    between atoms: S_30  and  C_31 
ROOT
HETATM    1  N   UNL     1       7.447  25.223  55.389  1.00  0.00    -0.053 N 
HETATM    2  H   UNL     1       6.821  24.648  55.969  1.00  0.00     0.281 HD
HETATM    3  C   UNL     1       6.500  26.037  54.468  1.00  0.00     0.281 C 
HETATM    4  C   UNL     1       7.168  27.407  54.462  1.00  0.00     0.060 C 
HETATM    5  C   UNL     1       7.570  27.614  55.919  1.00  0.00     0.083 C 
HETATM    6  C   UNL     1       8.109  26.241  56.331  1.00  0.00     0.252 C 
ENDROOT
BRANCH   3   7
HETATM    7  C   UNL     1       6.111  25.481  53.082  1.00  0.00     0.251 C 
HETATM    8  N   UNL     1       5.185  26.173  52.303  1.00  0.00    -0.347 N 
HETATM    9  C   UNL     1       4.935  25.716  50.931  1.00  0.00     0.153 C 
HETATM   10  C   UNL     1       4.154  27.094  52.786  1.00  0.00     0.153 C 
HETATM   11  C   UNL     1       4.879  26.901  49.954  1.00  0.00     0.255 C 
HETATM   12  N   UNL     1       3.883  27.989  50.398  1.00  0.00    -0.063 N 
HETATM   13  H   UNL     1       2.940  27.601  50.268  1.00  0.00     0.280 HD
HETATM   14  C   UNL     1       4.041  28.339  51.887  1.00  0.00     0.255 C 
HETATM   15  O   UNL     1       6.598  24.431  52.667  1.00  0.00    -0.271 OA
BRANCH  12  16
HETATM   16  C   UNL     1       4.007  29.259  49.513  1.00  0.00     0.196 C 
HETATM   17  C   UNL     1       4.293  28.916  48.027  1.00  0.00     0.017 C 
HETATM   18  C   UNL     1       3.091  28.201  47.383  1.00  0.00     0.011 C 
HETATM   19  C   UNL     1       4.551  30.234  47.266  1.00  0.00     0.011 C 
HETATM   20  C   UNL     1       1.843  29.094  47.455  1.00  0.00    -0.013 C 
HETATM   21  C   UNL     1       1.530  29.416  48.926  1.00  0.00     0.011 C 
HETATM   22  C   UNL     1       2.117  30.407  46.700  1.00  0.00     0.009 C 
HETATM   23  C   UNL     1       2.726  30.135  49.578  1.00  0.00     0.017 C 
HETATM   24  C   UNL     1       2.992  31.444  48.805  1.00  0.00     0.011 C 
HETATM   25  C   UNL     1       3.311  31.139  47.334  1.00  0.00    -0.013 C 
ENDBRANCH  12  16
ENDBRANCH   3   7
BRANCH   1  26
HETATM   26  C   UNL     1       8.421  24.196  54.823  1.00  0.00     0.274 C 
BRANCH  26  27
HETATM   27  C   UNL     1       8.288  22.760  55.274  1.00  0.00    -0.033 A 
HETATM   28  C   UNL     1       8.113  21.736  54.323  1.00  0.00     0.009 A 
HETATM   29  C   UNL     1       8.012  20.400  54.711  1.00  0.00     0.001 A 
HETATM   30  C   UNL     1       8.104  20.058  56.056  1.00  0.00     0.000 A 
HETATM   31  C   UNL     1       8.306  21.052  57.009  1.00  0.00     0.001 A 
HETATM   32  C   UNL     1       8.400  22.392  56.622  1.00  0.00     0.009 A 
ENDBRANCH  26  27
ENDBRANCH   1  26
BRANCH   5  33
HETATM   33  S   UNL     1       6.101  28.102  56.905  1.00  0.00    -0.084 SA
BRANCH  33  34
HETATM   34  C   UNL     1       6.810  29.415  57.877  1.00  0.00     0.188 A 
HETATM   35  N   UNL     1       6.187  30.605  57.877  1.00  0.00    -0.235 NA
HETATM   36  C   UNL     1       6.757  31.567  58.631  1.00  0.00     0.121 A 
HETATM   37  C   UNL     1       7.930  31.391  59.326  1.00  0.00     0.038 A 
HETATM   38  C   UNL     1       8.507  30.148  59.212  1.00  0.00     0.121 A 
HETATM   39  N   UNL     1       7.971  29.146  58.486  1.00  0.00    -0.235 NA
ENDBRANCH  33  34
ENDBRANCH   5  33
TORSDOF 6
ENDMDL
MODEL 4
REMARK VINA RESULT:      -9.2      2.765      6.621
REMARK  6 active torsions:
REMARK  status: ('A' for Active; 'I' for Inactive)
REMARK    1  A    between atoms: C_4  and  C_5 
REMARK    2  A    between atoms: C_5  and  N_6 
REMARK    3  A    between atoms: C_8  and  C_9 
REMARK       I    between atoms: C_9  and  N_10 
REMARK    4  A    between atoms: N_13  and  C_15 
REMARK    5  A    between atoms: C_29  and  S_30 
REMARK    6  A    between atoms: S_30  and  C_31 
ROOT
HETATM    1  N   UNL     1       6.621  24.968  54.212  1.00  0.00    -0.053 N 
HETATM    2  H   UNL     1       5.786  24.438  54.495  1.00  0.00     0.281 HD
HETATM    3  C   UNL     1       6.070  26.308  53.654  1.00  0.00     0.281 C 
HETATM    4  C   UNL     1       7.069  27.315  54.213  1.00  0.00     0.060 C 
HETATM    5  C   UNL     1       7.288  26.842  55.646  1.00  0.00     0.083 C 
HETATM    6  C   UNL     1       7.378  25.320  55.502  1.00  0.00     0.252 C 
ENDROOT
BRANCH   3   7
HETATM    7  C   UNL     1       5.761  26.444  52.148  1.00  0.00     0.251 C 
HETATM    8  N   UNL     1       5.273  27.654  51.657  1.00  0.00    -0.347 N 
HETATM    9  C   UNL     1       5.123  27.817  50.206  1.00  0.00     0.153 C 
HETATM   10  C   UNL     1       4.548  28.675  52.416  1.00  0.00     0.153 C 
HETATM   11  C   UNL     1       5.641  29.190  49.747  1.00  0.00     0.255 C 
HETATM   12  N   UNL     1       5.012  30.355  50.535  1.00  0.00    -0.063 N 
HETATM   13  H   UNL     1       4.030  30.421  50.236  1.00  0.00     0.280 HD
HETATM   14  C   UNL     1       5.020  30.094  52.050  1.00  0.00     0.255 C 
HETATM   15  O   UNL     1       5.927  25.495  51.384  1.00  0.00    -0.271 OA
BRANCH  12  16
HETATM   16  C   UNL     1       5.709  31.701  50.200  1.00  0.00     0.196 C 
HETATM   17  C   UNL     1       5.664  32.026  48.683  1.00  0.00     0.017 C 
HETATM   18  C   UNL     1       4.222  32.295  48.217  1.00  0.00     0.011 C 
HETATM   19  C   UNL     1       6.509  33.294  48.434  1.00  0.00     0.011 C 
HETATM   20  C   UNL     1       3.625  33.478  48.997  1.00  0.00    -0.013 C 
HETATM   21  C   UNL     1       3.635  33.155  50.501  1.00  0.00     0.011 C 
HETATM   22  C   UNL     1       4.482  34.732  48.745  1.00  0.00     0.009 C 
HETATM   23  C   UNL     1       5.075  32.888  50.977  1.00  0.00     0.017 C 
HETATM   24  C   UNL     1       5.922  34.150  50.711  1.00  0.00     0.011 C 
HETATM   25  C   UNL     1       5.926  34.484  49.212  1.00  0.00    -0.013 C 
ENDBRANCH  12  16
ENDBRANCH   3   7
BRANCH   1  26
HETATM   26  C   UNL     1       7.364  23.979  53.321  1.00  0.00     0.274 C 
BRANCH  26  27
HETATM   27  C   UNL     1       7.680  22.612  53.881  1.00  0.00    -0.033 A 
HETATM   28  C   UNL     1       8.225  21.618  53.045  1.00  0.00     0.009 A 
HETATM   29  C   UNL     1       8.550  20.355  53.543  1.00  0.00     0.001 A 
HETATM   30  C   UNL     1       8.356  20.067  54.889  1.00  0.00     0.000 A 
HETATM   31  C   UNL     1       7.847  21.046  55.738  1.00  0.00     0.001 A 
HETATM   32  C   UNL     1       7.514  22.309  55.239  1.00  0.00     0.009 A 
ENDBRANCH  26  27
ENDBRANCH   1  26
BRANCH   5  33
HETATM   33  S   UNL     1       5.869  27.352  56.693  1.00  0.00    -0.084 SA
BRANCH  33  34
HETATM   34  C   UNL     1       6.579  28.773  57.497  1.00  0.00     0.188 A 
HETATM   35  N   UNL     1       5.932  29.945  57.390  1.00  0.00    -0.235 NA
HETATM   36  C   UNL     1       6.504  30.991  58.020  1.00  0.00     0.121 A 
HETATM   37  C   UNL     1       7.700  30.910  58.693  1.00  0.00     0.038 A 
HETATM   38  C   UNL     1       8.298  29.673  58.693  1.00  0.00     0.121 A 
HETATM   39  N   UNL     1       7.762  28.590  58.095  1.00  0.00    -0.235 NA
ENDBRANCH  33  34
ENDBRANCH   5  33
TORSDOF 6
ENDMDL
MODEL 5
REMARK VINA RESULT:      -9.2      2.427      6.017
REMARK  6 active torsions:
REMARK  status: ('A' for Active; 'I' for Inactive)
REMARK    1  A    between atoms: C_4  and  C_5 
REMARK    2  A    between atoms: C_5  and  N_6 
REMARK    3  A    between atoms: C_8  and  C_9 
REMARK       I    between atoms: C_9  and  N_10 
REMARK    4  A    between atoms: N_13  and  C_15 
REMARK    5  A    between atoms: C_29  and  S_30 
REMARK    6  A    between atoms: S_30  and  C_31 
ROOT
HETATM    1  N   UNL     1       5.801  25.940  54.490  1.00  0.00    -0.053 N 
HETATM    2  H   UNL     1       4.849  26.213  54.768  1.00  0.00     0.281 HD
HETATM    3  C   UNL     1       6.191  26.947  53.375  1.00  0.00     0.281 C 
HETATM    4  C   UNL     1       7.647  27.245  53.717  1.00  0.00     0.060 C 
HETATM    5  C   UNL     1       7.634  27.388  55.235  1.00  0.00     0.083 C 
HETATM    6  C   UNL     1       6.715  26.249  55.686  1.00  0.00     0.252 C 
ENDROOT
BRANCH   3   7
HETATM    7  C   UNL     1       5.913  26.603  51.897  1.00  0.00     0.251 C 
HETATM    8  N   UNL     1       5.120  27.457  51.133  1.00  0.00    -0.347 N 
HETATM    9  C   UNL     1       4.984  27.197  49.695  1.00  0.00     0.153 C 
HETATM   10  C   UNL     1       4.105  28.387  51.635  1.00  0.00     0.153 C 
HETATM   11  C   UNL     1       5.106  28.497  48.883  1.00  0.00     0.255 C 
HETATM   12  N   UNL     1       4.142  29.594  49.373  1.00  0.00    -0.063 N 
HETATM   13  H   UNL     1       3.194  29.300  49.104  1.00  0.00     0.280 HD
HETATM   14  C   UNL     1       4.166  29.740  50.904  1.00  0.00     0.255 C 
HETATM   15  O   UNL     1       6.372  25.579  51.393  1.00  0.00    -0.271 OA
BRANCH  12  16
HETATM   16  C   UNL     1       4.438  30.953  48.682  1.00  0.00     0.196 C 
HETATM   17  C   UNL     1       4.545  30.817  47.139  1.00  0.00     0.017 C 
HETATM   18  C   UNL     1       3.186  30.439  46.521  1.00  0.00     0.011 C 
HETATM   19  C   UNL     1       4.990  32.178  46.562  1.00  0.00     0.011 C 
HETATM   20  C   UNL     1       2.137  31.512  46.854  1.00  0.00    -0.013 C 
HETATM   21  C   UNL     1       1.998  31.634  48.381  1.00  0.00     0.011 C 
HETATM   22  C   UNL     1       2.598  32.864  46.280  1.00  0.00     0.009 C 
HETATM   23  C   UNL     1       3.353  32.015  49.008  1.00  0.00     0.017 C 
HETATM   24  C   UNL     1       3.804  33.368  48.418  1.00  0.00     0.011 C 
HETATM   25  C   UNL     1       3.951  33.261  46.892  1.00  0.00    -0.013 C 
ENDBRANCH  12  16
ENDBRANCH   3   7
BRANCH   1  26
HETATM   26  C   UNL     1       5.657  24.450  54.203  1.00  0.00     0.274 C 
BRANCH  26  27
HETATM   27  C   UNL     1       6.875  23.571  54.364  1.00  0.00    -0.033 A 
HETATM   28  C   UNL     1       7.240  23.101  55.641  1.00  0.00     0.009 A 
HETATM   29  C   UNL     1       8.346  22.267  55.814  1.00  0.00     0.001 A 
HETATM   30  C   UNL     1       9.097  21.871  54.712  1.00  0.00     0.000 A 
HETATM   31  C   UNL     1       8.735  22.301  53.439  1.00  0.00     0.001 A 
HETATM   32  C   UNL     1       7.631  23.142  53.266  1.00  0.00     0.009 A 
ENDBRANCH  26  27
ENDBRANCH   1  26
BRANCH   5  33
HETATM   33  S   UNL     1       6.969  29.035  55.699  1.00  0.00    -0.084 SA
BRANCH  33  34
HETATM   34  C   UNL     1       8.365  29.687  56.591  1.00  0.00     0.188 A 
HETATM   35  N   UNL     1       8.129  30.317  57.754  1.00  0.00    -0.235 NA
HETATM   36  C   UNL     1       9.217  30.789  58.398  1.00  0.00     0.121 A 
HETATM   37  C   UNL     1      10.494  30.696  57.897  1.00  0.00     0.038 A 
HETATM   38  C   UNL     1      10.609  30.077  56.676  1.00  0.00     0.121 A 
HETATM   39  N   UNL     1       9.558  29.572  55.998  1.00  0.00    -0.235 NA
ENDBRANCH  33  34
ENDBRANCH   5  33
TORSDOF 6
ENDMDL
MODEL 6
REMARK VINA RESULT:      -9.1      3.521      6.435
REMARK  6 active torsions:
REMARK  status: ('A' for Active; 'I' for Inactive)
REMARK    1  A    between atoms: C_4  and  C_5 
REMARK    2  A    between atoms: C_5  and  N_6 
REMARK    3  A    between atoms: C_8  and  C_9 
REMARK       I    between atoms: C_9  and  N_10 
REMARK    4  A    between atoms: N_13  and  C_15 
REMARK    5  A    between atoms: C_29  and  S_30 
REMARK    6  A    between atoms: S_30  and  C_31 
ROOT
HETATM    1  N   UNL     1       5.908  29.213  57.651  1.00  0.00    -0.053 N 
HETATM    2  H   UNL     1       5.225  28.782  58.288  1.00  0.00     0.281 HD
HETATM    3  C   UNL     1       5.260  29.110  56.245  1.00  0.00     0.281 C 
HETATM    4  C   UNL     1       5.609  30.465  55.638  1.00  0.00     0.060 C 
HETATM    5  C   UNL     1       5.366  31.442  56.784  1.00  0.00     0.083 C 
HETATM    6  C   UNL     1       5.948  30.710  57.997  1.00  0.00     0.252 C 
ENDROOT
BRANCH   3   7
HETATM    7  C   UNL     1       5.553  27.886  55.351  1.00  0.00     0.251 C 
HETATM    8  N   UNL     1       4.856  27.732  54.154  1.00  0.00    -0.347 N 
HETATM    9  C   UNL     1       5.246  26.647  53.246  1.00  0.00     0.153 C 
HETATM   10  C   UNL     1       3.540  28.290  53.832  1.00  0.00     0.153 C 
HETATM   11  C   UNL     1       5.295  27.135  51.789  1.00  0.00     0.255 C 
HETATM   12  N   UNL     1       3.989  27.824  51.350  1.00  0.00    -0.063 N 
HETATM   13  H   UNL     1       3.275  27.088  51.271  1.00  0.00     0.280 HD
HETATM   14  C   UNL     1       3.496  28.839  52.395  1.00  0.00     0.255 C 
HETATM   15  O   UNL     1       6.382  27.044  55.691  1.00  0.00    -0.271 OA
BRANCH  12  16
HETATM   16  C   UNL     1       4.146  28.493  49.958  1.00  0.00     0.196 C 
HETATM   17  C   UNL     1       4.377  27.454  48.828  1.00  0.00     0.017 C 
HETATM   18  C   UNL     1       3.128  26.578  48.617  1.00  0.00     0.011 C 
HETATM   19  C   UNL     1       4.672  28.217  47.520  1.00  0.00     0.011 C 
HETATM   20  C   UNL     1       1.923  27.457  48.246  1.00  0.00    -0.013 C 
HETATM   21  C   UNL     1       1.663  28.472  49.372  1.00  0.00     0.011 C 
HETATM   22  C   UNL     1       2.235  28.218  46.945  1.00  0.00     0.009 C 
HETATM   23  C   UNL     1       2.907  29.354  49.588  1.00  0.00     0.017 C 
HETATM   24  C   UNL     1       3.211  30.104  48.274  1.00  0.00     0.011 C 
HETATM   25  C   UNL     1       3.477  29.104  47.139  1.00  0.00    -0.013 C 
ENDBRANCH  12  16
ENDBRANCH   3   7
BRANCH   1  26
HETATM   26  C   UNL     1       7.200  28.477  57.990  1.00  0.00     0.274 C 
BRANCH  26  27
HETATM   27  C   UNL     1       8.509  29.208  57.804  1.00  0.00    -0.033 A 
HETATM   28  C   UNL     1       9.286  28.978  56.652  1.00  0.00     0.009 A 
HETATM   29  C   UNL     1      10.486  29.658  56.443  1.00  0.00     0.001 A 
HETATM   30  C   UNL     1      10.924  30.596  57.372  1.00  0.00     0.000 A 
HETATM   31  C   UNL     1      10.156  30.860  58.502  1.00  0.00     0.001 A 
HETATM   32  C   UNL     1       8.956  30.173  58.716  1.00  0.00     0.009 A 
ENDBRANCH  26  27
ENDBRANCH   1  26
BRANCH   5  33
HETATM   33  S   UNL     1       3.566  31.752  56.964  1.00  0.00    -0.084 SA
BRANCH  33  34
HETATM   34  C   UNL     1       3.578  32.774  58.422  1.00  0.00     0.188 A 
HETATM   35  N   UNL     1       3.034  32.275  59.544  1.00  0.00    -0.235 NA
HETATM   36  C   UNL     1       3.070  33.082  60.624  1.00  0.00     0.121 A 
HETATM   37  C   UNL     1       3.577  34.361  60.599  1.00  0.00     0.038 A 
HETATM   38  C   UNL     1       4.060  34.783  59.384  1.00  0.00     0.121 A 
HETATM   39  N   UNL     1       4.064  34.012  58.278  1.00  0.00    -0.235 NA
ENDBRANCH  33  34
ENDBRANCH   5  33
TORSDOF 6
ENDMDL
MODEL 7
REMARK VINA RESULT:      -8.8      4.325     10.403
REMARK  6 active torsions:
REMARK  status: ('A' for Active; 'I' for Inactive)
REMARK    1  A    between atoms: C_4  and  C_5 
REMARK    2  A    between atoms: C_5  and  N_6 
REMARK    3  A    between atoms: C_8  and  C_9 
REMARK       I    between atoms: C_9  and  N_10 
REMARK    4  A    between atoms: N_13  and  C_15 
REMARK    5  A    between atoms: C_29  and  S_30 
REMARK    6  A    between atoms: S_30  and  C_31 
ROOT
HETATM    1  N   UNL     1       6.565  28.022  56.048  1.00  0.00    -0.053 N 
HETATM    2  H   UNL     1       7.147  28.313  55.251  1.00  0.00     0.281 HD
HETATM    3  C   UNL     1       6.384  29.309  56.897  1.00  0.00     0.281 C 
HETATM    4  C   UNL     1       4.919  29.209  57.308  1.00  0.00     0.060 C 
HETATM    5  C   UNL     1       4.222  28.745  56.034  1.00  0.00     0.083 C 
HETATM    6  C   UNL     1       5.178  27.684  55.479  1.00  0.00     0.252 C 
ENDROOT
BRANCH   3   7
HETATM    7  C   UNL     1       7.374  29.622  58.038  1.00  0.00     0.251 C 
HETATM    8  N   UNL     1       7.150  30.731  58.853  1.00  0.00    -0.347 N 
HETATM    9  C   UNL     1       8.014  30.933  60.022  1.00  0.00     0.153 C 
HETATM   10  C   UNL     1       6.386  31.930  58.503  1.00  0.00     0.153 C 
HETATM   11  C   UNL     1       7.191  31.333  61.256  1.00  0.00     0.255 C 
HETATM   12  N   UNL     1       6.273  32.542  60.991  1.00  0.00    -0.063 N 
HETATM   13  H   UNL     1       6.882  33.366  60.904  1.00  0.00     0.280 HD
HETATM   14  C   UNL     1       5.498  32.395  59.671  1.00  0.00     0.255 C 
HETATM   15  O   UNL     1       8.362  28.914  58.225  1.00  0.00    -0.271 OA
BRANCH  12  16
HETATM   16  C   UNL     1       5.303  32.783  62.180  1.00  0.00     0.196 C 
HETATM   17  C   UNL     1       6.054  33.173  63.481  1.00  0.00     0.017 C 
HETATM   18  C   UNL     1       6.728  34.550  63.341  1.00  0.00     0.011 C 
HETATM   19  C   UNL     1       5.027  33.241  64.632  1.00  0.00     0.011 C 
HETATM   20  C   UNL     1       5.674  35.626  63.033  1.00  0.00    -0.013 C 
HETATM   21  C   UNL     1       4.944  35.268  61.727  1.00  0.00     0.011 C 
HETATM   22  C   UNL     1       4.653  35.676  64.183  1.00  0.00     0.009 C 
HETATM   23  C   UNL     1       4.264  33.893  61.860  1.00  0.00     0.017 C 
HETATM   24  C   UNL     1       3.250  33.957  63.022  1.00  0.00     0.011 C 
HETATM   25  C   UNL     1       3.964  34.310  64.335  1.00  0.00    -0.013 C 
ENDBRANCH  12  16
ENDBRANCH   3   7
BRANCH   1  26
HETATM   26  C   UNL     1       7.312  26.809  56.588  1.00  0.00     0.274 C 
BRANCH  26  27
HETATM   27  C   UNL     1       7.414  25.583  55.711  1.00  0.00    -0.033 A 
HETATM   28  C   UNL     1       7.371  24.299  56.287  1.00  0.00     0.009 A 
HETATM   29  C   UNL     1       7.437  23.150  55.497  1.00  0.00     0.001 A 
HETATM   30  C   UNL     1       7.529  23.263  54.114  1.00  0.00     0.000 A 
HETATM   31  C   UNL     1       7.543  24.522  53.523  1.00  0.00     0.001 A 
HETATM   32  C   UNL     1       7.484  25.674  54.314  1.00  0.00     0.009 A 
ENDBRANCH  26  27
ENDBRANCH   1  26
BRANCH   5  33
HETATM   33  S   UNL     1       4.020  30.161  54.884  1.00  0.00    -0.084 SA
BRANCH  33  34
HETATM   34  C   UNL     1       4.233  29.322  53.328  1.00  0.00     0.188 A 
HETATM   35  N   UNL     1       3.132  29.032  52.615  1.00  0.00    -0.235 NA
HETATM   36  C   UNL     1       3.342  28.401  51.441  1.00  0.00     0.121 A 
HETATM   37  C   UNL     1       4.586  28.017  50.997  1.00  0.00     0.038 A 
HETATM   38  C   UNL     1       5.633  28.321  51.833  1.00  0.00     0.121 A 
HETATM   39  N   UNL     1       5.482  28.965  53.008  1.00  0.00    -0.235 NA
ENDBRANCH  33  34
ENDBRANCH   5  33
TORSDOF 6
ENDMDL
MODEL 8
REMARK VINA RESULT:      -8.8      2.791      6.525
REMARK  6 active torsions:
REMARK  status: ('A' for Active; 'I' for Inactive)
REMARK    1  A    between atoms: C_4  and  C_5 
REMARK    2  A    between atoms: C_5  and  N_6 
REMARK    3  A    between atoms: C_8  and  C_9 
REMARK       I    between atoms: C_9  and  N_10 
REMARK    4  A    between atoms: N_13  and  C_15 
REMARK    5  A    between atoms: C_29  and  S_30 
REMARK    6  A    between atoms: S_30  and  C_31 
ROOT
HETATM    1  N   UNL     1       6.910  25.364  54.644  1.00  0.00    -0.053 N 
HETATM    2  H   UNL     1       6.248  24.646  54.968  1.00  0.00     0.281 HD
HETATM    3  C   UNL     1       6.044  26.363  53.831  1.00  0.00     0.281 C 
HETATM    4  C   UNL     1       6.626  27.705  54.261  1.00  0.00     0.060 C 
HETATM    5  C   UNL     1       6.822  27.543  55.765  1.00  0.00     0.083 C 
HETATM    6  C   UNL     1       7.383  26.123  55.893  1.00  0.00     0.252 C 
ENDROOT
BRANCH   3   7
HETATM    7  C   UNL     1       5.872  26.170  52.309  1.00  0.00     0.251 C 
HETATM    8  N   UNL     1       5.134  27.102  51.581  1.00  0.00    -0.347 N 
HETATM    9  C   UNL     1       5.101  26.988  50.119  1.00  0.00     0.153 C 
HETATM   10  C   UNL     1       4.085  27.982  52.101  1.00  0.00     0.153 C 
HETATM   11  C   UNL     1       5.278  28.362  49.452  1.00  0.00     0.255 C 
HETATM   12  N   UNL     1       4.280  29.410  49.980  1.00  0.00    -0.063 N 
HETATM   13  H   UNL     1       3.354  29.150  49.616  1.00  0.00     0.280 HD
HETATM   14  C   UNL     1       4.196  29.401  51.515  1.00  0.00     0.255 C 
HETATM   15  O   UNL     1       6.367  25.200  51.739  1.00  0.00    -0.271 OA
BRANCH  12  16
HETATM   16  C   UNL     1       4.623  30.829  49.451  1.00  0.00     0.196 C 
HETATM   17  C   UNL     1       4.779  30.860  47.907  1.00  0.00     0.017 C 
HETATM   18  C   UNL     1       3.435  30.581  47.209  1.00  0.00     0.011 C 
HETATM   19  C   UNL     1       5.266  32.266  47.497  1.00  0.00     0.011 C 
HETATM   20  C   UNL     1       2.394  31.633  47.625  1.00  0.00    -0.013 C 
HETATM   21  C   UNL     1       2.207  31.591  49.151  1.00  0.00     0.011 C 
HETATM   22  C   UNL     1       2.897  33.030  47.218  1.00  0.00     0.009 C 
HETATM   23  C   UNL     1       3.546  31.872  49.858  1.00  0.00     0.017 C 
HETATM   24  C   UNL     1       4.040  33.271  49.434  1.00  0.00     0.011 C 
HETATM   25  C   UNL     1       4.236  33.329  47.911  1.00  0.00    -0.013 C 
ENDBRANCH  12  16
ENDBRANCH   3   7
BRANCH   1  26
HETATM   26  C   UNL     1       8.008  24.539  53.982  1.00  0.00     0.274 C 
BRANCH  26  27
HETATM   27  C   UNL     1       7.997  23.042  54.186  1.00  0.00    -0.033 A 
HETATM   28  C   UNL     1       7.903  22.509  55.486  1.00  0.00     0.009 A 
HETATM   29  C   UNL     1       7.866  21.131  55.701  1.00  0.00     0.001 A 
HETATM   30  C   UNL     1       7.901  20.257  54.619  1.00  0.00     0.000 A 
HETATM   31  C   UNL     1       7.964  20.764  53.325  1.00  0.00     0.001 A 
HETATM   32  C   UNL     1       8.009  22.145  53.109  1.00  0.00     0.009 A 
ENDBRANCH  26  27
ENDBRANCH   1  26
BRANCH   5  33
HETATM   33  S   UNL     1       5.212  27.729  56.625  1.00  0.00    -0.084 SA
BRANCH  33  34
HETATM   34  C   UNL     1       4.825  29.411  56.187  1.00  0.00     0.188 A 
HETATM   35  N   UNL     1       3.846  29.618  55.290  1.00  0.00    -0.235 NA
HETATM   36  C   UNL     1       3.585  30.907  54.993  1.00  0.00     0.121 A 
HETATM   37  C   UNL     1       4.291  31.965  55.516  1.00  0.00     0.038 A 
HETATM   38  C   UNL     1       5.303  31.631  56.384  1.00  0.00     0.121 A 
HETATM   39  N   UNL     1       5.596  30.360  56.728  1.00  0.00    -0.235 NA
ENDBRANCH  33  34
ENDBRANCH   5  33
TORSDOF 6
ENDMDL
MODEL 9
REMARK VINA RESULT:      -8.7      3.460      6.198
REMARK  6 active torsions:
REMARK  status: ('A' for Active; 'I' for Inactive)
REMARK    1  A    between atoms: C_4  and  C_5 
REMARK    2  A    between atoms: C_5  and  N_6 
REMARK    3  A    between atoms: C_8  and  C_9 
REMARK       I    between atoms: C_9  and  N_10 
REMARK    4  A    between atoms: N_13  and  C_15 
REMARK    5  A    between atoms: C_29  and  S_30 
REMARK    6  A    between atoms: S_30  and  C_31 
ROOT
HETATM    1  N   UNL     1       5.960  29.074  57.647  1.00  0.00    -0.053 N 
HETATM    2  H   UNL     1       5.306  28.582  58.270  1.00  0.00     0.281 HD
HETATM    3  C   UNL     1       5.321  28.966  56.236  1.00  0.00     0.281 C 
HETATM    4  C   UNL     1       5.581  30.356  55.667  1.00  0.00     0.060 C 
HETATM    5  C   UNL     1       5.274  31.285  56.837  1.00  0.00     0.083 C 
HETATM    6  C   UNL     1       5.902  30.561  58.031  1.00  0.00     0.252 C 
ENDROOT
BRANCH   3   7
HETATM    7  C   UNL     1       5.693  27.788  55.312  1.00  0.00     0.251 C 
HETATM    8  N   UNL     1       5.007  27.619  54.110  1.00  0.00    -0.347 N 
HETATM    9  C   UNL     1       5.468  26.587  53.174  1.00  0.00     0.153 C 
HETATM   10  C   UNL     1       3.657  28.097  53.801  1.00  0.00     0.153 C 
HETATM   11  C   UNL     1       5.484  27.116  51.731  1.00  0.00     0.255 C 
HETATM   12  N   UNL     1       4.134  27.728  51.309  1.00  0.00    -0.063 N 
HETATM   13  H   UNL     1       3.471  26.948  51.210  1.00  0.00     0.280 HD
HETATM   14  C   UNL     1       3.576  28.680  52.379  1.00  0.00     0.255 C 
HETATM   15  O   UNL     1       6.576  26.995  55.630  1.00  0.00    -0.271 OA
BRANCH  12  16
HETATM   16  C   UNL     1       4.246  28.442  49.934  1.00  0.00     0.196 C 
HETATM   17  C   UNL     1       4.471  27.442  48.768  1.00  0.00     0.017 C 
HETATM   18  C   UNL     1       3.235  26.548  48.559  1.00  0.00     0.011 C 
HETATM   19  C   UNL     1       4.721  28.251  47.478  1.00  0.00     0.011 C 
HETATM   20  C   UNL     1       2.005  27.413  48.241  1.00  0.00    -0.013 C 
HETATM   21  C   UNL     1       1.751  28.387  49.404  1.00  0.00     0.011 C 
HETATM   22  C   UNL     1       2.272  28.220  46.958  1.00  0.00     0.009 C 
HETATM   23  C   UNL     1       2.982  29.288  49.620  1.00  0.00     0.017 C 
HETATM   24  C   UNL     1       3.241  30.084  48.322  1.00  0.00     0.011 C 
HETATM   25  C   UNL     1       3.500  29.124  47.151  1.00  0.00    -0.013 C 
ENDBRANCH  12  16
ENDBRANCH   3   7
BRANCH   1  26
HETATM   26  C   UNL     1       7.297  28.415  57.968  1.00  0.00     0.274 C 
BRANCH  26  27
HETATM   27  C   UNL     1       8.560  29.211  57.739  1.00  0.00    -0.033 A 
HETATM   28  C   UNL     1       8.975  30.163  58.691  1.00  0.00     0.009 A 
HETATM   29  C   UNL     1      10.150  30.894  58.516  1.00  0.00     0.001 A 
HETATM   30  C   UNL     1      10.944  30.675  57.396  1.00  0.00     0.000 A 
HETATM   31  C   UNL     1      10.567  29.719  56.458  1.00  0.00     0.001 A 
HETATM   32  C   UNL     1       9.386  28.990  56.629  1.00  0.00     0.009 A 
ENDBRANCH  26  27
ENDBRANCH   1  26
BRANCH   5  33
HETATM   33  S   UNL     1       3.457  31.472  57.022  1.00  0.00    -0.084 SA
BRANCH  33  34
HETATM   34  C   UNL     1       3.115  32.518  55.623  1.00  0.00     0.188 A 
HETATM   35  N   UNL     1       3.312  33.840  55.763  1.00  0.00    -0.235 NA
HETATM   36  C   UNL     1       3.045  34.592  54.676  1.00  0.00     0.121 A 
HETATM   37  C   UNL     1       2.550  34.078  53.500  1.00  0.00     0.038 A 
HETATM   38  C   UNL     1       2.340  32.719  53.489  1.00  0.00     0.121 A 
HETATM   39  N   UNL     1       2.606  31.919  54.541  1.00  0.00    -0.235 NA
ENDBRANCH  33  34
ENDBRANCH   5  33
TORSDOF 6
ENDMDL
MODEL 10
REMARK VINA RESULT:      -8.7      4.099      7.701
REMARK  6 active torsions:
REMARK  status: ('A' for Active; 'I' for Inactive)
REMARK    1  A    between atoms: C_4  and  C_5 
REMARK    2  A    between atoms: C_5  and  N_6 
REMARK    3  A    between atoms: C_8  and  C_9 
REMARK       I    between atoms: C_9  and  N_10 
REMARK    4  A    between atoms: N_13  and  C_15 
REMARK    5  A    between atoms: C_29  and  S_30 
REMARK    6  A    between atoms: S_30  and  C_31 
ROOT
HETATM    1  N   UNL     1       5.872  32.031  59.860  1.00  0.00    -0.053 N 
HETATM    2  H   UNL     1       5.226  31.514  60.472  1.00  0.00     0.281 HD
HETATM    3  C   UNL     1       6.013  31.144  58.594  1.00  0.00     0.281 C 
HETATM    4  C   UNL     1       5.997  32.184  57.479  1.00  0.00     0.060 C 
HETATM    5  C   UNL     1       4.897  33.149  57.908  1.00  0.00     0.083 C 
HETATM    6  C   UNL     1       5.133  33.302  59.413  1.00  0.00     0.252 C 
ENDROOT
BRANCH   3   7
HETATM    7  C   UNL     1       7.144  30.097  58.511  1.00  0.00     0.251 C 
HETATM    8  N   UNL     1       6.971  28.965  57.717  1.00  0.00    -0.347 N 
HETATM    9  C   UNL     1       8.106  28.054  57.530  1.00  0.00     0.153 C 
HETATM   10  C   UNL     1       5.695  28.363  57.323  1.00  0.00     0.153 C 
HETATM   11  C   UNL     1       8.234  27.622  56.060  1.00  0.00     0.255 C 
HETATM   12  N   UNL     1       6.921  27.045  55.496  1.00  0.00    -0.063 N 
HETATM   13  H   UNL     1       6.782  26.129  55.943  1.00  0.00     0.280 HD
HETATM   14  C   UNL     1       5.709  27.924  55.847  1.00  0.00     0.255 C 
HETATM   15  O   UNL     1       8.186  30.247  59.147  1.00  0.00    -0.271 OA
BRANCH  12  16
HETATM   16  C   UNL     1       7.019  26.822  53.963  1.00  0.00     0.196 C 
HETATM   17  C   UNL     1       7.268  25.333  53.599  1.00  0.00     0.017 C 
HETATM   18  C   UNL     1       6.053  24.462  53.967  1.00  0.00     0.011 C 
HETATM   19  C   UNL     1       7.502  25.238  52.076  1.00  0.00     0.011 C 
HETATM   20  C   UNL     1       4.804  24.954  53.219  1.00  0.00    -0.013 C 
HETATM   21  C   UNL     1       4.527  26.419  53.595  1.00  0.00     0.011 C 
HETATM   22  C   UNL     1       5.054  24.862  51.703  1.00  0.00     0.009 C 
HETATM   23  C   UNL     1       5.736  27.299  53.227  1.00  0.00     0.017 C 
HETATM   24  C   UNL     1       5.979  27.190  51.707  1.00  0.00     0.011 C 
HETATM   25  C   UNL     1       6.261  25.731  51.315  1.00  0.00    -0.013 C 
ENDBRANCH  12  16
ENDBRANCH   3   7
BRANCH   1  26
HETATM   26  C   UNL     1       7.059  32.307  60.776  1.00  0.00     0.274 C 
BRANCH  26  27
HETATM   27  C   UNL     1       6.781  32.650  62.221  1.00  0.00    -0.033 A 
HETATM   28  C   UNL     1       7.850  32.818  63.123  1.00  0.00     0.009 A 
HETATM   29  C   UNL     1       7.622  33.159  64.457  1.00  0.00     0.001 A 
HETATM   30  C   UNL     1       6.323  33.359  64.911  1.00  0.00     0.000 A 
HETATM   31  C   UNL     1       5.255  33.227  64.029  1.00  0.00     0.001 A 
HETATM   32  C   UNL     1       5.482  32.878  62.693  1.00  0.00     0.009 A 
ENDBRANCH  26  27
ENDBRANCH   1  26
BRANCH   5  33
HETATM   33  S   UNL     1       3.253  32.422  57.538  1.00  0.00    -0.084 SA
BRANCH  33  34
HETATM   34  C   UNL     1       3.486  31.998  55.825  1.00  0.00     0.188 A 
HETATM   35  N   UNL     1       3.419  30.701  55.483  1.00  0.00    -0.235 NA
HETATM   36  C   UNL     1       3.595  30.428  54.174  1.00  0.00     0.121 A 
HETATM   37  C   UNL     1       3.881  31.388  53.231  1.00  0.00     0.038 A 
HETATM   38  C   UNL     1       3.975  32.674  53.704  1.00  0.00     0.121 A 
HETATM   39  N   UNL     1       3.791  33.004  54.998  1.00  0.00    -0.235 NA
ENDBRANCH  33  34
ENDBRANCH   5  33
TORSDOF 6
ENDMDL
