MODEL 1
REMARK VINA RESULT:      -9.5      0.000      0.000
REMARK  6 active torsions:
REMARK  status: ('A' for Active; 'I' for Inactive)
REMARK    1  A    between atoms: O_2  and  C_3 
REMARK    2  A    between atoms: C_6  and  C_7 
REMARK    3  A    between atoms: C_11  and  C_12 
REMARK       I    between atoms: C_12  and  N_13 
REMARK    4  A    between atoms: N_13  and  N_14 
REMARK       I    between atoms: N_14  and  C_15 
REMARK    5  A    between atoms: C_15  and  C_16 
REMARK    6  A    between atoms: C_17  and  C_18 
ROOT
HETATM    1  C   UNL     1       4.363  28.877  56.320  1.00  0.00     0.288 C 
HETATM    2  N   UNL     1       4.889  29.064  57.579  1.00  0.00    -0.262 N 
HETATM    3  O   UNL     1       3.531  29.645  55.838  1.00  0.00    -0.264 OA
HETATM    4  H   UNL     1       5.514  28.402  58.033  1.00  0.00     0.190 HD
ENDROOT
BRANCH   1   5
HETATM    5  C   UNL     1       4.852  27.724  55.615  1.00  0.00     0.121 A 
HETATM    6  N   UNL     1       4.484  27.455  54.327  1.00  0.00    -0.272 N 
HETATM    7  N   UNL     1       5.044  26.350  53.813  1.00  0.00    -0.174 NA
HETATM    8  H   UNL     1       3.854  28.001  53.746  1.00  0.00     0.189 HD
HETATM    9  C   UNL     1       5.794  25.853  54.810  1.00  0.00     0.089 A 
HETATM   10  C   UNL     1       5.704  26.693  55.957  1.00  0.00     0.071 A 
BRANCH   9  11
HETATM   11  C   UNL     1       6.576  24.624  54.652  1.00  0.00    -0.005 A 
HETATM   12  C   UNL     1       6.986  23.891  55.775  1.00  0.00     0.016 A 
HETATM   13  C   UNL     1       7.712  22.701  55.636  1.00  0.00     0.037 A 
HETATM   14  C   UNL     1       8.042  22.226  54.368  1.00  0.00     0.068 A 
HETATM   15  C   UNL     1       7.654  22.960  53.246  1.00  0.00     0.037 A 
HETATM   16  C   UNL     1       6.926  24.147  53.383  1.00  0.00     0.016 A 
BRANCH  14  17
HETATM   17  O   UNL     1       8.737  21.082  54.091  1.00  0.00    -0.356 OA
HETATM   18  C   UNL     1       8.390  20.397  52.893  1.00  0.00     0.210 C 
ENDBRANCH  14  17
ENDBRANCH   9  11
ENDBRANCH   1   5
BRANCH   2  19
HETATM   19  N   UNL     1       4.372  30.076  58.392  1.00  0.00    -0.267 N 
HETATM   20  C   UNL     1       4.965  31.318  58.339  1.00  0.00     0.240 C 
HETATM   21  O   UNL     1       5.912  31.564  57.597  1.00  0.00    -0.271 OA
HETATM   22  H   UNL     1       3.579  29.842  58.981  1.00  0.00     0.190 HD
BRANCH  20  23
HETATM   23  C   UNL     1       4.451  32.375  59.252  1.00  0.00     0.089 A 
HETATM   24  C   UNL     1       5.183  32.886  60.481  1.00  0.00     0.034 A 
HETATM   25  C   UNL     1       5.007  33.774  59.271  1.00  0.00     0.025 A 
BRANCH  24  26
HETATM   26  C   UNL     1       6.545  32.362  60.894  1.00  0.00    -0.031 A 
HETATM   27  C   UNL     1       6.749  31.634  62.084  1.00  0.00     0.040 A 
HETATM   28 CL   UNL     1       5.433  31.301  63.158  1.00  0.00    -0.084 Cl
HETATM   29  C   UNL     1       8.016  31.164  62.449  1.00  0.00     0.024 A 
HETATM   30  C   UNL     1       9.116  31.423  61.638  1.00  0.00     0.002 A 
HETATM   31  C   UNL     1       8.952  32.158  60.470  1.00  0.00     0.001 A 
HETATM   32  C   UNL     1       7.685  32.627  60.109  1.00  0.00     0.009 A 
ENDBRANCH  24  26
ENDBRANCH  20  23
ENDBRANCH   2  19
TORSDOF 6
ENDMDL
MODEL 2
REMARK VINA RESULT:      -9.5      3.781     10.118
REMARK  6 active torsions:
REMARK  status: ('A' for Active; 'I' for Inactive)
REMARK    1  A    between atoms: O_2  and  C_3 
REMARK    2  A    between atoms: C_6  and  C_7 
REMARK    3  A    between atoms: C_11  and  C_12 
REMARK       I    between atoms: C_12  and  N_13 
REMARK    4  A    between atoms: N_13  and  N_14 
REMARK       I    between atoms: N_14  and  C_15 
REMARK    5  A    between atoms: C_15  and  C_16 
REMARK    6  A    between atoms: C_17  and  C_18 
ROOT
HETATM    1  C   UNL     1       8.346  29.029  55.637  1.00  0.00     0.288 C 
HETATM    2  N   UNL     1       7.532  27.998  55.223  1.00  0.00    -0.262 N 
HETATM    3  O   UNL     1       9.367  29.342  55.027  1.00  0.00    -0.264 OA
HETATM    4  H   UNL     1       6.729  27.666  55.751  1.00  0.00     0.190 HD
ENDROOT
BRANCH   1   5
HETATM    5  C   UNL     1       7.919  29.708  56.830  1.00  0.00     0.121 A 
HETATM    6  N   UNL     1       6.651  30.194  56.970  1.00  0.00    -0.272 N 
HETATM    7  N   UNL     1       6.414  30.785  58.151  1.00  0.00    -0.174 NA
HETATM    8  H   UNL     1       5.899  30.144  56.288  1.00  0.00     0.189 HD
HETATM    9  C   UNL     1       7.581  30.709  58.810  1.00  0.00     0.089 A 
HETATM   10  C   UNL     1       8.550  30.032  58.015  1.00  0.00     0.071 A 
BRANCH   9  11
HETATM   11  C   UNL     1       7.746  31.255  60.160  1.00  0.00    -0.005 A 
HETATM   12  C   UNL     1       8.802  30.828  60.977  1.00  0.00     0.016 A 
HETATM   13  C   UNL     1       8.985  31.363  62.260  1.00  0.00     0.037 A 
HETATM   14  C   UNL     1       8.110  32.331  62.746  1.00  0.00     0.068 A 
HETATM   15  C   UNL     1       7.044  32.748  61.945  1.00  0.00     0.037 A 
HETATM   16  C   UNL     1       6.863  32.218  60.663  1.00  0.00     0.016 A 
BRANCH  14  17
HETATM   17  O   UNL     1       8.176  32.938  63.970  1.00  0.00    -0.356 OA
HETATM   18  C   UNL     1       6.952  33.417  64.513  1.00  0.00     0.210 C 
ENDBRANCH  14  17
ENDBRANCH   9  11
ENDBRANCH   1   5
BRANCH   2  19
HETATM   19  N   UNL     1       7.938  27.194  54.155  1.00  0.00    -0.267 N 
HETATM   20  C   UNL     1       7.120  26.153  53.777  1.00  0.00     0.240 C 
HETATM   21  O   UNL     1       6.049  25.923  54.333  1.00  0.00    -0.271 OA
HETATM   22  H   UNL     1       8.820  27.424  53.708  1.00  0.00     0.190 HD
BRANCH  20  23
HETATM   23  C   UNL     1       7.587  25.262  52.680  1.00  0.00     0.089 A 
HETATM   24  C   UNL     1       8.112  23.851  52.878  1.00  0.00     0.034 A 
HETATM   25  C   UNL     1       6.785  24.084  52.193  1.00  0.00     0.025 A 
BRANCH  24  26
HETATM   26  C   UNL     1       8.201  23.199  54.244  1.00  0.00    -0.031 A 
HETATM   27  C   UNL     1       7.999  21.817  54.441  1.00  0.00     0.040 A 
HETATM   28 CL   UNL     1       7.626  20.777  53.110  1.00  0.00    -0.084 Cl
HETATM   29  C   UNL     1       8.079  21.237  55.712  1.00  0.00     0.024 A 
HETATM   30  C   UNL     1       8.351  22.029  56.824  1.00  0.00     0.002 A 
HETATM   31  C   UNL     1       8.531  23.398  56.666  1.00  0.00     0.001 A 
HETATM   32  C   UNL     1       8.448  23.974  55.395  1.00  0.00     0.009 A 
ENDBRANCH  24  26
ENDBRANCH  20  23
ENDBRANCH   2  19
TORSDOF 6
ENDMDL
MODEL 3
REMARK VINA RESULT:      -9.4      3.898     10.522
REMARK  6 active torsions:
REMARK  status: ('A' for Active; 'I' for Inactive)
REMARK    1  A    between atoms: O_2  and  C_3 
REMARK    2  A    between atoms: C_6  and  C_7 
REMARK    3  A    between atoms: C_11  and  C_12 
REMARK       I    between atoms: C_12  and  N_13 
REMARK    4  A    between atoms: N_13  and  N_14 
REMARK       I    between atoms: N_14  and  C_15 
REMARK    5  A    between atoms: C_15  and  C_16 
REMARK    6  A    between atoms: C_17  and  C_18 
ROOT
HETATM    1  C   UNL     1       7.239  31.592  59.241  1.00  0.00     0.288 C 
HETATM    2  N   UNL     1       6.072  31.196  58.625  1.00  0.00    -0.262 N 
HETATM    3  O   UNL     1       8.280  31.777  58.612  1.00  0.00    -0.264 OA
HETATM    4  H   UNL     1       5.222  30.958  59.129  1.00  0.00     0.190 HD
ENDROOT
BRANCH   1   5
HETATM    5  C   UNL     1       7.153  31.770  60.665  1.00  0.00     0.121 A 
HETATM    6  N   UNL     1       7.752  30.908  61.538  1.00  0.00    -0.272 N 
HETATM    7  N   UNL     1       7.588  31.228  62.830  1.00  0.00    -0.174 NA
HETATM    8  H   UNL     1       8.297  30.083  61.304  1.00  0.00     0.189 HD
HETATM    9  C   UNL     1       6.825  32.334  62.812  1.00  0.00     0.089 A 
HETATM   10  C   UNL     1       6.536  32.708  61.469  1.00  0.00     0.071 A 
BRANCH   9  11
HETATM   11  C   UNL     1       6.407  33.006  64.045  1.00  0.00    -0.005 A 
HETATM   12  C   UNL     1       5.046  33.193  64.328  1.00  0.00     0.016 A 
HETATM   13  C   UNL     1       4.634  33.811  65.516  1.00  0.00     0.037 A 
HETATM   14  C   UNL     1       5.578  34.256  66.439  1.00  0.00     0.068 A 
HETATM   15  C   UNL     1       6.935  34.090  66.155  1.00  0.00     0.037 A 
HETATM   16  C   UNL     1       7.349  33.470  64.971  1.00  0.00     0.016 A 
BRANCH  14  17
HETATM   17  O   UNL     1       5.314  34.866  67.634  1.00  0.00    -0.356 OA
HETATM   18  C   UNL     1       5.767  34.200  68.806  1.00  0.00     0.210 C 
ENDBRANCH  14  17
ENDBRANCH   9  11
ENDBRANCH   1   5
BRANCH   2  19
HETATM   19  N   UNL     1       6.094  30.866  57.268  1.00  0.00    -0.267 N 
HETATM   20  C   UNL     1       5.019  30.180  56.748  1.00  0.00     0.240 C 
HETATM   21  O   UNL     1       4.046  29.868  57.430  1.00  0.00    -0.271 OA
HETATM   22  H   UNL     1       6.907  31.154  56.732  1.00  0.00     0.190 HD
BRANCH  20  23
HETATM   23  C   UNL     1       5.076  29.777  55.317  1.00  0.00     0.089 A 
HETATM   24  C   UNL     1       5.699  28.489  54.806  1.00  0.00     0.034 A 
HETATM   25  C   UNL     1       4.202  28.693  54.743  1.00  0.00     0.025 A 
BRANCH  24  26
HETATM   26  C   UNL     1       6.325  27.465  55.733  1.00  0.00    -0.031 A 
HETATM   27  C   UNL     1       7.638  27.594  56.231  1.00  0.00     0.040 A 
HETATM   28 CL   UNL     1       8.622  28.949  55.797  1.00  0.00    -0.084 Cl
HETATM   29  C   UNL     1       8.199  26.633  57.080  1.00  0.00     0.024 A 
HETATM   30  C   UNL     1       7.464  25.509  57.444  1.00  0.00     0.002 A 
HETATM   31  C   UNL     1       6.175  25.340  56.950  1.00  0.00     0.001 A 
HETATM   32  C   UNL     1       5.619  26.301  56.100  1.00  0.00     0.009 A 
ENDBRANCH  24  26
ENDBRANCH  20  23
ENDBRANCH   2  19
TORSDOF 6
ENDMDL
MODEL 4
REMARK VINA RESULT:      -9.3      3.770      9.824
REMARK  6 active torsions:
REMARK  status: ('A' for Active; 'I' for Inactive)
REMARK    1  A    between atoms: O_2  and  C_3 
REMARK    2  A    between atoms: C_6  and  C_7 
REMARK    3  A    between atoms: C_11  and  C_12 
REMARK       I    between atoms: C_12  and  N_13 
REMARK    4  A    between atoms: N_13  and  N_14 
REMARK       I    between atoms: N_14  and  C_15 
REMARK    5  A    between atoms: C_15  and  C_16 
REMARK    6  A    between atoms: C_17  and  C_18 
ROOT
HETATM    1  C   UNL     1       8.226  28.702  56.634  1.00  0.00     0.288 C 
HETATM    2  N   UNL     1       7.860  29.320  55.458  1.00  0.00    -0.262 N 
HETATM    3  O   UNL     1       8.374  27.484  56.714  1.00  0.00    -0.264 OA
HETATM    4  H   UNL     1       7.652  30.312  55.383  1.00  0.00     0.190 HD
ENDROOT
BRANCH   1   5
HETATM    5  C   UNL     1       8.417  29.581  57.755  1.00  0.00     0.121 A 
HETATM    6  N   UNL     1       9.645  30.085  58.076  1.00  0.00    -0.272 N 
HETATM    7  N   UNL     1       9.644  30.901  59.141  1.00  0.00    -0.174 NA
HETATM    8  H   UNL     1      10.522  29.909  57.594  1.00  0.00     0.189 HD
HETATM    9  C   UNL     1       8.368  30.917  59.557  1.00  0.00     0.089 A 
HETATM   10  C   UNL     1       7.565  30.104  58.707  1.00  0.00     0.071 A 
BRANCH   9  11
HETATM   11  C   UNL     1       7.942  31.700  60.721  1.00  0.00    -0.005 A 
HETATM   12  C   UNL     1       8.641  31.611  61.933  1.00  0.00     0.016 A 
HETATM   13  C   UNL     1       8.260  32.375  63.045  1.00  0.00     0.037 A 
HETATM   14  C   UNL     1       7.170  33.238  62.961  1.00  0.00     0.068 A 
HETATM   15  C   UNL     1       6.457  33.318  61.763  1.00  0.00     0.037 A 
HETATM   16  C   UNL     1       6.839  32.559  60.651  1.00  0.00     0.016 A 
BRANCH  14  17
HETATM   17  O   UNL     1       6.697  34.040  63.962  1.00  0.00    -0.356 OA
HETATM   18  C   UNL     1       7.095  33.712  65.287  1.00  0.00     0.210 C 
ENDBRANCH  14  17
ENDBRANCH   9  11
ENDBRANCH   1   5
BRANCH   2  19
HETATM   19  N   UNL     1       7.519  28.536  54.353  1.00  0.00    -0.267 N 
HETATM   20  C   UNL     1       6.183  28.344  54.080  1.00  0.00     0.240 C 
HETATM   21  O   UNL     1       5.293  28.846  54.762  1.00  0.00    -0.271 OA
HETATM   22  H   UNL     1       8.280  28.150  53.802  1.00  0.00     0.190 HD
BRANCH  20  23
HETATM   23  C   UNL     1       5.825  27.458  52.939  1.00  0.00     0.089 A 
HETATM   24  C   UNL     1       5.939  25.943  52.952  1.00  0.00     0.034 A 
HETATM   25  C   UNL     1       4.582  26.608  52.928  1.00  0.00     0.025 A 
BRANCH  24  26
HETATM   26  C   UNL     1       6.429  25.175  54.164  1.00  0.00    -0.031 A 
HETATM   27  C   UNL     1       7.444  24.198  54.084  1.00  0.00     0.040 A 
HETATM   28 CL   UNL     1       8.189  23.814  52.570  1.00  0.00    -0.084 Cl
HETATM   29  C   UNL     1       7.877  23.495  55.214  1.00  0.00     0.024 A 
HETATM   30  C   UNL     1       7.297  23.743  56.454  1.00  0.00     0.002 A 
HETATM   31  C   UNL     1       6.278  24.683  56.562  1.00  0.00     0.001 A 
HETATM   32  C   UNL     1       5.847  25.381  55.430  1.00  0.00     0.009 A 
ENDBRANCH  24  26
ENDBRANCH  20  23
ENDBRANCH   2  19
TORSDOF 6
ENDMDL
MODEL 5
REMARK VINA RESULT:      -9.2      4.733     11.283
REMARK  6 active torsions:
REMARK  status: ('A' for Active; 'I' for Inactive)
REMARK    1  A    between atoms: O_2  and  C_3 
REMARK    2  A    between atoms: C_6  and  C_7 
REMARK    3  A    between atoms: C_11  and  C_12 
REMARK       I    between atoms: C_12  and  N_13 
REMARK    4  A    between atoms: N_13  and  N_14 
REMARK       I    between atoms: N_14  and  C_15 
REMARK    5  A    between atoms: C_15  and  C_16 
REMARK    6  A    between atoms: C_17  and  C_18 
ROOT
HETATM    1  C   UNL     1       8.102  32.012  60.782  1.00  0.00     0.288 C 
HETATM    2  N   UNL     1       7.866  30.700  60.435  1.00  0.00    -0.262 N 
HETATM    3  O   UNL     1       8.963  32.691  60.224  1.00  0.00    -0.264 OA
HETATM    4  H   UNL     1       7.219  30.093  60.933  1.00  0.00     0.190 HD
ENDROOT
BRANCH   1   5
HETATM    5  C   UNL     1       7.275  32.527  61.838  1.00  0.00     0.121 A 
HETATM    6  N   UNL     1       5.995  32.948  61.615  1.00  0.00    -0.272 N 
HETATM    7  N   UNL     1       5.358  33.383  62.712  1.00  0.00    -0.174 NA
HETATM    8  H   UNL     1       5.501  32.953  60.727  1.00  0.00     0.189 HD
HETATM    9  C   UNL     1       6.262  33.270  63.698  1.00  0.00     0.089 A 
HETATM   10  C   UNL     1       7.478  32.729  63.189  1.00  0.00     0.071 A 
BRANCH   9  11
HETATM   11  C   UNL     1       5.955  33.656  65.078  1.00  0.00    -0.005 A 
HETATM   12  C   UNL     1       4.625  33.781  65.503  1.00  0.00     0.016 A 
HETATM   13  C   UNL     1       4.319  34.123  66.827  1.00  0.00     0.037 A 
HETATM   14  C   UNL     1       5.341  34.349  67.746  1.00  0.00     0.068 A 
HETATM   15  C   UNL     1       6.668  34.245  67.326  1.00  0.00     0.037 A 
HETATM   16  C   UNL     1       6.976  33.900  66.006  1.00  0.00     0.016 A 
BRANCH  14  17
HETATM   17  O   UNL     1       5.183  34.682  69.064  1.00  0.00    -0.356 OA
HETATM   18  C   UNL     1       6.367  34.770  69.848  1.00  0.00     0.210 C 
ENDBRANCH  14  17
ENDBRANCH   9  11
ENDBRANCH   1   5
BRANCH   2  19
HETATM   19  N   UNL     1       8.711  30.073  59.516  1.00  0.00    -0.267 N 
HETATM   20  C   UNL     1       8.309  30.010  58.201  1.00  0.00     0.240 C 
HETATM   21  O   UNL     1       7.251  30.495  57.813  1.00  0.00    -0.271 OA
HETATM   22  H   UNL     1       9.587  29.698  59.870  1.00  0.00     0.190 HD
BRANCH  20  23
HETATM   23  C   UNL     1       9.185  29.287  57.239  1.00  0.00     0.089 A 
HETATM   24  C   UNL     1       8.795  28.017  56.502  1.00  0.00     0.034 A 
HETATM   25  C   UNL     1       8.957  29.318  55.750  1.00  0.00     0.025 A 
BRANCH  24  26
HETATM   26  C   UNL     1       7.440  27.359  56.674  1.00  0.00    -0.031 A 
HETATM   27  C   UNL     1       7.288  26.060  57.201  1.00  0.00     0.040 A 
HETATM   28 CL   UNL     1       8.666  25.129  57.679  1.00  0.00    -0.084 Cl
HETATM   29  C   UNL     1       6.027  25.469  57.345  1.00  0.00     0.024 A 
HETATM   30  C   UNL     1       4.884  26.160  56.955  1.00  0.00     0.002 A 
HETATM   31  C   UNL     1       5.002  27.434  56.411  1.00  0.00     0.001 A 
HETATM   32  C   UNL     1       6.264  28.019  56.265  1.00  0.00     0.009 A 
ENDBRANCH  24  26
ENDBRANCH  20  23
ENDBRANCH   2  19
TORSDOF 6
ENDMDL
MODEL 6
REMARK VINA RESULT:      -9.1      2.906      4.519
REMARK  6 active torsions:
REMARK  status: ('A' for Active; 'I' for Inactive)
REMARK    1  A    between atoms: O_2  and  C_3 
REMARK    2  A    between atoms: C_6  and  C_7 
REMARK    3  A    between atoms: C_11  and  C_12 
REMARK       I    between atoms: C_12  and  N_13 
REMARK    4  A    between atoms: N_13  and  N_14 
REMARK       I    between atoms: N_14  and  C_15 
REMARK    5  A    between atoms: C_15  and  C_16 
REMARK    6  A    between atoms: C_17  and  C_18 
ROOT
HETATM    1  C   UNL     1       8.103  30.960  59.344  1.00  0.00     0.288 C 
HETATM    2  N   UNL     1       7.940  30.769  60.698  1.00  0.00    -0.262 N 
HETATM    3  O   UNL     1       8.605  31.985  58.884  1.00  0.00    -0.264 OA
HETATM    4  H   UNL     1       7.455  29.970  61.100  1.00  0.00     0.190 HD
ENDROOT
BRANCH   1   5
HETATM    5  C   UNL     1       7.644  29.882  58.511  1.00  0.00     0.121 A 
HETATM    6  N   UNL     1       6.341  29.779  58.115  1.00  0.00    -0.272 N 
HETATM    7  N   UNL     1       6.086  28.724  57.328  1.00  0.00    -0.174 NA
HETATM    8  H   UNL     1       5.581  30.412  58.348  1.00  0.00     0.189 HD
HETATM    9  C   UNL     1       7.263  28.087  57.220  1.00  0.00     0.089 A 
HETATM   10  C   UNL     1       8.268  28.788  57.945  1.00  0.00     0.071 A 
BRANCH   9  11
HETATM   11  C   UNL     1       7.409  26.858  56.435  1.00  0.00    -0.005 A 
HETATM   12  C   UNL     1       7.114  26.850  55.064  1.00  0.00     0.016 A 
HETATM   13  C   UNL     1       7.275  25.688  54.297  1.00  0.00     0.037 A 
HETATM   14  C   UNL     1       7.733  24.514  54.892  1.00  0.00     0.068 A 
HETATM   15  C   UNL     1       8.011  24.510  56.260  1.00  0.00     0.037 A 
HETATM   16  C   UNL     1       7.854  25.670  57.026  1.00  0.00     0.016 A 
BRANCH  14  17
HETATM   17  O   UNL     1       7.940  23.318  54.262  1.00  0.00    -0.356 OA
HETATM   18  C   UNL     1       8.013  23.347  52.842  1.00  0.00     0.210 C 
ENDBRANCH  14  17
ENDBRANCH   9  11
ENDBRANCH   1   5
BRANCH   2  19
HETATM   19  N   UNL     1       8.228  31.817  61.576  1.00  0.00    -0.267 N 
HETATM   20  C   UNL     1       7.510  31.900  62.747  1.00  0.00     0.240 C 
HETATM   21  O   UNL     1       6.644  31.083  63.048  1.00  0.00    -0.271 OA
HETATM   22  H   UNL     1       8.962  32.464  61.303  1.00  0.00     0.190 HD
BRANCH  20  23
HETATM   23  C   UNL     1       7.779  33.053  63.649  1.00  0.00     0.089 A 
HETATM   24  C   UNL     1       6.813  34.199  63.898  1.00  0.00     0.034 A 
HETATM   25  C   UNL     1       7.119  33.204  64.994  1.00  0.00     0.025 A 
BRANCH  24  26
HETATM   26  C   UNL     1       5.446  34.268  63.244  1.00  0.00    -0.031 A 
HETATM   27  C   UNL     1       4.247  34.127  63.973  1.00  0.00     0.040 A 
HETATM   28 CL   UNL     1       4.274  33.856  65.682  1.00  0.00    -0.084 Cl
HETATM   29  C   UNL     1       2.997  34.188  63.348  1.00  0.00     0.024 A 
HETATM   30  C   UNL     1       2.913  34.379  61.972  1.00  0.00     0.002 A 
HETATM   31  C   UNL     1       4.077  34.498  61.222  1.00  0.00     0.001 A 
HETATM   32  C   UNL     1       5.325  34.434  61.850  1.00  0.00     0.009 A 
ENDBRANCH  24  26
ENDBRANCH  20  23
ENDBRANCH   2  19
TORSDOF 6
ENDMDL
MODEL 7
REMARK VINA RESULT:      -9.1      6.905      9.855
REMARK  6 active torsions:
REMARK  status: ('A' for Active; 'I' for Inactive)
REMARK    1  A    between atoms: O_2  and  C_3 
REMARK    2  A    between atoms: C_6  and  C_7 
REMARK    3  A    between atoms: C_11  and  C_12 
REMARK       I    between atoms: C_12  and  N_13 
REMARK    4  A    between atoms: N_13  and  N_14 
REMARK       I    between atoms: N_14  and  C_15 
REMARK    5  A    between atoms: C_15  and  C_16 
REMARK    6  A    between atoms: C_17  and  C_18 
ROOT
HETATM    1  C   UNL     1       4.991  27.542  50.672  1.00  0.00     0.288 C 
HETATM    2  N   UNL     1       5.441  26.267  50.414  1.00  0.00    -0.262 N 
HETATM    3  O   UNL     1       5.597  28.312  51.416  1.00  0.00    -0.264 OA
HETATM    4  H   UNL     1       4.919  25.584  49.870  1.00  0.00     0.190 HD
ENDROOT
BRANCH   1   5
HETATM    5  C   UNL     1       3.767  27.907  50.014  1.00  0.00     0.121 A 
HETATM    6  N   UNL     1       2.765  28.567  50.666  1.00  0.00    -0.272 N 
HETATM    7  N   UNL     1       1.698  28.845  49.901  1.00  0.00    -0.174 NA
HETATM    8  H   UNL     1       2.759  28.860  51.639  1.00  0.00     0.189 HD
HETATM    9  C   UNL     1       1.997  28.325  48.700  1.00  0.00     0.089 A 
HETATM   10  C   UNL     1       3.291  27.732  48.729  1.00  0.00     0.071 A 
BRANCH   9  11
HETATM   11  C   UNL     1       1.071  28.412  47.566  1.00  0.00    -0.005 A 
HETATM   12  C   UNL     1       0.755  27.272  46.815  1.00  0.00     0.016 A 
HETATM   13  C   UNL     1      -0.149  27.337  45.746  1.00  0.00     0.037 A 
HETATM   14  C   UNL     1      -0.748  28.549  45.410  1.00  0.00     0.068 A 
HETATM   15  C   UNL     1      -0.424  29.694  46.141  1.00  0.00     0.037 A 
HETATM   16  C   UNL     1       0.475  29.629  47.211  1.00  0.00     0.016 A 
BRANCH  14  17
HETATM   17  O   UNL     1      -1.648  28.752  44.400  1.00  0.00    -0.356 OA
HETATM   18  C   UNL     1      -1.321  28.198  43.132  1.00  0.00     0.210 C 
ENDBRANCH  14  17
ENDBRANCH   9  11
ENDBRANCH   1   5
BRANCH   2  19
HETATM   19  N   UNL     1       6.546  25.777  51.116  1.00  0.00    -0.267 N 
HETATM   20  C   UNL     1       6.323  24.877  52.133  1.00  0.00     0.240 C 
HETATM   21  O   UNL     1       5.198  24.484  52.429  1.00  0.00    -0.271 OA
HETATM   22  H   UNL     1       7.462  26.111  50.833  1.00  0.00     0.190 HD
BRANCH  20  23
HETATM   23  C   UNL     1       7.497  24.406  52.917  1.00  0.00     0.089 A 
HETATM   24  C   UNL     1       7.767  24.764  54.368  1.00  0.00     0.034 A 
HETATM   25  C   UNL     1       7.391  23.351  53.987  1.00  0.00     0.025 A 
BRANCH  24  26
HETATM   26  C   UNL     1       6.835  25.647  55.176  1.00  0.00    -0.031 A 
HETATM   27  C   UNL     1       6.813  27.051  55.042  1.00  0.00     0.040 A 
HETATM   28 CL   UNL     1       7.873  27.853  53.935  1.00  0.00    -0.084 Cl
HETATM   29  C   UNL     1       5.949  27.847  55.802  1.00  0.00     0.024 A 
HETATM   30  C   UNL     1       5.091  27.260  56.727  1.00  0.00     0.002 A 
HETATM   31  C   UNL     1       5.105  25.880  56.899  1.00  0.00     0.001 A 
HETATM   32  C   UNL     1       5.972  25.088  56.140  1.00  0.00     0.009 A 
ENDBRANCH  24  26
ENDBRANCH  20  23
ENDBRANCH   2  19
TORSDOF 6
ENDMDL
MODEL 8
REMARK VINA RESULT:      -8.7      6.003      9.482
REMARK  6 active torsions:
REMARK  status: ('A' for Active; 'I' for Inactive)
REMARK    1  A    between atoms: O_2  and  C_3 
REMARK    2  A    between atoms: C_6  and  C_7 
REMARK    3  A    between atoms: C_11  and  C_12 
REMARK       I    between atoms: C_12  and  N_13 
REMARK    4  A    between atoms: N_13  and  N_14 
REMARK       I    between atoms: N_14  and  C_15 
REMARK    5  A    between atoms: C_15  and  C_16 
REMARK    6  A    between atoms: C_17  and  C_18 
ROOT
HETATM    1  C   UNL     1       6.440  26.335  52.345  1.00  0.00     0.288 C 
HETATM    2  N   UNL     1       6.147  26.597  53.665  1.00  0.00    -0.262 N 
HETATM    3  O   UNL     1       7.399  25.640  52.014  1.00  0.00    -0.264 OA
HETATM    4  H   UNL     1       5.411  27.234  53.964  1.00  0.00     0.190 HD
ENDROOT
BRANCH   1   5
HETATM    5  C   UNL     1       5.550  26.932  51.388  1.00  0.00     0.121 A 
HETATM    6  N   UNL     1       5.520  28.280  51.171  1.00  0.00    -0.272 N 
HETATM    7  N   UNL     1       4.645  28.669  50.233  1.00  0.00    -0.174 NA
HETATM    8  H   UNL     1       6.086  28.985  51.636  1.00  0.00     0.189 HD
HETATM    9  C   UNL     1       4.052  27.534  49.829  1.00  0.00     0.089 A 
HETATM   10  C   UNL     1       4.599  26.420  50.528  1.00  0.00     0.071 A 
BRANCH   9  11
HETATM   11  C   UNL     1       3.010  27.528  48.799  1.00  0.00    -0.005 A 
HETATM   12  C   UNL     1       2.115  28.601  48.685  1.00  0.00     0.016 A 
HETATM   13  C   UNL     1       1.131  28.620  47.687  1.00  0.00     0.037 A 
HETATM   14  C   UNL     1       1.026  27.560  46.789  1.00  0.00     0.068 A 
HETATM   15  C   UNL     1       1.901  26.479  46.907  1.00  0.00     0.037 A 
HETATM   16  C   UNL     1       2.886  26.461  47.900  1.00  0.00     0.016 A 
BRANCH  14  17
HETATM   17  O   UNL     1       0.121  27.454  45.769  1.00  0.00    -0.356 OA
HETATM   18  C   UNL     1      -0.999  28.330  45.814  1.00  0.00     0.210 C 
ENDBRANCH  14  17
ENDBRANCH   9  11
ENDBRANCH   1   5
BRANCH   2  19
HETATM   19  N   UNL     1       7.033  26.175  54.659  1.00  0.00    -0.267 N 
HETATM   20  C   UNL     1       6.540  25.398  55.683  1.00  0.00     0.240 C 
HETATM   21  O   UNL     1       5.362  25.055  55.740  1.00  0.00    -0.271 OA
HETATM   22  H   UNL     1       8.003  26.464  54.571  1.00  0.00     0.190 HD
BRANCH  20  23
HETATM   23  C   UNL     1       7.475  25.003  56.771  1.00  0.00     0.089 A 
HETATM   24  C   UNL     1       8.331  23.748  56.762  1.00  0.00     0.034 A 
HETATM   25  C   UNL     1       8.971  25.112  56.636  1.00  0.00     0.025 A 
BRANCH  24  26
HETATM   26  C   UNL     1       8.319  22.764  55.609  1.00  0.00    -0.031 A 
HETATM   27  C   UNL     1       8.312  21.367  55.803  1.00  0.00     0.040 A 
HETATM   28 CL   UNL     1       8.324  20.692  57.396  1.00  0.00    -0.084 Cl
HETATM   29  C   UNL     1       8.308  20.475  54.724  1.00  0.00     0.024 A 
HETATM   30  C   UNL     1       8.323  20.959  53.419  1.00  0.00     0.002 A 
HETATM   31  C   UNL     1       8.354  22.331  53.195  1.00  0.00     0.001 A 
HETATM   32  C   UNL     1       8.360  23.218  54.275  1.00  0.00     0.009 A 
ENDBRANCH  24  26
ENDBRANCH  20  23
ENDBRANCH   2  19
TORSDOF 6
ENDMDL
MODEL 9
REMARK VINA RESULT:      -8.7      6.004      9.614
REMARK  6 active torsions:
REMARK  status: ('A' for Active; 'I' for Inactive)
REMARK    1  A    between atoms: O_2  and  C_3 
REMARK    2  A    between atoms: C_6  and  C_7 
REMARK    3  A    between atoms: C_11  and  C_12 
REMARK       I    between atoms: C_12  and  N_13 
REMARK    4  A    between atoms: N_13  and  N_14 
REMARK       I    between atoms: N_14  and  C_15 
REMARK    5  A    between atoms: C_15  and  C_16 
REMARK    6  A    between atoms: C_17  and  C_18 
ROOT
HETATM    1  C   UNL     1       5.104  25.650  52.571  1.00  0.00     0.288 C 
HETATM    2  N   UNL     1       5.108  26.270  53.801  1.00  0.00    -0.262 N 
HETATM    3  O   UNL     1       5.247  24.434  52.451  1.00  0.00    -0.264 OA
HETATM    4  H   UNL     1       5.073  27.279  53.924  1.00  0.00     0.190 HD
ENDROOT
BRANCH   1   5
HETATM    5  C   UNL     1       4.922  26.523  51.444  1.00  0.00     0.121 A 
HETATM    6  N   UNL     1       4.367  26.087  50.275  1.00  0.00    -0.272 N 
HETATM    7  N   UNL     1       4.256  27.033  49.331  1.00  0.00    -0.174 NA
HETATM    8  H   UNL     1       4.037  25.148  50.069  1.00  0.00     0.189 HD
HETATM    9  C   UNL     1       4.784  28.135  49.889  1.00  0.00     0.089 A 
HETATM   10  C   UNL     1       5.208  27.855  51.219  1.00  0.00     0.071 A 
BRANCH   9  11
HETATM   11  C   UNL     1       4.859  29.408  49.167  1.00  0.00    -0.005 A 
HETATM   12  C   UNL     1       5.326  30.564  49.810  1.00  0.00     0.016 A 
HETATM   13  C   UNL     1       5.428  31.781  49.123  1.00  0.00     0.037 A 
HETATM   14  C   UNL     1       5.060  31.861  47.782  1.00  0.00     0.068 A 
HETATM   15  C   UNL     1       4.576  30.720  47.141  1.00  0.00     0.037 A 
HETATM   16  C   UNL     1       4.477  29.503  47.824  1.00  0.00     0.016 A 
BRANCH  14  17
HETATM   17  O   UNL     1       5.115  32.979  46.995  1.00  0.00    -0.356 OA
HETATM   18  C   UNL     1       6.231  33.840  47.184  1.00  0.00     0.210 C 
ENDBRANCH  14  17
ENDBRANCH   9  11
ENDBRANCH   1   5
BRANCH   2  19
HETATM   19  N   UNL     1       5.414  25.523  54.941  1.00  0.00    -0.267 N 
HETATM   20  C   UNL     1       6.659  25.684  55.508  1.00  0.00     0.240 C 
HETATM   21  O   UNL     1       7.491  26.466  55.057  1.00  0.00    -0.271 OA
HETATM   22  H   UNL     1       4.696  24.900  55.297  1.00  0.00     0.190 HD
BRANCH  20  23
HETATM   23  C   UNL     1       7.002  24.841  56.686  1.00  0.00     0.089 A 
HETATM   24  C   UNL     1       7.534  23.420  56.606  1.00  0.00     0.034 A 
HETATM   25  C   UNL     1       8.423  24.544  57.086  1.00  0.00     0.025 A 
BRANCH  24  26
HETATM   26  C   UNL     1       7.781  22.717  55.285  1.00  0.00    -0.031 A 
HETATM   27  C   UNL     1       7.754  21.313  55.155  1.00  0.00     0.040 A 
HETATM   28 CL   UNL     1       7.439  20.302  56.523  1.00  0.00    -0.084 Cl
HETATM   29  C   UNL     1       7.992  20.684  53.928  1.00  0.00     0.024 A 
HETATM   30  C   UNL     1       8.275  21.445  52.798  1.00  0.00     0.002 A 
HETATM   31  C   UNL     1       8.333  22.830  52.897  1.00  0.00     0.001 A 
HETATM   32  C   UNL     1       8.097  23.455  54.126  1.00  0.00     0.009 A 
ENDBRANCH  24  26
ENDBRANCH  20  23
ENDBRANCH   2  19
TORSDOF 6
ENDMDL
MODEL 10
REMARK VINA RESULT:      -8.6      7.210     10.135
REMARK  6 active torsions:
REMARK  status: ('A' for Active; 'I' for Inactive)
REMARK    1  A    between atoms: O_2  and  C_3 
REMARK    2  A    between atoms: C_6  and  C_7 
REMARK    3  A    between atoms: C_11  and  C_12 
REMARK       I    between atoms: C_12  and  N_13 
REMARK    4  A    between atoms: N_13  and  N_14 
REMARK       I    between atoms: N_14  and  C_15 
REMARK    5  A    between atoms: C_15  and  C_16 
REMARK    6  A    between atoms: C_17  and  C_18 
ROOT
HETATM    1  C   UNL     1       4.689  27.153  50.313  1.00  0.00     0.288 C 
HETATM    2  N   UNL     1       4.635  28.193  51.214  1.00  0.00    -0.262 N 
HETATM    3  O   UNL     1       5.541  26.268  50.384  1.00  0.00    -0.264 OA
HETATM    4  H   UNL     1       3.995  28.979  51.131  1.00  0.00     0.190 HD
ENDROOT
BRANCH   1   5
HETATM    5  C   UNL     1       3.683  27.176  49.286  1.00  0.00     0.121 A 
HETATM    6  N   UNL     1       3.259  26.038  48.663  1.00  0.00    -0.272 N 
HETATM    7  N   UNL     1       2.304  26.235  47.742  1.00  0.00    -0.174 NA
HETATM    8  H   UNL     1       3.586  25.091  48.835  1.00  0.00     0.189 HD
HETATM    9  C   UNL     1       2.106  27.563  47.737  1.00  0.00     0.089 A 
HETATM   10  C   UNL     1       2.950  28.189  48.699  1.00  0.00     0.071 A 
BRANCH   9  11
HETATM   11  C   UNL     1       1.129  28.197  46.848  1.00  0.00    -0.005 A 
HETATM   12  C   UNL     1       1.095  29.591  46.705  1.00  0.00     0.016 A 
HETATM   13  C   UNL     1       0.183  30.207  45.838  1.00  0.00     0.037 A 
HETATM   14  C   UNL     1      -0.714  29.436  45.102  1.00  0.00     0.068 A 
HETATM   15  C   UNL     1      -0.699  28.048  45.253  1.00  0.00     0.037 A 
HETATM   16  C   UNL     1       0.214  27.431  46.115  1.00  0.00     0.016 A 
BRANCH  14  17
HETATM   17  O   UNL     1      -1.647  29.905  44.219  1.00  0.00    -0.356 OA
HETATM   18  C   UNL     1      -1.230  30.939  43.336  1.00  0.00     0.210 C 
ENDBRANCH  14  17
ENDBRANCH   9  11
ENDBRANCH   1   5
BRANCH   2  19
HETATM   19  N   UNL     1       5.653  28.329  52.161  1.00  0.00    -0.267 N 
HETATM   20  C   UNL     1       5.407  27.899  53.446  1.00  0.00     0.240 C 
HETATM   21  O   UNL     1       4.339  27.391  53.776  1.00  0.00    -0.271 OA
HETATM   22  H   UNL     1       6.529  28.737  51.848  1.00  0.00     0.190 HD
BRANCH  20  23
HETATM   23  C   UNL     1       6.472  28.103  54.465  1.00  0.00     0.089 A 
HETATM   24  C   UNL     1       7.478  27.046  54.887  1.00  0.00     0.034 A 
HETATM   25  C   UNL     1       7.926  28.258  54.102  1.00  0.00     0.025 A 
BRANCH  24  26
HETATM   26  C   UNL     1       7.497  25.654  54.285  1.00  0.00    -0.031 A 
HETATM   27  C   UNL     1       7.201  24.498  55.035  1.00  0.00     0.040 A 
HETATM   28 CL   UNL     1       6.800  24.609  56.715  1.00  0.00    -0.084 Cl
HETATM   29  C   UNL     1       7.230  23.222  54.461  1.00  0.00     0.024 A 
HETATM   30  C   UNL     1       7.571  23.068  53.121  1.00  0.00     0.002 A 
HETATM   31  C   UNL     1       7.891  24.186  52.359  1.00  0.00     0.001 A 
HETATM   32  C   UNL     1       7.863  25.459  52.938  1.00  0.00     0.009 A 
ENDBRANCH  24  26
ENDBRANCH  20  23
ENDBRANCH   2  19
TORSDOF 6
ENDMDL
