MODEL 1
REMARK VINA RESULT:     -10.7      0.000      0.000
REMARK  6 active torsions:
REMARK  status: ('A' for Active; 'I' for Inactive)
REMARK    1  A    between atoms: C_2  and  C_3 
REMARK    2  A    between atoms: C_3  and  C_4 
REMARK    3  A    between atoms: N_7  and  C_9 
REMARK    4  A    between atoms: C_9  and  C_10 
REMARK    5  A    between atoms: N_23  and  C_24 
REMARK    6  A    between atoms: C_24  and  C_25 
ROOT
HETATM    1  C   UNL     1       5.520  28.487  54.711  1.00  0.00     0.119 A 
HETATM    2  N   UNL     1       6.689  28.671  53.886  1.00  0.00    -0.324 N 
HETATM    3  C   UNL     1       7.860  28.576  54.612  1.00  0.00     0.326 A 
HETATM    4  O   UNL     1       8.954  28.616  54.078  1.00  0.00    -0.247 OA
HETATM    5  N   UNL     1       7.552  28.349  55.914  1.00  0.00    -0.264 N 
HETATM    6  C   UNL     1       6.198  28.342  56.095  1.00  0.00     0.257 A 
HETATM    7  O   UNL     1       5.600  28.158  57.145  1.00  0.00    -0.270 OA
HETATM    8  H   UNL     1       6.731  29.179  53.009  1.00  0.00     0.165 HD
ENDROOT
BRANCH   1   9
HETATM    9  C   UNL     1       4.591  29.716  54.678  1.00  0.00     0.037 C 
HETATM   10  C   UNL     1       4.058  30.084  53.295  1.00  0.00     0.008 C 
ENDBRANCH   1   9
BRANCH   1  11
HETATM   11  C   UNL     1       4.763  27.144  54.384  1.00  0.00     0.026 C 
HETATM   12  C   UNL     1       5.032  25.969  55.349  1.00  0.00     0.035 C 
HETATM   13  C   UNL     1       6.385  25.293  55.170  1.00  0.00     0.235 C 
HETATM   14  N   UNL     1       6.612  24.878  53.737  1.00  0.00    -0.067 N 
HETATM   15  H   UNL     1       5.978  24.089  53.560  1.00  0.00     0.280 HD
HETATM   16  C   UNL     1       6.305  25.948  52.715  1.00  0.00     0.235 C 
HETATM   17  C   UNL     1       4.951  26.599  52.958  1.00  0.00     0.035 C 
BRANCH  14  18
HETATM   18  C   UNL     1       8.028  24.359  53.506  1.00  0.00     0.273 C 
BRANCH  18  19
HETATM   19  C   UNL     1       8.258  22.924  53.893  1.00  0.00    -0.027 A 
HETATM   20  C   UNL     1       8.565  22.566  55.212  1.00  0.00     0.051 A 
HETATM   21  C   UNL     1       8.784  21.226  55.538  1.00  0.00     0.119 A 
HETATM   22  F   UNL     1       9.076  20.907  56.805  1.00  0.00    -0.206 F 
HETATM   23  C   UNL     1       8.713  20.226  54.580  1.00  0.00     0.084 A 
HETATM   24  C   UNL     1       8.411  20.580  53.275  1.00  0.00     0.119 A 
HETATM   25  F   UNL     1       8.344  19.635  52.329  1.00  0.00    -0.206 F 
HETATM   26  C   UNL     1       8.184  21.909  52.922  1.00  0.00     0.051 A 
ENDBRANCH  18  19
ENDBRANCH  14  18
ENDBRANCH   1  11
BRANCH   5  27
HETATM   27  C   UNL     1       8.521  28.079  56.953  1.00  0.00     0.175 C 
BRANCH  27  28
HETATM   28  C   UNL     1       8.873  29.297  57.767  1.00  0.00    -0.037 A 
HETATM   29  C   UNL     1       8.075  29.661  58.865  1.00  0.00     0.048 A 
HETATM   30  C   UNL     1       8.399  30.812  59.551  1.00  0.00     0.105 A 
HETATM   31  C   UNL     1       9.475  31.587  59.197  1.00  0.00     0.105 A 
HETATM   32  O   UNL     1       7.716  31.319  60.612  1.00  0.00    -0.323 OA
HETATM   33  O   UNL     1       9.606  32.683  59.991  1.00  0.00    -0.323 OA
HETATM   34  C   UNL     1      10.296  31.250  58.143  1.00  0.00     0.040 A 
HETATM   35  C   UNL     1       8.466  32.528  60.862  1.00  0.00     0.352 A 
HETATM   36  C   UNL     1       9.990  30.092  57.421  1.00  0.00     0.012 A 
ENDBRANCH  27  28
ENDBRANCH   5  27
TORSDOF 6
ENDMDL
MODEL 2
REMARK VINA RESULT:     -10.7      3.894      8.662
REMARK  6 active torsions:
REMARK  status: ('A' for Active; 'I' for Inactive)
REMARK    1  A    between atoms: C_2  and  C_3 
REMARK    2  A    between atoms: C_3  and  C_4 
REMARK    3  A    between atoms: N_7  and  C_9 
REMARK    4  A    between atoms: C_9  and  C_10 
REMARK    5  A    between atoms: N_23  and  C_24 
REMARK    6  A    between atoms: C_24  and  C_25 
ROOT
HETATM    1  C   UNL     1       5.580  27.416  54.768  1.00  0.00     0.119 A 
HETATM    2  N   UNL     1       4.649  26.599  54.027  1.00  0.00    -0.324 N 
HETATM    3  C   UNL     1       5.290  25.676  53.224  1.00  0.00     0.326 A 
HETATM    4  O   UNL     1       4.675  24.839  52.588  1.00  0.00    -0.247 OA
HETATM    5  N   UNL     1       6.631  25.828  53.364  1.00  0.00    -0.264 N 
HETATM    6  C   UNL     1       6.913  26.870  54.203  1.00  0.00     0.257 A 
HETATM    7  O   UNL     1       8.021  27.258  54.540  1.00  0.00    -0.270 OA
HETATM    8  H   UNL     1       3.701  26.851  53.772  1.00  0.00     0.165 HD
ENDROOT
BRANCH   1   9
HETATM    9  C   UNL     1       5.417  28.913  54.446  1.00  0.00     0.037 C 
HETATM   10  C   UNL     1       4.178  29.265  53.625  1.00  0.00     0.008 C 
ENDBRANCH   1   9
BRANCH   1  11
HETATM   11  C   UNL     1       5.536  27.119  56.315  1.00  0.00     0.026 C 
HETATM   12  C   UNL     1       4.614  28.035  57.149  1.00  0.00     0.035 C 
HETATM   13  C   UNL     1       5.160  29.435  57.396  1.00  0.00     0.235 C 
HETATM   14  N   UNL     1       6.550  29.391  57.981  1.00  0.00    -0.067 N 
HETATM   15  H   UNL     1       6.449  29.051  58.946  1.00  0.00     0.280 HD
HETATM   16  C   UNL     1       7.506  28.463  57.267  1.00  0.00     0.235 C 
HETATM   17  C   UNL     1       6.897  27.089  57.031  1.00  0.00     0.035 C 
BRANCH  14  18
HETATM   18  C   UNL     1       7.179  30.779  58.073  1.00  0.00     0.273 C 
BRANCH  18  19
HETATM   19  C   UNL     1       7.640  31.186  59.445  1.00  0.00    -0.027 A 
HETATM   20  C   UNL     1       7.138  32.334  60.071  1.00  0.00     0.051 A 
HETATM   21  C   UNL     1       7.595  32.692  61.341  1.00  0.00     0.119 A 
HETATM   22  F   UNL     1       7.101  33.794  61.920  1.00  0.00    -0.206 F 
HETATM   23  C   UNL     1       8.550  31.939  62.006  1.00  0.00     0.084 A 
HETATM   24  C   UNL     1       9.048  30.804  61.387  1.00  0.00     0.119 A 
HETATM   25  F   UNL     1       9.977  30.065  62.004  1.00  0.00    -0.206 F 
HETATM   26  C   UNL     1       8.608  30.422  60.121  1.00  0.00     0.051 A 
ENDBRANCH  18  19
ENDBRANCH  14  18
ENDBRANCH   1  11
BRANCH   5  27
HETATM   27  C   UNL     1       7.624  24.962  52.767  1.00  0.00     0.175 C 
BRANCH  27  28
HETATM   28  C   UNL     1       7.770  23.645  53.485  1.00  0.00    -0.037 A 
HETATM   29  C   UNL     1       7.941  23.622  54.880  1.00  0.00     0.048 A 
HETATM   30  C   UNL     1       8.126  22.401  55.492  1.00  0.00     0.105 A 
HETATM   31  C   UNL     1       8.130  21.227  54.781  1.00  0.00     0.105 A 
HETATM   32  O   UNL     1       8.335  22.206  56.822  1.00  0.00    -0.323 OA
HETATM   33  O   UNL     1       8.343  20.143  55.572  1.00  0.00    -0.323 OA
HETATM   34  C   UNL     1       7.940  21.206  53.416  1.00  0.00     0.040 A 
HETATM   35  C   UNL     1       8.511  20.773  56.860  1.00  0.00     0.352 A 
HETATM   36  C   UNL     1       7.757  22.430  52.763  1.00  0.00     0.012 A 
ENDBRANCH  27  28
ENDBRANCH   5  27
TORSDOF 6
ENDMDL
MODEL 3
REMARK VINA RESULT:     -10.6      1.188      1.583
REMARK  6 active torsions:
REMARK  status: ('A' for Active; 'I' for Inactive)
REMARK    1  A    between atoms: C_2  and  C_3 
REMARK    2  A    between atoms: C_3  and  C_4 
REMARK    3  A    between atoms: N_7  and  C_9 
REMARK    4  A    between atoms: C_9  and  C_10 
REMARK    5  A    between atoms: N_23  and  C_24 
REMARK    6  A    between atoms: C_24  and  C_25 
ROOT
HETATM    1  C   UNL     1       5.361  28.326  53.396  1.00  0.00     0.119 A 
HETATM    2  N   UNL     1       6.785  28.550  53.445  1.00  0.00    -0.324 N 
HETATM    3  C   UNL     1       7.269  28.547  54.739  1.00  0.00     0.326 A 
HETATM    4  O   UNL     1       8.459  28.633  54.982  1.00  0.00    -0.247 OA
HETATM    5  N   UNL     1       6.235  28.345  55.594  1.00  0.00    -0.264 N 
HETATM    6  C   UNL     1       5.053  28.266  54.911  1.00  0.00     0.257 A 
HETATM    7  O   UNL     1       3.944  28.082  55.388  1.00  0.00    -0.270 OA
HETATM    8  H   UNL     1       7.342  29.031  52.747  1.00  0.00     0.165 HD
ENDROOT
BRANCH   1   9
HETATM    9  C   UNL     1       4.616  29.497  52.727  1.00  0.00     0.037 C 
HETATM   10  C   UNL     1       3.305  29.120  52.041  1.00  0.00     0.008 C 
ENDBRANCH   1   9
BRANCH   1  11
HETATM   11  C   UNL     1       4.997  26.932  52.758  1.00  0.00     0.026 C 
HETATM   12  C   UNL     1       4.635  25.810  53.756  1.00  0.00     0.035 C 
HETATM   13  C   UNL     1       5.822  25.205  54.494  1.00  0.00     0.235 C 
HETATM   14  N   UNL     1       6.895  24.750  53.537  1.00  0.00    -0.067 N 
HETATM   15  H   UNL     1       6.524  23.920  53.057  1.00  0.00     0.280 HD
HETATM   16  C   UNL     1       7.266  25.762  52.477  1.00  0.00     0.235 C 
HETATM   17  C   UNL     1       6.040  26.345  51.791  1.00  0.00     0.035 C 
BRANCH  14  18
HETATM   18  C   UNL     1       8.161  24.302  54.263  1.00  0.00     0.273 C 
BRANCH  18  19
HETATM   19  C   UNL     1       8.367  22.815  54.337  1.00  0.00    -0.027 A 
HETATM   20  C   UNL     1       8.773  22.195  55.526  1.00  0.00     0.051 A 
HETATM   21  C   UNL     1       8.968  20.812  55.561  1.00  0.00     0.119 A 
HETATM   22  F   UNL     1       9.356  20.242  56.708  1.00  0.00    -0.206 F 
HETATM   23  C   UNL     1       8.776  20.025  54.435  1.00  0.00     0.084 A 
HETATM   24  C   UNL     1       8.375  20.638  53.259  1.00  0.00     0.119 A 
HETATM   25  F   UNL     1       8.191  19.902  52.157  1.00  0.00    -0.206 F 
HETATM   26  C   UNL     1       8.171  22.016  53.197  1.00  0.00     0.051 A 
ENDBRANCH  18  19
ENDBRANCH  14  18
ENDBRANCH   1  11
BRANCH   5  27
HETATM   27  C   UNL     1       6.371  28.166  57.022  1.00  0.00     0.175 C 
BRANCH  27  28
HETATM   28  C   UNL     1       6.809  29.417  57.738  1.00  0.00    -0.037 A 
HETATM   29  C   UNL     1       8.018  29.429  58.455  1.00  0.00     0.048 A 
HETATM   30  C   UNL     1       8.356  30.575  59.141  1.00  0.00     0.105 A 
HETATM   31  C   UNL     1       7.557  31.691  59.125  1.00  0.00     0.105 A 
HETATM   32  O   UNL     1       9.469  30.742  59.904  1.00  0.00    -0.323 OA
HETATM   33  O   UNL     1       8.065  32.703  59.877  1.00  0.00    -0.323 OA
HETATM   34  C   UNL     1       6.377  31.728  58.413  1.00  0.00     0.040 A 
HETATM   35  C   UNL     1       9.259  32.082  60.400  1.00  0.00     0.352 A 
HETATM   36  C   UNL     1       6.001  30.577  57.712  1.00  0.00     0.012 A 
ENDBRANCH  27  28
ENDBRANCH   5  27
TORSDOF 6
ENDMDL
MODEL 4
REMARK VINA RESULT:     -10.4      1.940      2.996
REMARK  6 active torsions:
REMARK  status: ('A' for Active; 'I' for Inactive)
REMARK    1  A    between atoms: C_2  and  C_3 
REMARK    2  A    between atoms: C_3  and  C_4 
REMARK    3  A    between atoms: N_7  and  C_9 
REMARK    4  A    between atoms: C_9  and  C_10 
REMARK    5  A    between atoms: N_23  and  C_24 
REMARK    6  A    between atoms: C_24  and  C_25 
ROOT
HETATM    1  C   UNL     1       5.441  27.374  55.399  1.00  0.00     0.119 A 
HETATM    2  N   UNL     1       4.207  27.786  56.022  1.00  0.00    -0.324 N 
HETATM    3  C   UNL     1       4.262  29.088  56.478  1.00  0.00     0.326 A 
HETATM    4  O   UNL     1       3.289  29.645  56.955  1.00  0.00    -0.247 OA
HETATM    5  N   UNL     1       5.492  29.595  56.211  1.00  0.00    -0.264 N 
HETATM    6  C   UNL     1       6.289  28.647  55.634  1.00  0.00     0.257 A 
HETATM    7  O   UNL     1       7.446  28.788  55.267  1.00  0.00    -0.270 OA
HETATM    8  H   UNL     1       3.519  27.176  56.451  1.00  0.00     0.165 HD
ENDROOT
BRANCH   1   9
HETATM    9  C   UNL     1       6.067  26.157  56.106  1.00  0.00     0.037 C 
HETATM   10  C   UNL     1       5.144  25.436  57.086  1.00  0.00     0.008 C 
ENDBRANCH   1   9
BRANCH   1  11
HETATM   11  C   UNL     1       5.284  27.159  53.845  1.00  0.00     0.026 C 
HETATM   12  C   UNL     1       4.729  25.786  53.410  1.00  0.00     0.035 C 
HETATM   13  C   UNL     1       5.724  24.637  53.504  1.00  0.00     0.235 C 
HETATM   14  N   UNL     1       7.008  24.955  52.780  1.00  0.00    -0.067 N 
HETATM   15  H   UNL     1       6.787  24.935  51.776  1.00  0.00     0.280 HD
HETATM   16  C   UNL     1       7.589  26.314  53.093  1.00  0.00     0.235 C 
HETATM   17  C   UNL     1       6.544  27.417  53.002  1.00  0.00     0.035 C 
BRANCH  14  18
HETATM   18  C   UNL     1       8.077  23.890  53.010  1.00  0.00     0.273 C 
BRANCH  18  19
HETATM   19  C   UNL     1       8.115  23.307  54.396  1.00  0.00    -0.027 A 
HETATM   20  C   UNL     1       8.590  24.050  55.485  1.00  0.00     0.051 A 
HETATM   21  C   UNL     1       8.625  23.477  56.758  1.00  0.00     0.119 A 
HETATM   22  F   UNL     1       9.083  24.206  57.784  1.00  0.00    -0.206 F 
HETATM   23  C   UNL     1       8.203  22.174  56.977  1.00  0.00     0.084 A 
HETATM   24  C   UNL     1       7.735  21.439  55.901  1.00  0.00     0.119 A 
HETATM   25  F   UNL     1       7.330  20.177  56.085  1.00  0.00    -0.206 F 
HETATM   26  C   UNL     1       7.687  21.987  54.620  1.00  0.00     0.051 A 
ENDBRANCH  18  19
ENDBRANCH  14  18
ENDBRANCH   1  11
BRANCH   5  27
HETATM   27  C   UNL     1       5.882  30.969  56.439  1.00  0.00     0.175 C 
BRANCH  27  28
HETATM   28  C   UNL     1       6.384  31.218  57.838  1.00  0.00    -0.037 A 
HETATM   29  C   UNL     1       7.522  30.539  58.306  1.00  0.00     0.048 A 
HETATM   30  C   UNL     1       7.917  30.753  59.609  1.00  0.00     0.105 A 
HETATM   31  C   UNL     1       7.242  31.614  60.438  1.00  0.00     0.105 A 
HETATM   32  O   UNL     1       8.972  30.155  60.224  1.00  0.00    -0.323 OA
HETATM   33  O   UNL     1       7.787  31.667  61.682  1.00  0.00    -0.323 OA
HETATM   34  C   UNL     1       6.138  32.318  60.009  1.00  0.00     0.040 A 
HETATM   35  C   UNL     1       8.860  30.711  61.552  1.00  0.00     0.352 A 
HETATM   36  C   UNL     1       5.706  32.117  58.693  1.00  0.00     0.012 A 
ENDBRANCH  27  28
ENDBRANCH   5  27
TORSDOF 6
ENDMDL
MODEL 5
REMARK VINA RESULT:     -10.1      2.364      3.074
REMARK  6 active torsions:
REMARK  status: ('A' for Active; 'I' for Inactive)
REMARK    1  A    between atoms: C_2  and  C_3 
REMARK    2  A    between atoms: C_3  and  C_4 
REMARK    3  A    between atoms: N_7  and  C_9 
REMARK    4  A    between atoms: C_9  and  C_10 
REMARK    5  A    between atoms: N_23  and  C_24 
REMARK    6  A    between atoms: C_24  and  C_25 
ROOT
HETATM    1  C   UNL     1       5.575  28.173  52.734  1.00  0.00     0.119 A 
HETATM    2  N   UNL     1       6.880  28.250  53.346  1.00  0.00    -0.324 N 
HETATM    3  C   UNL     1       6.804  28.422  54.714  1.00  0.00     0.326 A 
HETATM    4  O   UNL     1       7.798  28.423  55.419  1.00  0.00    -0.247 OA
HETATM    5  N   UNL     1       5.499  28.484  55.078  1.00  0.00    -0.264 N 
HETATM    6  C   UNL     1       4.688  28.412  53.979  1.00  0.00     0.257 A 
HETATM    7  O   UNL     1       3.467  28.433  53.968  1.00  0.00    -0.270 OA
HETATM    8  H   UNL     1       7.739  28.539  52.892  1.00  0.00     0.165 HD
ENDROOT
BRANCH   1   9
HETATM    9  C   UNL     1       5.364  29.280  51.685  1.00  0.00     0.037 C 
HETATM   10  C   UNL     1       4.371  28.938  50.576  1.00  0.00     0.008 C 
ENDBRANCH   1   9
BRANCH   1  11
HETATM   11  C   UNL     1       5.265  26.734  52.170  1.00  0.00     0.026 C 
HETATM   12  C   UNL     1       4.647  25.738  53.175  1.00  0.00     0.035 C 
HETATM   13  C   UNL     1       5.626  25.167  54.192  1.00  0.00     0.235 C 
HETATM   14  N   UNL     1       6.840  24.574  53.520  1.00  0.00    -0.067 N 
HETATM   15  H   UNL     1       6.523  23.714  53.056  1.00  0.00     0.280 HD
HETATM   16  C   UNL     1       7.472  25.455  52.467  1.00  0.00     0.235 C 
HETATM   17  C   UNL     1       6.442  26.010  51.494  1.00  0.00     0.035 C 
BRANCH  14  18
HETATM   18  C   UNL     1       7.908  24.156  54.527  1.00  0.00     0.273 C 
BRANCH  18  19
HETATM   19  C   UNL     1       8.265  22.696  54.517  1.00  0.00    -0.027 A 
HETATM   20  C   UNL     1       8.810  22.072  55.646  1.00  0.00     0.051 A 
HETATM   21  C   UNL     1       9.143  20.716  55.602  1.00  0.00     0.119 A 
HETATM   22  F   UNL     1       9.663  20.141  56.693  1.00  0.00    -0.206 F 
HETATM   23  C   UNL     1       8.953  19.961  54.454  1.00  0.00     0.084 A 
HETATM   24  C   UNL     1       8.415  20.578  53.337  1.00  0.00     0.119 A 
HETATM   25  F   UNL     1       8.229  19.873  52.215  1.00  0.00    -0.206 F 
HETATM   26  C   UNL     1       8.071  21.929  53.354  1.00  0.00     0.051 A 
ENDBRANCH  18  19
ENDBRANCH  14  18
ENDBRANCH   1  11
BRANCH   5  27
HETATM   27  C   UNL     1       5.027  28.544  56.443  1.00  0.00     0.175 C 
BRANCH  27  28
HETATM   28  C   UNL     1       4.958  29.949  56.986  1.00  0.00    -0.037 A 
HETATM   29  C   UNL     1       3.811  30.730  56.765  1.00  0.00     0.048 A 
HETATM   30  C   UNL     1       3.809  32.028  57.229  1.00  0.00     0.105 A 
HETATM   31  C   UNL     1       4.880  32.557  57.905  1.00  0.00     0.105 A 
HETATM   32  O   UNL     1       2.796  32.922  57.074  1.00  0.00    -0.323 OA
HETATM   33  O   UNL     1       4.678  33.853  58.261  1.00  0.00    -0.323 OA
HETATM   34  C   UNL     1       6.012  31.815  58.164  1.00  0.00     0.040 A 
HETATM   35  C   UNL     1       3.371  34.091  57.697  1.00  0.00     0.352 A 
HETATM   36  C   UNL     1       6.049  30.496  57.699  1.00  0.00     0.012 A 
ENDBRANCH  27  28
ENDBRANCH   5  27
TORSDOF 6
ENDMDL
MODEL 6
REMARK VINA RESULT:     -10.1      1.833      3.298
REMARK  6 active torsions:
REMARK  status: ('A' for Active; 'I' for Inactive)
REMARK    1  A    between atoms: C_2  and  C_3 
REMARK    2  A    between atoms: C_3  and  C_4 
REMARK    3  A    between atoms: N_7  and  C_9 
REMARK    4  A    between atoms: C_9  and  C_10 
REMARK    5  A    between atoms: N_23  and  C_24 
REMARK    6  A    between atoms: C_24  and  C_25 
ROOT
HETATM    1  C   UNL     1       6.911  28.181  56.023  1.00  0.00     0.119 A 
HETATM    2  N   UNL     1       5.609  28.291  56.635  1.00  0.00    -0.324 N 
HETATM    3  C   UNL     1       5.472  29.456  57.363  1.00  0.00     0.326 A 
HETATM    4  O   UNL     1       4.415  29.771  57.882  1.00  0.00    -0.247 OA
HETATM    5  N   UNL     1       6.632  30.156  57.295  1.00  0.00    -0.264 N 
HETATM    6  C   UNL     1       7.571  29.464  56.583  1.00  0.00     0.257 A 
HETATM    7  O   UNL     1       8.712  29.823  56.334  1.00  0.00    -0.270 OA
HETATM    8  H   UNL     1       4.993  27.522  56.876  1.00  0.00     0.165 HD
ENDROOT
BRANCH   1   9
HETATM    9  C   UNL     1       7.665  26.923  56.493  1.00  0.00     0.037 C 
HETATM   10  C   UNL     1       6.919  26.066  57.514  1.00  0.00     0.008 C 
ENDBRANCH   1   9
BRANCH   1  11
HETATM   11  C   UNL     1       6.844  28.298  54.453  1.00  0.00     0.026 C 
HETATM   12  C   UNL     1       5.468  28.007  53.815  1.00  0.00     0.035 C 
HETATM   13  C   UNL     1       5.091  26.533  53.758  1.00  0.00     0.235 C 
HETATM   14  N   UNL     1       6.173  25.709  53.106  1.00  0.00    -0.067 N 
HETATM   15  H   UNL     1       6.159  25.950  52.107  1.00  0.00     0.280 HD
HETATM   16  C   UNL     1       7.568  25.979  53.621  1.00  0.00     0.235 C 
HETATM   17  C   UNL     1       7.879  27.467  53.674  1.00  0.00     0.035 C 
BRANCH  14  18
HETATM   18  C   UNL     1       5.889  24.212  53.196  1.00  0.00     0.273 C 
BRANCH  18  19
HETATM   19  C   UNL     1       6.967  23.392  53.851  1.00  0.00    -0.027 A 
HETATM   20  C   UNL     1       7.761  22.508  53.110  1.00  0.00     0.051 A 
HETATM   21  C   UNL     1       8.745  21.752  53.748  1.00  0.00     0.119 A 
HETATM   22  F   UNL     1       9.493  20.913  53.019  1.00  0.00    -0.206 F 
HETATM   23  C   UNL     1       8.958  21.846  55.115  1.00  0.00     0.084 A 
HETATM   24  C   UNL     1       8.172  22.719  55.849  1.00  0.00     0.119 A 
HETATM   25  F   UNL     1       8.352  22.822  57.171  1.00  0.00    -0.206 F 
HETATM   26  C   UNL     1       7.184  23.488  55.237  1.00  0.00     0.051 A 
ENDBRANCH  18  19
ENDBRANCH  14  18
ENDBRANCH   1  11
BRANCH   5  27
HETATM   27  C   UNL     1       6.826  31.482  57.838  1.00  0.00     0.175 C 
BRANCH  27  28
HETATM   28  C   UNL     1       7.230  31.475  59.290  1.00  0.00    -0.037 A 
HETATM   29  C   UNL     1       6.568  32.310  60.206  1.00  0.00     0.048 A 
HETATM   30  C   UNL     1       7.004  32.315  61.514  1.00  0.00     0.105 A 
HETATM   31  C   UNL     1       8.042  31.521  61.934  1.00  0.00     0.105 A 
HETATM   32  O   UNL     1       6.496  33.083  62.514  1.00  0.00    -0.323 OA
HETATM   33  O   UNL     1       8.320  31.689  63.254  1.00  0.00    -0.323 OA
HETATM   34  C   UNL     1       8.698  30.670  61.072  1.00  0.00     0.040 A 
HETATM   35  C   UNL     1       7.362  32.709  63.608  1.00  0.00     0.352 A 
HETATM   36  C   UNL     1       8.286  30.647  59.736  1.00  0.00     0.012 A 
ENDBRANCH  27  28
ENDBRANCH   5  27
TORSDOF 6
ENDMDL
MODEL 7
REMARK VINA RESULT:      -9.9      2.810      3.967
REMARK  6 active torsions:
REMARK  status: ('A' for Active; 'I' for Inactive)
REMARK    1  A    between atoms: C_2  and  C_3 
REMARK    2  A    between atoms: C_3  and  C_4 
REMARK    3  A    between atoms: N_7  and  C_9 
REMARK    4  A    between atoms: C_9  and  C_10 
REMARK    5  A    between atoms: N_23  and  C_24 
REMARK    6  A    between atoms: C_24  and  C_25 
ROOT
HETATM    1  C   UNL     1       7.144  29.003  56.732  1.00  0.00     0.119 A 
HETATM    2  N   UNL     1       7.839  29.603  57.845  1.00  0.00    -0.324 N 
HETATM    3  C   UNL     1       7.314  30.835  58.184  1.00  0.00     0.326 A 
HETATM    4  O   UNL     1       7.710  31.458  59.153  1.00  0.00    -0.247 OA
HETATM    5  N   UNL     1       6.290  31.123  57.342  1.00  0.00    -0.264 N 
HETATM    6  C   UNL     1       6.146  30.139  56.404  1.00  0.00     0.257 A 
HETATM    7  O   UNL     1       5.314  30.096  55.511  1.00  0.00    -0.270 OA
HETATM    8  H   UNL     1       8.795  29.417  58.126  1.00  0.00     0.165 HD
ENDROOT
BRANCH   1   9
HETATM    9  C   UNL     1       8.084  28.734  55.541  1.00  0.00     0.037 C 
HETATM   10  C   UNL     1       9.485  29.328  55.679  1.00  0.00     0.008 C 
ENDBRANCH   1   9
BRANCH   1  11
HETATM   11  C   UNL     1       6.324  27.726  57.158  1.00  0.00     0.026 C 
HETATM   12  C   UNL     1       7.158  26.532  57.672  1.00  0.00     0.035 C 
HETATM   13  C   UNL     1       7.885  25.748  56.588  1.00  0.00     0.235 C 
HETATM   14  N   UNL     1       6.944  25.317  55.491  1.00  0.00    -0.067 N 
HETATM   15  H   UNL     1       6.347  24.582  55.892  1.00  0.00     0.280 HD
HETATM   16  C   UNL     1       6.036  26.409  54.973  1.00  0.00     0.235 C 
HETATM   17  C   UNL     1       5.355  27.168  56.102  1.00  0.00     0.035 C 
BRANCH  14  18
HETATM   18  C   UNL     1       7.682  24.683  54.315  1.00  0.00     0.273 C 
BRANCH  18  19
HETATM   19  C   UNL     1       7.785  23.183  54.354  1.00  0.00    -0.027 A 
HETATM   20  C   UNL     1       7.649  22.475  55.555  1.00  0.00     0.051 A 
HETATM   21  C   UNL     1       7.762  21.084  55.562  1.00  0.00     0.119 A 
HETATM   22  F   UNL     1       7.628  20.428  56.722  1.00  0.00    -0.206 F 
HETATM   23  C   UNL     1       8.015  20.372  54.399  1.00  0.00     0.084 A 
HETATM   24  C   UNL     1       8.151  21.072  53.211  1.00  0.00     0.119 A 
HETATM   25  F   UNL     1       8.403  20.409  52.076  1.00  0.00    -0.206 F 
HETATM   26  C   UNL     1       8.040  22.461  53.175  1.00  0.00     0.051 A 
ENDBRANCH  18  19
ENDBRANCH  14  18
ENDBRANCH   1  11
BRANCH   5  27
HETATM   27  C   UNL     1       5.426  32.276  57.463  1.00  0.00     0.175 C 
BRANCH  27  28
HETATM   28  C   UNL     1       4.766  32.382  58.813  1.00  0.00    -0.037 A 
HETATM   29  C   UNL     1       5.180  33.373  59.720  1.00  0.00     0.048 A 
HETATM   30  C   UNL     1       4.590  33.403  60.965  1.00  0.00     0.105 A 
HETATM   31  C   UNL     1       3.611  32.510  61.324  1.00  0.00     0.105 A 
HETATM   32  O   UNL     1       4.895  34.272  61.965  1.00  0.00    -0.323 OA
HETATM   33  O   UNL     1       3.175  32.703  62.597  1.00  0.00    -0.323 OA
HETATM   34  C   UNL     1       3.159  31.541  60.454  1.00  0.00     0.040 A 
HETATM   35  C   UNL     1       4.021  33.797  63.012  1.00  0.00     0.352 A 
HETATM   36  C   UNL     1       3.744  31.479  59.185  1.00  0.00     0.012 A 
ENDBRANCH  27  28
ENDBRANCH   5  27
TORSDOF 6
ENDMDL
MODEL 8
REMARK VINA RESULT:      -9.8      4.357      9.248
REMARK  6 active torsions:
REMARK  status: ('A' for Active; 'I' for Inactive)
REMARK    1  A    between atoms: C_2  and  C_3 
REMARK    2  A    between atoms: C_3  and  C_4 
REMARK    3  A    between atoms: N_7  and  C_9 
REMARK    4  A    between atoms: C_9  and  C_10 
REMARK    5  A    between atoms: N_23  and  C_24 
REMARK    6  A    between atoms: C_24  and  C_25 
ROOT
HETATM    1  C   UNL     1       5.699  27.664  54.773  1.00  0.00     0.119 A 
HETATM    2  N   UNL     1       4.663  26.757  54.343  1.00  0.00    -0.324 N 
HETATM    3  C   UNL     1       5.137  25.800  53.468  1.00  0.00     0.326 A 
HETATM    4  O   UNL     1       4.433  24.893  53.062  1.00  0.00    -0.247 OA
HETATM    5  N   UNL     1       6.461  26.014  53.258  1.00  0.00    -0.264 N 
HETATM    6  C   UNL     1       6.881  27.128  53.930  1.00  0.00     0.257 A 
HETATM    7  O   UNL     1       8.014  27.584  53.954  1.00  0.00    -0.270 OA
HETATM    8  H   UNL     1       3.668  26.952  54.317  1.00  0.00     0.165 HD
ENDROOT
BRANCH   1   9
HETATM    9  C   UNL     1       5.377  29.125  54.405  1.00  0.00     0.037 C 
HETATM   10  C   UNL     1       3.984  29.351  53.821  1.00  0.00     0.008 C 
ENDBRANCH   1   9
BRANCH   1  11
HETATM   11  C   UNL     1       6.054  27.486  56.299  1.00  0.00     0.026 C 
HETATM   12  C   UNL     1       4.947  27.889  57.297  1.00  0.00     0.035 C 
HETATM   13  C   UNL     1       4.765  29.390  57.477  1.00  0.00     0.235 C 
HETATM   14  N   UNL     1       6.069  30.069  57.814  1.00  0.00    -0.067 N 
HETATM   15  H   UNL     1       6.304  29.788  58.774  1.00  0.00     0.280 HD
HETATM   16  C   UNL     1       7.231  29.680  56.928  1.00  0.00     0.235 C 
HETATM   17  C   UNL     1       7.348  28.171  56.771  1.00  0.00     0.035 C 
BRANCH  14  18
HETATM   18  C   UNL     1       5.939  31.590  57.826  1.00  0.00     0.273 C 
BRANCH  18  19
HETATM   19  C   UNL     1       6.119  32.240  59.170  1.00  0.00    -0.027 A 
HETATM   20  C   UNL     1       7.293  32.060  59.914  1.00  0.00     0.051 A 
HETATM   21  C   UNL     1       7.425  32.667  61.165  1.00  0.00     0.119 A 
HETATM   22  F   UNL     1       8.556  32.481  61.858  1.00  0.00    -0.206 F 
HETATM   23  C   UNL     1       6.413  33.446  61.703  1.00  0.00     0.084 A 
HETATM   24  C   UNL     1       5.251  33.623  60.969  1.00  0.00     0.119 A 
HETATM   25  F   UNL     1       4.256  34.363  61.469  1.00  0.00    -0.206 F 
HETATM   26  C   UNL     1       5.093  33.031  59.716  1.00  0.00     0.051 A 
ENDBRANCH  18  19
ENDBRANCH  14  18
ENDBRANCH   1  11
BRANCH   5  27
HETATM   27  C   UNL     1       7.323  25.144  52.491  1.00  0.00     0.175 C 
BRANCH  27  28
HETATM   28  C   UNL     1       7.855  23.981  53.289  1.00  0.00    -0.037 A 
HETATM   29  C   UNL     1       7.895  22.698  52.718  1.00  0.00     0.048 A 
HETATM   30  C   UNL     1       8.337  21.652  53.499  1.00  0.00     0.105 A 
HETATM   31  C   UNL     1       8.746  21.839  54.796  1.00  0.00     0.105 A 
HETATM   32  O   UNL     1       8.408  20.351  53.112  1.00  0.00    -0.323 OA
HETATM   33  O   UNL     1       9.127  20.678  55.391  1.00  0.00    -0.323 OA
HETATM   34  C   UNL     1       8.746  23.086  55.383  1.00  0.00     0.040 A 
HETATM   35  C   UNL     1       8.874  19.731  54.330  1.00  0.00     0.352 A 
HETATM   36  C   UNL     1       8.296  24.168  54.619  1.00  0.00     0.012 A 
ENDBRANCH  27  28
ENDBRANCH   5  27
TORSDOF 6
ENDMDL
MODEL 9
REMARK VINA RESULT:      -9.8      4.137      8.813
REMARK  6 active torsions:
REMARK  status: ('A' for Active; 'I' for Inactive)
REMARK    1  A    between atoms: C_2  and  C_3 
REMARK    2  A    between atoms: C_3  and  C_4 
REMARK    3  A    between atoms: N_7  and  C_9 
REMARK    4  A    between atoms: C_9  and  C_10 
REMARK    5  A    between atoms: N_23  and  C_24 
REMARK    6  A    between atoms: C_24  and  C_25 
ROOT
HETATM    1  C   UNL     1       5.629  26.824  54.318  1.00  0.00     0.119 A 
HETATM    2  N   UNL     1       4.979  26.404  55.536  1.00  0.00    -0.324 N 
HETATM    3  C   UNL     1       5.806  25.633  56.329  1.00  0.00     0.326 A 
HETATM    4  O   UNL     1       5.468  25.257  57.438  1.00  0.00    -0.247 OA
HETATM    5  N   UNL     1       7.002  25.486  55.705  1.00  0.00    -0.264 N 
HETATM    6  C   UNL     1       6.984  26.094  54.481  1.00  0.00     0.257 A 
HETATM    7  O   UNL     1       7.903  26.149  53.678  1.00  0.00    -0.270 OA
HETATM    8  H   UNL     1       3.980  26.305  55.680  1.00  0.00     0.165 HD
ENDROOT
BRANCH   1   9
HETATM    9  C   UNL     1       4.882  26.327  53.066  1.00  0.00     0.037 C 
HETATM   10  C   UNL     1       4.784  24.809  52.933  1.00  0.00     0.008 C 
ENDBRANCH   1   9
BRANCH   1  11
HETATM   11  C   UNL     1       5.899  28.376  54.289  1.00  0.00     0.026 C 
HETATM   12  C   UNL     1       7.380  28.802  54.375  1.00  0.00     0.035 C 
HETATM   13  C   UNL     1       7.999  28.683  55.762  1.00  0.00     0.235 C 
HETATM   14  N   UNL     1       7.171  29.397  56.801  1.00  0.00    -0.067 N 
HETATM   15  H   UNL     1       7.288  30.403  56.624  1.00  0.00     0.280 HD
HETATM   16  C   UNL     1       5.691  29.093  56.747  1.00  0.00     0.235 C 
HETATM   17  C   UNL     1       5.136  29.209  55.335  1.00  0.00     0.035 C 
BRANCH  14  18
HETATM   18  C   UNL     1       7.680  29.142  58.217  1.00  0.00     0.273 C 
BRANCH  18  19
HETATM   19  C   UNL     1       7.792  30.362  59.089  1.00  0.00    -0.027 A 
HETATM   20  C   UNL     1       6.752  31.297  59.169  1.00  0.00     0.051 A 
HETATM   21  C   UNL     1       6.889  32.426  59.978  1.00  0.00     0.119 A 
HETATM   22  F   UNL     1       5.882  33.307  60.038  1.00  0.00    -0.206 F 
HETATM   23  C   UNL     1       8.044  32.657  60.710  1.00  0.00     0.084 A 
HETATM   24  C   UNL     1       9.074  31.733  60.631  1.00  0.00     0.119 A 
HETATM   25  F   UNL     1      10.202  31.936  61.321  1.00  0.00    -0.206 F 
HETATM   26  C   UNL     1       8.962  30.596  59.833  1.00  0.00     0.051 A 
ENDBRANCH  18  19
ENDBRANCH  14  18
ENDBRANCH   1  11
BRANCH   5  27
HETATM   27  C   UNL     1       8.158  24.838  56.284  1.00  0.00     0.175 C 
BRANCH  27  28
HETATM   28  C   UNL     1       8.340  23.419  55.812  1.00  0.00    -0.037 A 
HETATM   29  C   UNL     1       8.437  23.144  54.437  1.00  0.00     0.048 A 
HETATM   30  C   UNL     1       8.548  21.827  54.044  1.00  0.00     0.105 A 
HETATM   31  C   UNL     1       8.581  20.800  54.954  1.00  0.00     0.105 A 
HETATM   32  O   UNL     1       8.621  21.389  52.759  1.00  0.00    -0.323 OA
HETATM   33  O   UNL     1       8.678  19.582  54.357  1.00  0.00    -0.323 OA
HETATM   34  C   UNL     1       8.514  21.031  56.311  1.00  0.00     0.040 A 
HETATM   35  C   UNL     1       8.665  19.960  52.963  1.00  0.00     0.352 A 
HETATM   36  C   UNL     1       8.393  22.356  56.743  1.00  0.00     0.012 A 
ENDBRANCH  27  28
ENDBRANCH   5  27
TORSDOF 6
ENDMDL
MODEL 10
REMARK VINA RESULT:      -9.8      3.868      7.644
REMARK  6 active torsions:
REMARK  status: ('A' for Active; 'I' for Inactive)
REMARK    1  A    between atoms: C_2  and  C_3 
REMARK    2  A    between atoms: C_3  and  C_4 
REMARK    3  A    between atoms: N_7  and  C_9 
REMARK    4  A    between atoms: C_9  and  C_10 
REMARK    5  A    between atoms: N_23  and  C_24 
REMARK    6  A    between atoms: C_24  and  C_25 
ROOT
HETATM    1  C   UNL     1       5.287  28.099  53.670  1.00  0.00     0.119 A 
HETATM    2  N   UNL     1       4.703  26.783  53.771  1.00  0.00    -0.324 N 
HETATM    3  C   UNL     1       4.712  26.114  52.563  1.00  0.00     0.326 A 
HETATM    4  O   UNL     1       4.341  24.958  52.464  1.00  0.00    -0.247 OA
HETATM    5  N   UNL     1       5.265  26.918  51.620  1.00  0.00    -0.264 N 
HETATM    6  C   UNL     1       5.581  28.137  52.151  1.00  0.00     0.257 A 
HETATM    7  O   UNL     1       6.099  29.078  51.568  1.00  0.00    -0.270 OA
HETATM    8  H   UNL     1       4.024  26.479  54.460  1.00  0.00     0.165 HD
ENDROOT
BRANCH   1   9
HETATM    9  C   UNL     1       4.291  29.204  54.068  1.00  0.00     0.037 C 
HETATM   10  C   UNL     1       3.252  29.550  53.003  1.00  0.00     0.008 C 
ENDBRANCH   1   9
BRANCH   1  11
HETATM   11  C   UNL     1       6.655  28.205  54.446  1.00  0.00     0.026 C 
HETATM   12  C   UNL     1       7.739  27.184  54.039  1.00  0.00     0.035 C 
HETATM   13  C   UNL     1       7.512  25.771  54.561  1.00  0.00     0.235 C 
HETATM   14  N   UNL     1       7.292  25.760  56.053  1.00  0.00    -0.067 N 
HETATM   15  H   UNL     1       8.200  25.979  56.482  1.00  0.00     0.280 HD
HETATM   16  C   UNL     1       6.294  26.780  56.551  1.00  0.00     0.235 C 
HETATM   17  C   UNL     1       6.560  28.165  55.981  1.00  0.00     0.035 C 
BRANCH  14  18
HETATM   18  C   UNL     1       6.891  24.379  56.565  1.00  0.00     0.273 C 
BRANCH  18  19
HETATM   19  C   UNL     1       7.513  23.218  55.838  1.00  0.00    -0.027 A 
HETATM   20  C   UNL     1       7.276  23.003  54.474  1.00  0.00     0.051 A 
HETATM   21  C   UNL     1       7.858  21.910  53.829  1.00  0.00     0.119 A 
HETATM   22  F   UNL     1       7.617  21.723  52.525  1.00  0.00    -0.206 F 
HETATM   23  C   UNL     1       8.670  21.015  54.510  1.00  0.00     0.084 A 
HETATM   24  C   UNL     1       8.904  21.227  55.859  1.00  0.00     0.119 A 
HETATM   25  F   UNL     1       9.677  20.374  56.541  1.00  0.00    -0.206 F 
HETATM   26  C   UNL     1       8.337  22.312  56.527  1.00  0.00     0.051 A 
ENDBRANCH  18  19
ENDBRANCH  14  18
ENDBRANCH   1  11
BRANCH   5  27
HETATM   27  C   UNL     1       5.548  26.517  50.260  1.00  0.00     0.175 C 
BRANCH  27  28
HETATM   28  C   UNL     1       4.352  26.622  49.349  1.00  0.00    -0.037 A 
HETATM   29  C   UNL     1       3.735  27.869  49.145  1.00  0.00     0.048 A 
HETATM   30  C   UNL     1       2.611  27.914  48.348  1.00  0.00     0.105 A 
HETATM   31  C   UNL     1       2.102  26.789  47.749  1.00  0.00     0.105 A 
HETATM   32  O   UNL     1       1.880  29.028  48.074  1.00  0.00    -0.323 OA
HETATM   33  O   UNL     1       0.983  27.052  47.022  1.00  0.00    -0.323 OA
HETATM   34  C   UNL     1       2.693  25.554  47.905  1.00  0.00     0.040 A 
HETATM   35  C   UNL     1       0.826  28.466  47.263  1.00  0.00     0.352 A 
HETATM   36  C   UNL     1       3.831  25.472  48.714  1.00  0.00     0.012 A 
ENDBRANCH  27  28
ENDBRANCH   5  27
TORSDOF 6
ENDMDL
