MODEL 1
REMARK VINA RESULT:      -9.4      0.000      0.000
REMARK  5 active torsions:
REMARK  status: ('A' for Active; 'I' for Inactive)
REMARK    1  A    between atoms: C_5  and  C_6 
REMARK    2  A    between atoms: C_11  and  C_12 
REMARK       I    between atoms: C_12  and  N_13 
REMARK    3  A    between atoms: N_13  and  C_14 
REMARK    4  A    between atoms: C_16  and  O_17 
REMARK    5  A    between atoms: C_23  and  C_24 
ROOT
HETATM    1  C   UNL     1       3.575  29.723  50.400  1.00  0.00     0.118 C 
HETATM    2  N   UNL     1       4.361  29.259  51.538  1.00  0.00    -0.366 N 
HETATM    3  C   UNL     1       5.018  28.080  51.523  1.00  0.00     0.123 A 
HETATM    4  N   UNL     1       4.843  27.168  50.521  1.00  0.00    -0.240 N 
HETATM    5  N   UNL     1       5.525  26.020  50.704  1.00  0.00    -0.165 NA
HETATM    6  C   UNL     1       6.243  26.257  51.827  1.00  0.00     0.148 A 
HETATM    7  C   UNL     1       5.934  27.530  52.378  1.00  0.00     0.089 A 
HETATM    8  C   UNL     1       3.987  27.374  49.369  1.00  0.00     0.221 C 
HETATM    9  C   UNL     1       2.997  28.528  49.619  1.00  0.00     0.066 C 
HETATM   10  H   UNL     1       4.621  29.987  52.203  1.00  0.00     0.161 HD
ENDROOT
BRANCH   6  11
HETATM   11  C   UNL     1       7.211  25.283  52.363  1.00  0.00     0.276 C 
HETATM   12  N   UNL     1       6.593  24.290  53.097  1.00  0.00    -0.322 N 
HETATM   13  H   UNL     1       5.586  24.414  53.180  1.00  0.00     0.169 HD
HETATM   14  O   UNL     1       8.413  25.395  52.149  1.00  0.00    -0.266 OA
BRANCH  12  15
HETATM   15  C   UNL     1       7.178  23.167  53.710  1.00  0.00     0.037 A 
HETATM   16  C   UNL     1       7.635  22.051  53.006  1.00  0.00     0.066 A 
HETATM   17  C   UNL     1       8.188  20.974  53.697  1.00  0.00     0.067 A 
HETATM   18  C   UNL     1       8.300  20.992  55.082  1.00  0.00     0.036 A 
HETATM   19  C   UNL     1       7.849  22.102  55.790  1.00  0.00     0.005 A 
HETATM   20  C   UNL     1       7.285  23.183  55.106  1.00  0.00     0.029 A 
BRANCH  17  21
HETATM   21  O   UNL     1       8.630  19.863  53.040  1.00  0.00    -0.361 OA
HETATM   22  H   UNL     1       9.602  19.885  53.024  1.00  0.00     0.217 HD
ENDBRANCH  17  21
ENDBRANCH  12  15
ENDBRANCH   6  11
BRANCH   8  23
HETATM   23  C   UNL     1       4.822  27.546  48.119  1.00  0.00     0.409 C 
HETATM   24  F   UNL     1       5.956  28.243  48.308  1.00  0.00    -0.169 F 
HETATM   25  F   UNL     1       5.167  26.352  47.579  1.00  0.00    -0.169 F 
HETATM   26  F   UNL     1       4.105  28.194  47.164  1.00  0.00    -0.169 F 
ENDBRANCH   8  23
BRANCH   1  27
HETATM   27  C   UNL     1       4.306  30.755  49.561  1.00  0.00    -0.035 A 
HETATM   28  C   UNL     1       3.810  31.241  48.341  1.00  0.00     0.010 A 
HETATM   29  C   UNL     1       4.532  32.171  47.587  1.00  0.00     0.007 A 
HETATM   30  C   UNL     1       5.775  32.631  48.027  1.00  0.00    -0.062 A 
HETATM   31  C   UNL     1       6.561  33.622  47.221  1.00  0.00     0.048 C 
HETATM   32  C   UNL     1       6.282  32.153  49.238  1.00  0.00     0.007 A 
HETATM   33  C   UNL     1       5.556  31.227  49.996  1.00  0.00     0.010 A 
ENDBRANCH   1  27
TORSDOF 5
ENDMDL
MODEL 2
REMARK VINA RESULT:      -9.1     12.446     14.154
REMARK  5 active torsions:
REMARK  status: ('A' for Active; 'I' for Inactive)
REMARK    1  A    between atoms: C_5  and  C_6 
REMARK    2  A    between atoms: C_11  and  C_12 
REMARK       I    between atoms: C_12  and  N_13 
REMARK    3  A    between atoms: N_13  and  C_14 
REMARK    4  A    between atoms: C_16  and  O_17 
REMARK    5  A    between atoms: C_23  and  C_24 
ROOT
HETATM    1  C   UNL     1       3.327  34.225  64.123  1.00  0.00     0.118 C 
HETATM    2  N   UNL     1       3.628  33.051  63.312  1.00  0.00    -0.366 N 
HETATM    3  C   UNL     1       4.315  33.136  62.154  1.00  0.00     0.123 A 
HETATM    4  N   UNL     1       4.614  34.339  61.578  1.00  0.00    -0.240 N 
HETATM    5  N   UNL     1       5.245  34.232  60.392  1.00  0.00    -0.165 NA
HETATM    6  C   UNL     1       5.441  32.900  60.258  1.00  0.00     0.148 A 
HETATM    7  C   UNL     1       4.853  32.181  61.334  1.00  0.00     0.089 A 
HETATM    8  C   UNL     1       4.274  35.626  62.151  1.00  0.00     0.221 C 
HETATM    9  C   UNL     1       3.189  35.475  63.235  1.00  0.00     0.066 C 
HETATM   10  H   UNL     1       3.552  32.160  63.803  1.00  0.00     0.161 HD
ENDROOT
BRANCH   6  11
HETATM   11  C   UNL     1       6.182  32.322  59.121  1.00  0.00     0.276 C 
HETATM   12  N   UNL     1       7.108  31.384  59.532  1.00  0.00    -0.322 N 
HETATM   13  H   UNL     1       7.155  31.275  60.542  1.00  0.00     0.169 HD
HETATM   14  O   UNL     1       5.958  32.675  57.969  1.00  0.00    -0.266 OA
BRANCH  12  15
HETATM   15  C   UNL     1       7.954  30.589  58.737  1.00  0.00     0.037 A 
HETATM   16  C   UNL     1       9.278  30.922  58.444  1.00  0.00     0.066 A 
HETATM   17  C   UNL     1      10.041  30.082  57.633  1.00  0.00     0.067 A 
HETATM   18  C   UNL     1       9.508  28.908  57.115  1.00  0.00     0.036 A 
HETATM   19  C   UNL     1       8.190  28.568  57.405  1.00  0.00     0.005 A 
HETATM   20  C   UNL     1       7.414  29.409  58.209  1.00  0.00     0.029 A 
BRANCH  17  21
HETATM   21  O   UNL     1      11.332  30.387  57.316  1.00  0.00    -0.361 OA
HETATM   22  H   UNL     1      11.917  29.795  57.819  1.00  0.00     0.217 HD
ENDBRANCH  17  21
ENDBRANCH  12  15
ENDBRANCH   6  11
BRANCH   8  23
HETATM   23  C   UNL     1       5.521  36.335  62.630  1.00  0.00     0.409 C 
HETATM   24  F   UNL     1       6.036  37.202  61.740  1.00  0.00    -0.169 F 
HETATM   25  F   UNL     1       5.299  37.020  63.777  1.00  0.00    -0.169 F 
HETATM   26  F   UNL     1       6.492  35.429  62.918  1.00  0.00    -0.169 F 
ENDBRANCH   8  23
BRANCH   1  27
HETATM   27  C   UNL     1       4.258  34.373  65.313  1.00  0.00    -0.035 A 
HETATM   28  C   UNL     1       3.959  35.175  66.425  1.00  0.00     0.010 A 
HETATM   29  C   UNL     1       4.860  35.304  67.486  1.00  0.00     0.007 A 
HETATM   30  C   UNL     1       6.090  34.644  67.457  1.00  0.00    -0.062 A 
HETATM   31  C   UNL     1       7.067  34.784  68.587  1.00  0.00     0.048 C 
HETATM   32  C   UNL     1       6.402  33.846  66.354  1.00  0.00     0.007 A 
HETATM   33  C   UNL     1       5.497  33.711  65.296  1.00  0.00     0.010 A 
ENDBRANCH   1  27
TORSDOF 5
ENDMDL
MODEL 3
REMARK VINA RESULT:      -9.0      2.669      4.002
REMARK  5 active torsions:
REMARK  status: ('A' for Active; 'I' for Inactive)
REMARK    1  A    between atoms: C_5  and  C_6 
REMARK    2  A    between atoms: C_11  and  C_12 
REMARK       I    between atoms: C_12  and  N_13 
REMARK    3  A    between atoms: N_13  and  C_14 
REMARK    4  A    between atoms: C_16  and  O_17 
REMARK    5  A    between atoms: C_23  and  C_24 
ROOT
HETATM    1  C   UNL     1       4.757  28.493  48.339  1.00  0.00     0.118 C 
HETATM    2  N   UNL     1       5.316  27.274  48.913  1.00  0.00    -0.366 N 
HETATM    3  C   UNL     1       5.369  27.068  50.246  1.00  0.00     0.123 A 
HETATM    4  N   UNL     1       5.071  28.056  51.142  1.00  0.00    -0.240 N 
HETATM    5  N   UNL     1       5.242  27.693  52.429  1.00  0.00    -0.165 NA
HETATM    6  C   UNL     1       5.571  26.382  52.345  1.00  0.00     0.148 A 
HETATM    7  C   UNL     1       5.678  25.963  50.991  1.00  0.00     0.089 A 
HETATM    8  C   UNL     1       4.635  29.389  50.774  1.00  0.00     0.221 C 
HETATM    9  C   UNL     1       4.955  29.683  49.296  1.00  0.00     0.066 C 
HETATM   10  H   UNL     1       5.387  26.490  48.266  1.00  0.00     0.161 HD
ENDROOT
BRANCH   6  11
HETATM   11  C   UNL     1       5.774  25.543  53.540  1.00  0.00     0.276 C 
HETATM   12  N   UNL     1       6.782  24.618  53.356  1.00  0.00    -0.322 N 
HETATM   13  H   UNL     1       7.188  24.640  52.423  1.00  0.00     0.169 HD
HETATM   14  O   UNL     1       5.095  25.696  54.549  1.00  0.00    -0.266 OA
BRANCH  12  15
HETATM   15  C   UNL     1       7.295  23.692  54.282  1.00  0.00     0.037 A 
HETATM   16  C   UNL     1       7.571  24.003  55.616  1.00  0.00     0.066 A 
HETATM   17  C   UNL     1       8.093  23.025  56.462  1.00  0.00     0.067 A 
HETATM   18  C   UNL     1       8.338  21.736  56.003  1.00  0.00     0.036 A 
HETATM   19  C   UNL     1       8.063  21.419  54.676  1.00  0.00     0.005 A 
HETATM   20  C   UNL     1       7.548  22.395  53.818  1.00  0.00     0.029 A 
BRANCH  17  21
HETATM   21  O   UNL     1       8.387  23.300  57.765  1.00  0.00    -0.361 OA
HETATM   22  H   UNL     1       8.653  24.234  57.827  1.00  0.00     0.217 HD
ENDBRANCH  17  21
ENDBRANCH  12  15
ENDBRANCH   6  11
BRANCH   8  23
HETATM   23  C   UNL     1       3.179  29.584  51.135  1.00  0.00     0.409 C 
HETATM   24  F   UNL     1       2.972  29.923  52.420  1.00  0.00    -0.169 F 
HETATM   25  F   UNL     1       2.596  30.536  50.367  1.00  0.00    -0.169 F 
HETATM   26  F   UNL     1       2.483  28.440  50.903  1.00  0.00    -0.169 F 
ENDBRANCH   8  23
BRANCH   1  27
HETATM   27  C   UNL     1       3.342  28.304  47.821  1.00  0.00    -0.035 A 
HETATM   28  C   UNL     1       2.668  27.074  47.862  1.00  0.00     0.010 A 
HETATM   29  C   UNL     1       1.375  26.941  47.347  1.00  0.00     0.007 A 
HETATM   30  C   UNL     1       0.726  28.032  46.766  1.00  0.00    -0.062 A 
HETATM   31  C   UNL     1      -0.657  27.897  46.203  1.00  0.00     0.048 C 
HETATM   32  C   UNL     1       1.387  29.262  46.716  1.00  0.00     0.007 A 
HETATM   33  C   UNL     1       2.678  29.397  47.238  1.00  0.00     0.010 A 
ENDBRANCH   1  27
TORSDOF 5
ENDMDL
MODEL 4
REMARK VINA RESULT:      -9.0     11.967     13.191
REMARK  5 active torsions:
REMARK  status: ('A' for Active; 'I' for Inactive)
REMARK    1  A    between atoms: C_5  and  C_6 
REMARK    2  A    between atoms: C_11  and  C_12 
REMARK       I    between atoms: C_12  and  N_13 
REMARK    3  A    between atoms: N_13  and  C_14 
REMARK    4  A    between atoms: C_16  and  O_17 
REMARK    5  A    between atoms: C_23  and  C_24 
ROOT
HETATM    1  C   UNL     1       5.552  34.833  64.659  1.00  0.00     0.118 C 
HETATM    2  N   UNL     1       6.886  34.358  64.310  1.00  0.00    -0.366 N 
HETATM    3  C   UNL     1       7.080  33.284  63.516  1.00  0.00     0.123 A 
HETATM    4  N   UNL     1       6.050  32.468  63.140  1.00  0.00    -0.240 N 
HETATM    5  N   UNL     1       6.437  31.407  62.406  1.00  0.00    -0.165 NA
HETATM    6  C   UNL     1       7.762  31.614  62.226  1.00  0.00     0.148 A 
HETATM    7  C   UNL     1       8.202  32.771  62.925  1.00  0.00     0.089 A 
HETATM    8  C   UNL     1       4.663  32.682  63.505  1.00  0.00     0.221 C 
HETATM    9  C   UNL     1       4.552  33.663  64.689  1.00  0.00     0.066 C 
HETATM   10  H   UNL     1       7.633  35.039  64.449  1.00  0.00     0.161 HD
ENDROOT
BRANCH   6  11
HETATM   11  C   UNL     1       8.594  30.724  61.396  1.00  0.00     0.276 C 
HETATM   12  N   UNL     1       8.287  30.833  60.054  1.00  0.00    -0.322 N 
HETATM   13  H   UNL     1       7.518  31.473  59.864  1.00  0.00     0.169 HD
HETATM   14  O   UNL     1       9.443  29.994  61.896  1.00  0.00    -0.266 OA
BRANCH  12  15
HETATM   15  C   UNL     1       8.900  30.189  58.964  1.00  0.00     0.037 A 
HETATM   16  C   UNL     1      10.215  30.433  58.561  1.00  0.00     0.066 A 
HETATM   17  C   UNL     1      10.738  29.759  57.458  1.00  0.00     0.067 A 
HETATM   18  C   UNL     1       9.974  28.838  56.752  1.00  0.00     0.036 A 
HETATM   19  C   UNL     1       8.663  28.588  57.149  1.00  0.00     0.005 A 
HETATM   20  C   UNL     1       8.127  29.266  58.248  1.00  0.00     0.029 A 
BRANCH  17  21
HETATM   21  O   UNL     1      12.013  29.986  57.030  1.00  0.00    -0.361 OA
HETATM   22  H   UNL     1      12.006  30.763  56.446  1.00  0.00     0.217 HD
ENDBRANCH  17  21
ENDBRANCH  12  15
ENDBRANCH   6  11
BRANCH   8  23
HETATM   23  C   UNL     1       3.858  33.093  62.293  1.00  0.00     0.409 C 
HETATM   24  F   UNL     1       2.704  33.719  62.587  1.00  0.00    -0.169 F 
HETATM   25  F   UNL     1       4.565  33.912  61.477  1.00  0.00    -0.169 F 
HETATM   26  F   UNL     1       3.545  32.002  61.547  1.00  0.00    -0.169 F 
ENDBRANCH   8  23
BRANCH   1  27
HETATM   27  C   UNL     1       5.121  36.035  63.839  1.00  0.00    -0.035 A 
HETATM   28  C   UNL     1       3.778  36.401  63.662  1.00  0.00     0.010 A 
HETATM   29  C   UNL     1       3.426  37.501  62.873  1.00  0.00     0.007 A 
HETATM   30  C   UNL     1       4.409  38.257  62.231  1.00  0.00    -0.062 A 
HETATM   31  C   UNL     1       4.040  39.433  61.376  1.00  0.00     0.048 C 
HETATM   32  C   UNL     1       5.749  37.902  62.396  1.00  0.00     0.007 A 
HETATM   33  C   UNL     1       6.101  36.806  63.191  1.00  0.00     0.010 A 
ENDBRANCH   1  27
TORSDOF 5
ENDMDL
MODEL 5
REMARK VINA RESULT:      -8.9      4.927      8.228
REMARK  5 active torsions:
REMARK  status: ('A' for Active; 'I' for Inactive)
REMARK    1  A    between atoms: C_5  and  C_6 
REMARK    2  A    between atoms: C_11  and  C_12 
REMARK       I    between atoms: C_12  and  N_13 
REMARK    3  A    between atoms: N_13  and  C_14 
REMARK    4  A    between atoms: C_16  and  O_17 
REMARK    5  A    between atoms: C_23  and  C_24 
ROOT
HETATM    1  C   UNL     1       7.195  27.040  56.445  1.00  0.00     0.118 C 
HETATM    2  N   UNL     1       7.443  26.785  55.030  1.00  0.00    -0.366 N 
HETATM    3  C   UNL     1       6.571  27.159  54.071  1.00  0.00     0.123 A 
HETATM    4  N   UNL     1       5.325  27.634  54.372  1.00  0.00    -0.240 N 
HETATM    5  N   UNL     1       4.565  27.893  53.289  1.00  0.00    -0.165 NA
HETATM    6  C   UNL     1       5.406  27.665  52.253  1.00  0.00     0.148 A 
HETATM    7  C   UNL     1       6.664  27.185  52.706  1.00  0.00     0.089 A 
HETATM    8  C   UNL     1       4.827  27.825  55.720  1.00  0.00     0.221 C 
HETATM    9  C   UNL     1       5.683  27.046  56.737  1.00  0.00     0.066 C 
HETATM   10  H   UNL     1       8.415  26.586  54.796  1.00  0.00     0.161 HD
ENDROOT
BRANCH   6  11
HETATM   11  C   UNL     1       5.014  27.906  50.852  1.00  0.00     0.276 C 
HETATM   12  N   UNL     1       3.878  27.202  50.506  1.00  0.00    -0.322 N 
HETATM   13  H   UNL     1       3.525  26.608  51.252  1.00  0.00     0.169 HD
HETATM   14  O   UNL     1       5.661  28.655  50.129  1.00  0.00    -0.266 OA
BRANCH  12  15
HETATM   15  C   UNL     1       3.179  27.222  49.285  1.00  0.00     0.037 A 
HETATM   16  C   UNL     1       3.315  26.241  48.300  1.00  0.00     0.066 A 
HETATM   17  C   UNL     1       2.595  26.348  47.111  1.00  0.00     0.067 A 
HETATM   18  C   UNL     1       1.733  27.415  46.888  1.00  0.00     0.036 A 
HETATM   19  C   UNL     1       1.590  28.395  47.866  1.00  0.00     0.005 A 
HETATM   20  C   UNL     1       2.316  28.301  49.058  1.00  0.00     0.029 A 
BRANCH  17  21
HETATM   21  O   UNL     1       2.716  25.414  46.123  1.00  0.00    -0.361 OA
HETATM   22  H   UNL     1       2.896  25.877  45.287  1.00  0.00     0.217 HD
ENDBRANCH  17  21
ENDBRANCH  12  15
ENDBRANCH   6  11
BRANCH   8  23
HETATM   23  C   UNL     1       4.701  29.300  56.030  1.00  0.00     0.409 C 
HETATM   24  F   UNL     1       5.715  30.048  55.560  1.00  0.00    -0.169 F 
HETATM   25  F   UNL     1       3.553  29.820  55.533  1.00  0.00    -0.169 F 
HETATM   26  F   UNL     1       4.647  29.492  57.373  1.00  0.00    -0.169 F 
ENDBRANCH   8  23
BRANCH   1  27
HETATM   27  C   UNL     1       7.962  28.240  56.971  1.00  0.00    -0.035 A 
HETATM   28  C   UNL     1       9.060  28.802  56.301  1.00  0.00     0.010 A 
HETATM   29  C   UNL     1       9.755  29.890  56.838  1.00  0.00     0.007 A 
HETATM   30  C   UNL     1       9.376  30.438  58.066  1.00  0.00    -0.062 A 
HETATM   31  C   UNL     1      10.121  31.600  58.654  1.00  0.00     0.048 C 
HETATM   32  C   UNL     1       8.287  29.886  58.744  1.00  0.00     0.007 A 
HETATM   33  C   UNL     1       7.588  28.802  58.204  1.00  0.00     0.010 A 
ENDBRANCH   1  27
TORSDOF 5
ENDMDL
MODEL 6
REMARK VINA RESULT:      -8.9      3.360      9.197
REMARK  5 active torsions:
REMARK  status: ('A' for Active; 'I' for Inactive)
REMARK    1  A    between atoms: C_5  and  C_6 
REMARK    2  A    between atoms: C_11  and  C_12 
REMARK       I    between atoms: C_12  and  N_13 
REMARK    3  A    between atoms: N_13  and  C_14 
REMARK    4  A    between atoms: C_16  and  O_17 
REMARK    5  A    between atoms: C_23  and  C_24 
ROOT
HETATM    1  C   UNL     1       5.124  25.397  54.140  1.00  0.00     0.118 C 
HETATM    2  N   UNL     1       4.652  25.649  52.783  1.00  0.00    -0.366 N 
HETATM    3  C   UNL     1       5.023  26.744  52.087  1.00  0.00     0.123 A 
HETATM    4  N   UNL     1       5.714  27.770  52.669  1.00  0.00    -0.240 N 
HETATM    5  N   UNL     1       5.940  28.811  51.843  1.00  0.00    -0.165 NA
HETATM    6  C   UNL     1       5.455  28.380  50.654  1.00  0.00     0.148 A 
HETATM    7  C   UNL     1       4.856  27.098  50.776  1.00  0.00     0.089 A 
HETATM    8  C   UNL     1       6.151  27.781  54.051  1.00  0.00     0.221 C 
HETATM    9  C   UNL     1       5.393  26.723  54.875  1.00  0.00     0.066 C 
HETATM   10  H   UNL     1       4.281  24.831  52.301  1.00  0.00     0.161 HD
ENDROOT
BRANCH   6  11
HETATM   11  C   UNL     1       5.568  29.181  49.421  1.00  0.00     0.276 C 
HETATM   12  N   UNL     1       5.397  30.529  49.663  1.00  0.00    -0.322 N 
HETATM   13  H   UNL     1       5.184  30.743  50.635  1.00  0.00     0.169 HD
HETATM   14  O   UNL     1       5.787  28.653  48.336  1.00  0.00    -0.266 OA
BRANCH  12  15
HETATM   15  C   UNL     1       5.489  31.597  48.752  1.00  0.00     0.037 A 
HETATM   16  C   UNL     1       4.644  31.748  47.650  1.00  0.00     0.066 A 
HETATM   17  C   UNL     1       4.817  32.831  46.788  1.00  0.00     0.067 A 
HETATM   18  C   UNL     1       5.816  33.771  47.009  1.00  0.00     0.036 A 
HETATM   19  C   UNL     1       6.660  33.628  48.106  1.00  0.00     0.005 A 
HETATM   20  C   UNL     1       6.500  32.541  48.971  1.00  0.00     0.029 A 
BRANCH  17  21
HETATM   21  O   UNL     1       4.018  32.999  45.695  1.00  0.00    -0.361 OA
HETATM   22  H   UNL     1       3.125  32.685  45.919  1.00  0.00     0.217 HD
ENDBRANCH  17  21
ENDBRANCH  12  15
ENDBRANCH   6  11
BRANCH   8  23
HETATM   23  C   UNL     1       7.656  27.651  54.127  1.00  0.00     0.409 C 
HETATM   24  F   UNL     1       8.314  28.820  54.019  1.00  0.00    -0.169 F 
HETATM   25  F   UNL     1       8.051  27.072  55.286  1.00  0.00    -0.169 F 
HETATM   26  F   UNL     1       8.106  26.842  53.133  1.00  0.00    -0.169 F 
ENDBRANCH   8  23
BRANCH   1  27
HETATM   27  C   UNL     1       6.254  24.385  54.193  1.00  0.00    -0.035 A 
HETATM   28  C   UNL     1       6.797  23.782  53.048  1.00  0.00     0.010 A 
HETATM   29  C   UNL     1       7.819  22.833  53.146  1.00  0.00     0.007 A 
HETATM   30  C   UNL     1       8.316  22.452  54.394  1.00  0.00    -0.062 A 
HETATM   31  C   UNL     1       9.406  21.428  54.510  1.00  0.00     0.048 C 
HETATM   32  C   UNL     1       7.782  23.042  55.542  1.00  0.00     0.007 A 
HETATM   33  C   UNL     1       6.764  23.996  55.443  1.00  0.00     0.010 A 
ENDBRANCH   1  27
TORSDOF 5
ENDMDL
MODEL 7
REMARK VINA RESULT:      -8.3      9.185     10.862
REMARK  5 active torsions:
REMARK  status: ('A' for Active; 'I' for Inactive)
REMARK    1  A    between atoms: C_5  and  C_6 
REMARK    2  A    between atoms: C_11  and  C_12 
REMARK       I    between atoms: C_12  and  N_13 
REMARK    3  A    between atoms: N_13  and  C_14 
REMARK    4  A    between atoms: C_16  and  O_17 
REMARK    5  A    between atoms: C_23  and  C_24 
ROOT
HETATM    1  C   UNL     1       7.332  33.072  60.108  1.00  0.00     0.118 C 
HETATM    2  N   UNL     1       6.700  32.222  59.105  1.00  0.00    -0.366 N 
HETATM    3  C   UNL     1       7.125  30.965  58.860  1.00  0.00     0.123 A 
HETATM    4  N   UNL     1       8.280  30.475  59.400  1.00  0.00    -0.240 N 
HETATM    5  N   UNL     1       8.585  29.227  58.992  1.00  0.00    -0.165 NA
HETATM    6  C   UNL     1       7.520  28.874  58.235  1.00  0.00     0.148 A 
HETATM    7  C   UNL     1       6.596  29.947  58.114  1.00  0.00     0.089 A 
HETATM    8  C   UNL     1       9.136  31.213  60.308  1.00  0.00     0.221 C 
HETATM    9  C   UNL     1       8.825  32.722  60.251  1.00  0.00     0.066 C 
HETATM   10  H   UNL     1       5.764  32.515  58.825  1.00  0.00     0.161 HD
ENDROOT
BRANCH   6  11
HETATM   11  C   UNL     1       7.386  27.532  57.639  1.00  0.00     0.276 C 
HETATM   12  N   UNL     1       6.869  27.584  56.360  1.00  0.00    -0.322 N 
HETATM   13  H   UNL     1       6.630  28.526  56.057  1.00  0.00     0.169 HD
HETATM   14  O   UNL     1       7.712  26.525  58.258  1.00  0.00    -0.266 OA
BRANCH  12  15
HETATM   15  C   UNL     1       6.652  26.521  55.464  1.00  0.00     0.037 A 
HETATM   16  C   UNL     1       5.446  26.310  54.792  1.00  0.00     0.066 A 
HETATM   17  C   UNL     1       5.313  25.220  53.933  1.00  0.00     0.067 A 
HETATM   18  C   UNL     1       6.367  24.338  53.725  1.00  0.00     0.036 A 
HETATM   19  C   UNL     1       7.572  24.544  54.390  1.00  0.00     0.005 A 
HETATM   20  C   UNL     1       7.712  25.629  55.260  1.00  0.00     0.029 A 
BRANCH  17  21
HETATM   21  O   UNL     1       4.144  24.977  53.273  1.00  0.00    -0.361 OA
HETATM   22  H   UNL     1       3.646  24.307  53.770  1.00  0.00     0.217 HD
ENDBRANCH  17  21
ENDBRANCH  12  15
ENDBRANCH   6  11
BRANCH   8  23
HETATM   23  C   UNL     1       9.058  30.626  61.699  1.00  0.00     0.409 C 
HETATM   24  F   UNL     1       7.843  30.152  62.027  1.00  0.00    -0.169 F 
HETATM   25  F   UNL     1       9.943  29.614  61.866  1.00  0.00    -0.169 F 
HETATM   26  F   UNL     1       9.387  31.566  62.623  1.00  0.00    -0.169 F 
ENDBRANCH   8  23
BRANCH   1  27
HETATM   27  C   UNL     1       6.552  33.130  61.408  1.00  0.00    -0.035 A 
HETATM   28  C   UNL     1       5.216  32.715  61.520  1.00  0.00     0.010 A 
HETATM   29  C   UNL     1       4.527  32.814  62.733  1.00  0.00     0.007 A 
HETATM   30  C   UNL     1       5.153  33.343  63.864  1.00  0.00    -0.062 A 
HETATM   31  C   UNL     1       4.419  33.461  65.166  1.00  0.00     0.048 C 
HETATM   32  C   UNL     1       6.481  33.763  63.765  1.00  0.00     0.007 A 
HETATM   33  C   UNL     1       7.172  33.658  62.554  1.00  0.00     0.010 A 
ENDBRANCH   1  27
TORSDOF 5
ENDMDL
MODEL 8
REMARK VINA RESULT:      -8.0      4.956      7.928
REMARK  5 active torsions:
REMARK  status: ('A' for Active; 'I' for Inactive)
REMARK    1  A    between atoms: C_5  and  C_6 
REMARK    2  A    between atoms: C_11  and  C_12 
REMARK       I    between atoms: C_12  and  N_13 
REMARK    3  A    between atoms: N_13  and  C_14 
REMARK    4  A    between atoms: C_16  and  O_17 
REMARK    5  A    between atoms: C_23  and  C_24 
ROOT
HETATM    1  C   UNL     1       8.099  28.601  55.863  1.00  0.00     0.118 C 
HETATM    2  N   UNL     1       7.823  28.653  54.432  1.00  0.00    -0.366 N 
HETATM    3  C   UNL     1       6.990  27.778  53.829  1.00  0.00     0.123 A 
HETATM    4  N   UNL     1       6.497  26.684  54.483  1.00  0.00    -0.240 N 
HETATM    5  N   UNL     1       5.737  25.885  53.708  1.00  0.00    -0.165 NA
HETATM    6  C   UNL     1       5.666  26.558  52.535  1.00  0.00     0.148 A 
HETATM    7  C   UNL     1       6.457  27.739  52.570  1.00  0.00     0.089 A 
HETATM    8  C   UNL     1       6.770  26.369  55.871  1.00  0.00     0.221 C 
HETATM    9  C   UNL     1       7.993  27.155  56.383  1.00  0.00     0.066 C 
HETATM   10  H   UNL     1       8.053  29.540  53.984  1.00  0.00     0.161 HD
ENDROOT
BRANCH   6  11
HETATM   11  C   UNL     1       4.853  26.082  51.401  1.00  0.00     0.276 C 
HETATM   12  N   UNL     1       4.431  27.122  50.596  1.00  0.00    -0.322 N 
HETATM   13  H   UNL     1       4.713  28.038  50.936  1.00  0.00     0.169 HD
HETATM   14  O   UNL     1       4.613  24.890  51.245  1.00  0.00    -0.266 OA
BRANCH  12  15
HETATM   15  C   UNL     1       3.690  27.054  49.403  1.00  0.00     0.037 A 
HETATM   16  C   UNL     1       3.704  25.952  48.545  1.00  0.00     0.066 A 
HETATM   17  C   UNL     1       2.949  25.977  47.372  1.00  0.00     0.067 A 
HETATM   18  C   UNL     1       2.173  27.081  47.042  1.00  0.00     0.036 A 
HETATM   19  C   UNL     1       2.153  28.182  47.893  1.00  0.00     0.005 A 
HETATM   20  C   UNL     1       2.913  28.170  49.067  1.00  0.00     0.029 A 
BRANCH  17  21
HETATM   21  O   UNL     1       2.953  24.922  46.506  1.00  0.00    -0.361 OA
HETATM   22  H   UNL     1       3.012  25.271  45.601  1.00  0.00     0.217 HD
ENDBRANCH  17  21
ENDBRANCH  12  15
ENDBRANCH   6  11
BRANCH   8  23
HETATM   23  C   UNL     1       5.525  26.562  56.708  1.00  0.00     0.409 C 
HETATM   24  F   UNL     1       4.909  25.416  57.048  1.00  0.00    -0.169 F 
HETATM   25  F   UNL     1       5.792  27.232  57.855  1.00  0.00    -0.169 F 
HETATM   26  F   UNL     1       4.622  27.320  56.035  1.00  0.00    -0.169 F 
ENDBRANCH   8  23
BRANCH   1  27
HETATM   27  C   UNL     1       7.315  29.634  56.652  1.00  0.00    -0.035 A 
HETATM   28  C   UNL     1       6.123  30.211  56.187  1.00  0.00     0.010 A 
HETATM   29  C   UNL     1       5.449  31.180  56.936  1.00  0.00     0.007 A 
HETATM   30  C   UNL     1       5.956  31.608  58.165  1.00  0.00    -0.062 A 
HETATM   31  C   UNL     1       5.245  32.653  58.971  1.00  0.00     0.048 C 
HETATM   32  C   UNL     1       7.144  31.044  58.638  1.00  0.00     0.007 A 
HETATM   33  C   UNL     1       7.814  30.069  57.891  1.00  0.00     0.010 A 
ENDBRANCH   1  27
TORSDOF 5
ENDMDL
MODEL 9
REMARK VINA RESULT:      -7.6     11.053     12.346
REMARK  5 active torsions:
REMARK  status: ('A' for Active; 'I' for Inactive)
REMARK    1  A    between atoms: C_5  and  C_6 
REMARK    2  A    between atoms: C_11  and  C_12 
REMARK       I    between atoms: C_12  and  N_13 
REMARK    3  A    between atoms: N_13  and  C_14 
REMARK    4  A    between atoms: C_16  and  O_17 
REMARK    5  A    between atoms: C_23  and  C_24 
ROOT
HETATM    1  C   UNL     1       5.572  34.187  63.453  1.00  0.00     0.118 C 
HETATM    2  N   UNL     1       6.440  33.523  62.487  1.00  0.00    -0.366 N 
HETATM    3  C   UNL     1       5.960  32.964  61.357  1.00  0.00     0.123 A 
HETATM    4  N   UNL     1       4.619  32.824  61.134  1.00  0.00    -0.240 N 
HETATM    5  N   UNL     1       4.322  32.183  59.986  1.00  0.00    -0.165 NA
HETATM    6  C   UNL     1       5.532  31.996  59.408  1.00  0.00     0.148 A 
HETATM    7  C   UNL     1       6.581  32.455  60.249  1.00  0.00     0.089 A 
HETATM    8  C   UNL     1       3.586  33.285  62.042  1.00  0.00     0.221 C 
HETATM    9  C   UNL     1       4.168  33.555  63.443  1.00  0.00     0.066 C 
HETATM   10  H   UNL     1       7.429  33.762  62.565  1.00  0.00     0.161 HD
ENDROOT
BRANCH   6  11
HETATM   11  C   UNL     1       5.682  31.391  58.072  1.00  0.00     0.276 C 
HETATM   12  N   UNL     1       6.108  30.080  58.143  1.00  0.00    -0.322 N 
HETATM   13  H   UNL     1       6.287  29.763  59.093  1.00  0.00     0.169 HD
HETATM   14  O   UNL     1       5.440  32.030  57.053  1.00  0.00    -0.266 OA
BRANCH  12  15
HETATM   15  C   UNL     1       6.309  29.171  57.088  1.00  0.00     0.037 A 
HETATM   16  C   UNL     1       5.451  28.104  56.814  1.00  0.00     0.066 A 
HETATM   17  C   UNL     1       5.736  27.240  55.756  1.00  0.00     0.067 A 
HETATM   18  C   UNL     1       6.860  27.427  54.961  1.00  0.00     0.036 A 
HETATM   19  C   UNL     1       7.718  28.490  55.227  1.00  0.00     0.005 A 
HETATM   20  C   UNL     1       7.445  29.355  56.291  1.00  0.00     0.029 A 
BRANCH  17  21
HETATM   21  O   UNL     1       4.926  26.180  55.471  1.00  0.00    -0.361 OA
HETATM   22  H   UNL     1       4.352  26.019  56.239  1.00  0.00     0.217 HD
ENDBRANCH  17  21
ENDBRANCH  12  15
ENDBRANCH   6  11
BRANCH   8  23
HETATM   23  C   UNL     1       2.854  34.467  61.447  1.00  0.00     0.409 C 
HETATM   24  F   UNL     1       2.452  35.376  62.353  1.00  0.00    -0.169 F 
HETATM   25  F   UNL     1       3.612  35.117  60.531  1.00  0.00    -0.169 F 
HETATM   26  F   UNL     1       1.747  34.044  60.782  1.00  0.00    -0.169 F 
ENDBRANCH   8  23
BRANCH   1  27
HETATM   27  C   UNL     1       5.604  35.700  63.332  1.00  0.00    -0.035 A 
HETATM   28  C   UNL     1       6.068  36.368  62.189  1.00  0.00     0.010 A 
HETATM   29  C   UNL     1       6.106  37.765  62.134  1.00  0.00     0.007 A 
HETATM   30  C   UNL     1       5.692  38.530  63.226  1.00  0.00    -0.062 A 
HETATM   31  C   UNL     1       5.737  40.028  63.178  1.00  0.00     0.048 C 
HETATM   32  C   UNL     1       5.231  37.877  64.371  1.00  0.00     0.007 A 
HETATM   33  C   UNL     1       5.187  36.480  64.424  1.00  0.00     0.010 A 
ENDBRANCH   1  27
TORSDOF 5
ENDMDL
MODEL 10
REMARK VINA RESULT:      -7.0      3.898      9.304
REMARK  5 active torsions:
REMARK  status: ('A' for Active; 'I' for Inactive)
REMARK    1  A    between atoms: C_5  and  C_6 
REMARK    2  A    between atoms: C_11  and  C_12 
REMARK       I    between atoms: C_12  and  N_13 
REMARK    3  A    between atoms: N_13  and  C_14 
REMARK    4  A    between atoms: C_16  and  O_17 
REMARK    5  A    between atoms: C_23  and  C_24 
ROOT
HETATM    1  C   UNL     1       4.354  26.339  52.314  1.00  0.00     0.118 C 
HETATM    2  N   UNL     1       4.495  27.132  51.098  1.00  0.00    -0.366 N 
HETATM    3  C   UNL     1       4.769  28.453  51.131  1.00  0.00     0.123 A 
HETATM    4  N   UNL     1       4.753  29.164  52.298  1.00  0.00    -0.240 N 
HETATM    5  N   UNL     1       4.983  30.482  52.135  1.00  0.00    -0.165 NA
HETATM    6  C   UNL     1       5.254  30.593  50.813  1.00  0.00     0.148 A 
HETATM    7  C   UNL     1       5.110  29.344  50.151  1.00  0.00     0.089 A 
HETATM    8  C   UNL     1       4.489  28.590  53.603  1.00  0.00     0.221 C 
HETATM    9  C   UNL     1       3.822  27.207  53.468  1.00  0.00     0.066 C 
HETATM   10  H   UNL     1       4.666  26.590  50.251  1.00  0.00     0.161 HD
ENDROOT
BRANCH   6  11
HETATM   11  C   UNL     1       5.650  31.872  50.194  1.00  0.00     0.276 C 
HETATM   12  N   UNL     1       5.709  31.782  48.818  1.00  0.00    -0.322 N 
HETATM   13  H   UNL     1       5.512  30.849  48.462  1.00  0.00     0.169 HD
HETATM   14  O   UNL     1       5.886  32.863  50.875  1.00  0.00    -0.266 OA
BRANCH  12  15
HETATM   15  C   UNL     1       5.993  32.801  47.890  1.00  0.00     0.037 A 
HETATM   16  C   UNL     1       7.196  33.510  47.864  1.00  0.00     0.066 A 
HETATM   17  C   UNL     1       7.387  34.516  46.917  1.00  0.00     0.067 A 
HETATM   18  C   UNL     1       6.401  34.824  45.989  1.00  0.00     0.036 A 
HETATM   19  C   UNL     1       5.200  34.120  46.007  1.00  0.00     0.005 A 
HETATM   20  C   UNL     1       4.996  33.116  46.958  1.00  0.00     0.029 A 
BRANCH  17  21
HETATM   21  O   UNL     1       8.545  35.237  46.875  1.00  0.00    -0.361 OA
HETATM   22  H   UNL     1       9.292  34.616  46.922  1.00  0.00     0.217 HD
ENDBRANCH  17  21
ENDBRANCH  12  15
ENDBRANCH   6  11
BRANCH   8  23
HETATM   23  C   UNL     1       5.749  28.582  54.439  1.00  0.00     0.409 C 
HETATM   24  F   UNL     1       6.881  28.455  53.724  1.00  0.00    -0.169 F 
HETATM   25  F   UNL     1       5.864  29.710  55.181  1.00  0.00    -0.169 F 
HETATM   26  F   UNL     1       5.715  27.554  55.326  1.00  0.00    -0.169 F 
ENDBRANCH   8  23
BRANCH   1  27
HETATM   27  C   UNL     1       5.595  25.524  52.632  1.00  0.00    -0.035 A 
HETATM   28  C   UNL     1       6.744  25.529  51.826  1.00  0.00     0.010 A 
HETATM   29  C   UNL     1       7.854  24.740  52.144  1.00  0.00     0.007 A 
HETATM   30  C   UNL     1       7.839  23.915  53.271  1.00  0.00    -0.062 A 
HETATM   31  C   UNL     1       9.021  23.059  53.614  1.00  0.00     0.048 C 
HETATM   32  C   UNL     1       6.700  23.898  54.080  1.00  0.00     0.007 A 
HETATM   33  C   UNL     1       5.593  24.692  53.765  1.00  0.00     0.010 A 
ENDBRANCH   1  27
TORSDOF 5
ENDMDL
