MODEL 1
REMARK VINA RESULT:      -9.6      0.000      0.000
REMARK  4 active torsions:
REMARK  status: ('A' for Active; 'I' for Inactive)
REMARK    1  A    between atoms: O_2  and  C_3 
REMARK    2  A    between atoms: C_6  and  C_7 
REMARK    3  A    between atoms: C_12  and  N_13 
REMARK    4  A    between atoms: C_15  and  C_16 
ROOT
HETATM    1  C   UNL     1       7.804  27.767  55.250  1.00  0.00     0.135 C 
HETATM    2  N   UNL     1       7.176  28.544  54.186  1.00  0.00    -0.214 N 
HETATM    3  C   UNL     1       6.226  27.987  53.410  1.00  0.00     0.736 A 
HETATM    4  N   UNL     1       5.651  26.791  53.738  1.00  0.00    -0.074 N 
HETATM    5  N   UNL     1       4.704  26.437  52.853  1.00  0.00     0.037 NA
HETATM    6  C   UNL     1       4.762  27.465  52.010  1.00  0.00     0.753 A 
HETATM    7  N   UNL     1       5.696  28.418  52.296  1.00  0.00     0.131 NA
HETATM    8  C   UNL     1       6.027  25.985  54.890  1.00  0.00     0.164 C 
HETATM    9  C   UNL     1       6.758  26.857  55.925  1.00  0.00     0.063 C 
HETATM   10  H   UNL     1       7.734  29.293  53.782  1.00  0.00     0.178 HD
ENDROOT
BRANCH   1  11
HETATM   11  C   UNL     1       8.439  28.681  56.284  1.00  0.00    -0.035 A 
HETATM   12  C   UNL     1       9.623  29.388  56.025  1.00  0.00     0.012 A 
HETATM   13  C   UNL     1      10.155  30.260  56.978  1.00  0.00     0.037 A 
HETATM   14  C   UNL     1       9.507  30.465  58.196  1.00  0.00     0.068 A 
HETATM   15  C   UNL     1       8.332  29.766  58.467  1.00  0.00     0.037 A 
HETATM   16  C   UNL     1       7.803  28.882  57.518  1.00  0.00     0.012 A 
BRANCH  14  17
HETATM   17  O   UNL     1      10.120  31.359  59.028  1.00  0.00    -0.356 OA
HETATM   18  C   UNL     1       9.311  31.951  60.036  1.00  0.00     0.210 C 
ENDBRANCH  14  17
ENDBRANCH   1  11
BRANCH   8  19
HETATM   19  C   UNL     1       6.841  24.748  54.515  1.00  0.00    -0.031 A 
HETATM   20  C   UNL     1       7.090  23.693  55.411  1.00  0.00     0.028 A 
HETATM   21  C   UNL     1       7.822  22.576  55.003  1.00  0.00     0.011 A 
HETATM   22 BR   UNL     1       8.147  21.173  56.227  1.00  0.00    -0.051 Br
HETATM   23  C   UNL     1       8.313  22.485  53.704  1.00  0.00     0.019 A 
HETATM   24  C   UNL     1       8.070  23.518  52.803  1.00  0.00     0.002 A 
HETATM   25  C   UNL     1       7.339  24.639  53.204  1.00  0.00     0.009 A 
ENDBRANCH   8  19
BRANCH   6  26
HETATM   26  N   UNL     1       4.020  27.608  50.916  1.00  0.00    -0.229 N 
HETATM   27  H   UNL     1       3.548  26.784  50.573  1.00  0.00     0.174 HD
HETATM   28  H   UNL     1       4.379  28.225  50.200  1.00  0.00     0.174 HD
ENDBRANCH   6  26
TORSDOF 4
ENDMDL
MODEL 2
REMARK VINA RESULT:      -9.3      3.656      6.907
REMARK  4 active torsions:
REMARK  status: ('A' for Active; 'I' for Inactive)
REMARK    1  A    between atoms: O_2  and  C_3 
REMARK    2  A    between atoms: C_6  and  C_7 
REMARK    3  A    between atoms: C_12  and  N_13 
REMARK    4  A    between atoms: C_15  and  C_16 
ROOT
HETATM    1  C   UNL     1       7.214  26.352  55.342  1.00  0.00     0.135 C 
HETATM    2  N   UNL     1       5.807  26.478  55.709  1.00  0.00    -0.214 N 
HETATM    3  C   UNL     1       5.272  27.693  55.935  1.00  0.00     0.736 A 
HETATM    4  N   UNL     1       5.939  28.839  55.597  1.00  0.00    -0.074 N 
HETATM    5  N   UNL     1       5.213  29.935  55.872  1.00  0.00     0.037 NA
HETATM    6  C   UNL     1       4.116  29.379  56.383  1.00  0.00     0.753 A 
HETATM    7  N   UNL     1       4.122  28.017  56.466  1.00  0.00     0.131 NA
HETATM    8  C   UNL     1       7.278  28.873  55.027  1.00  0.00     0.164 C 
HETATM    9  C   UNL     1       7.621  27.508  54.406  1.00  0.00     0.063 C 
HETATM   10  H   UNL     1       5.390  25.684  56.190  1.00  0.00     0.178 HD
ENDROOT
BRANCH   1  11
HETATM   11  C   UNL     1       7.477  25.019  54.662  1.00  0.00    -0.035 A 
HETATM   12  C   UNL     1       7.413  23.803  55.359  1.00  0.00     0.012 A 
HETATM   13  C   UNL     1       7.610  22.590  54.695  1.00  0.00     0.037 A 
HETATM   14  C   UNL     1       7.851  22.561  53.321  1.00  0.00     0.068 A 
HETATM   15  C   UNL     1       7.921  23.763  52.618  1.00  0.00     0.037 A 
HETATM   16  C   UNL     1       7.735  24.981  53.283  1.00  0.00     0.012 A 
BRANCH  14  17
HETATM   17  O   UNL     1       8.004  21.311  52.791  1.00  0.00    -0.356 OA
HETATM   18  C   UNL     1       8.482  20.300  53.670  1.00  0.00     0.210 C 
ENDBRANCH  14  17
ENDBRANCH   1  11
BRANCH   8  19
HETATM   19  C   UNL     1       8.341  29.325  56.025  1.00  0.00    -0.031 A 
HETATM   20  C   UNL     1       8.044  29.689  57.352  1.00  0.00     0.028 A 
HETATM   21  C   UNL     1       9.064  30.072  58.225  1.00  0.00     0.011 A 
HETATM   22 BR   UNL     1       8.638  30.561  60.001  1.00  0.00    -0.051 Br
HETATM   23  C   UNL     1      10.390  30.096  57.803  1.00  0.00     0.019 A 
HETATM   24  C   UNL     1      10.701  29.733  56.495  1.00  0.00     0.002 A 
HETATM   25  C   UNL     1       9.687  29.349  55.615  1.00  0.00     0.009 A 
ENDBRANCH   8  19
BRANCH   6  26
HETATM   26  N   UNL     1       3.058  30.041  56.840  1.00  0.00    -0.229 N 
HETATM   27  H   UNL     1       2.164  29.574  56.776  1.00  0.00     0.174 HD
HETATM   28  H   UNL     1       3.035  31.036  56.667  1.00  0.00     0.174 HD
ENDBRANCH   6  26
TORSDOF 4
ENDMDL
MODEL 3
REMARK VINA RESULT:      -9.0      3.443      6.714
REMARK  4 active torsions:
REMARK  status: ('A' for Active; 'I' for Inactive)
REMARK    1  A    between atoms: O_2  and  C_3 
REMARK    2  A    between atoms: C_6  and  C_7 
REMARK    3  A    between atoms: C_12  and  N_13 
REMARK    4  A    between atoms: C_15  and  C_16 
ROOT
HETATM    1  C   UNL     1       6.660  25.615  54.560  1.00  0.00     0.135 C 
HETATM    2  N   UNL     1       5.348  25.809  53.953  1.00  0.00    -0.214 N 
HETATM    3  C   UNL     1       4.929  27.048  53.629  1.00  0.00     0.736 A 
HETATM    4  N   UNL     1       5.788  28.112  53.625  1.00  0.00    -0.074 N 
HETATM    5  N   UNL     1       5.176  29.243  53.237  1.00  0.00     0.037 NA
HETATM    6  C   UNL     1       3.941  28.791  53.027  1.00  0.00     0.753 A 
HETATM    7  N   UNL     1       3.740  27.466  53.281  1.00  0.00     0.131 NA
HETATM    8  C   UNL     1       7.189  28.039  54.012  1.00  0.00     0.164 C 
HETATM    9  C   UNL     1       7.682  26.584  53.932  1.00  0.00     0.063 C 
HETATM   10  H   UNL     1       4.637  25.116  54.174  1.00  0.00     0.178 HD
ENDROOT
BRANCH   1  11
HETATM   11  C   UNL     1       7.130  24.181  54.381  1.00  0.00    -0.035 A 
HETATM   12  C   UNL     1       7.232  23.291  55.460  1.00  0.00     0.012 A 
HETATM   13  C   UNL     1       7.619  21.964  55.256  1.00  0.00     0.037 A 
HETATM   14  C   UNL     1       7.887  21.490  53.972  1.00  0.00     0.068 A 
HETATM   15  C   UNL     1       7.794  22.365  52.891  1.00  0.00     0.037 A 
HETATM   16  C   UNL     1       7.418  23.699  53.094  1.00  0.00     0.012 A 
BRANCH  14  17
HETATM   17  O   UNL     1       8.234  20.170  53.908  1.00  0.00    -0.356 OA
HETATM   18  C   UNL     1       9.012  19.661  54.984  1.00  0.00     0.210 C 
ENDBRANCH  14  17
ENDBRANCH   1  11
BRANCH   8  19
HETATM   19  C   UNL     1       7.465  28.657  55.380  1.00  0.00    -0.031 A 
HETATM   20  C   UNL     1       8.724  29.162  55.755  1.00  0.00     0.028 A 
HETATM   21  C   UNL     1       8.909  29.737  57.014  1.00  0.00     0.011 A 
HETATM   22 BR   UNL     1      10.612  30.405  57.494  1.00  0.00    -0.051 Br
HETATM   23  C   UNL     1       7.854  29.825  57.917  1.00  0.00     0.019 A 
HETATM   24  C   UNL     1       6.601  29.335  57.560  1.00  0.00     0.002 A 
HETATM   25  C   UNL     1       6.407  28.758  56.302  1.00  0.00     0.009 A 
ENDBRANCH   8  19
BRANCH   6  26
HETATM   26  N   UNL     1       2.907  29.529  52.632  1.00  0.00    -0.229 N 
HETATM   27  H   UNL     1       2.962  30.522  52.805  1.00  0.00     0.174 HD
HETATM   28  H   UNL     1       1.989  29.123  52.749  1.00  0.00     0.174 HD
ENDBRANCH   6  26
TORSDOF 4
ENDMDL
MODEL 4
REMARK VINA RESULT:      -8.8      4.324      6.910
REMARK  4 active torsions:
REMARK  status: ('A' for Active; 'I' for Inactive)
REMARK    1  A    between atoms: O_2  and  C_3 
REMARK    2  A    between atoms: C_6  and  C_7 
REMARK    3  A    between atoms: C_12  and  N_13 
REMARK    4  A    between atoms: C_15  and  C_16 
ROOT
HETATM    1  C   UNL     1       6.737  25.539  53.499  1.00  0.00     0.135 C 
HETATM    2  N   UNL     1       7.087  26.459  54.576  1.00  0.00    -0.214 N 
HETATM    3  C   UNL     1       6.423  27.624  54.714  1.00  0.00     0.736 A 
HETATM    4  N   UNL     1       5.267  27.870  54.026  1.00  0.00    -0.074 N 
HETATM    5  N   UNL     1       4.751  29.071  54.338  1.00  0.00     0.037 NA
HETATM    6  C   UNL     1       5.652  29.502  55.218  1.00  0.00     0.753 A 
HETATM    7  N   UNL     1       6.702  28.664  55.455  1.00  0.00     0.131 NA
HETATM    8  C   UNL     1       4.674  26.958  53.060  1.00  0.00     0.164 C 
HETATM    9  C   UNL     1       5.210  25.533  53.285  1.00  0.00     0.063 C 
HETATM   10  H   UNL     1       8.046  26.423  54.911  1.00  0.00     0.178 HD
ENDROOT
BRANCH   1  11
HETATM   11  C   UNL     1       7.220  24.133  53.812  1.00  0.00    -0.035 A 
HETATM   12  C   UNL     1       7.215  23.618  55.117  1.00  0.00     0.012 A 
HETATM   13  C   UNL     1       7.618  22.303  55.367  1.00  0.00     0.037 A 
HETATM   14  C   UNL     1       8.010  21.469  54.320  1.00  0.00     0.068 A 
HETATM   15  C   UNL     1       8.024  21.969  53.019  1.00  0.00     0.037 A 
HETATM   16  C   UNL     1       7.631  23.290  52.768  1.00  0.00     0.012 A 
BRANCH  14  17
HETATM   17  O   UNL     1       8.359  20.202  54.697  1.00  0.00    -0.356 OA
HETATM   18  C   UNL     1       8.721  20.018  56.060  1.00  0.00     0.210 C 
ENDBRANCH  14  17
ENDBRANCH   1  11
BRANCH   8  19
HETATM   19  C   UNL     1       4.862  27.412  51.614  1.00  0.00    -0.031 A 
HETATM   20  C   UNL     1       5.190  28.734  51.261  1.00  0.00     0.028 A 
HETATM   21  C   UNL     1       5.371  29.084  49.922  1.00  0.00     0.011 A 
HETATM   22 BR   UNL     1       5.807  30.868  49.474  1.00  0.00    -0.051 Br
HETATM   23  C   UNL     1       5.236  28.134  48.914  1.00  0.00     0.019 A 
HETATM   24  C   UNL     1       4.918  26.820  49.247  1.00  0.00     0.002 A 
HETATM   25  C   UNL     1       4.734  26.461  50.585  1.00  0.00     0.009 A 
ENDBRANCH   8  19
BRANCH   6  26
HETATM   26  N   UNL     1       5.621  30.677  55.840  1.00  0.00    -0.229 N 
HETATM   27  H   UNL     1       4.951  31.354  55.503  1.00  0.00     0.174 HD
HETATM   28  H   UNL     1       6.509  31.060  56.131  1.00  0.00     0.174 HD
ENDBRANCH   6  26
TORSDOF 4
ENDMDL
MODEL 5
REMARK VINA RESULT:      -8.7      3.713      6.650
REMARK  4 active torsions:
REMARK  status: ('A' for Active; 'I' for Inactive)
REMARK    1  A    between atoms: O_2  and  C_3 
REMARK    2  A    between atoms: C_6  and  C_7 
REMARK    3  A    between atoms: C_12  and  N_13 
REMARK    4  A    between atoms: C_15  and  C_16 
ROOT
HETATM    1  C   UNL     1       6.413  25.547  53.785  1.00  0.00     0.135 C 
HETATM    2  N   UNL     1       5.831  25.656  52.451  1.00  0.00    -0.214 N 
HETATM    3  C   UNL     1       5.617  26.868  51.903  1.00  0.00     0.736 A 
HETATM    4  N   UNL     1       6.150  28.002  52.452  1.00  0.00    -0.074 N 
HETATM    5  N   UNL     1       5.846  29.093  51.730  1.00  0.00     0.037 NA
HETATM    6  C   UNL     1       5.120  28.546  50.757  1.00  0.00     0.753 A 
HETATM    7  N   UNL     1       4.931  27.198  50.840  1.00  0.00     0.131 NA
HETATM    8  C   UNL     1       6.933  28.032  53.679  1.00  0.00     0.164 C 
HETATM    9  C   UNL     1       7.492  26.631  53.980  1.00  0.00     0.063 C 
HETATM   10  H   UNL     1       5.226  24.894  52.155  1.00  0.00     0.178 HD
ENDROOT
BRANCH   1  11
HETATM   11  C   UNL     1       7.019  24.170  53.997  1.00  0.00    -0.035 A 
HETATM   12  C   UNL     1       7.113  23.587  55.270  1.00  0.00     0.012 A 
HETATM   13  C   UNL     1       7.629  22.298  55.427  1.00  0.00     0.037 A 
HETATM   14  C   UNL     1       8.039  21.555  54.320  1.00  0.00     0.068 A 
HETATM   15  C   UNL     1       7.955  22.125  53.050  1.00  0.00     0.037 A 
HETATM   16  C   UNL     1       7.449  23.421  52.891  1.00  0.00     0.012 A 
BRANCH  14  17
HETATM   17  O   UNL     1       8.503  20.303  54.609  1.00  0.00    -0.356 OA
HETATM   18  C   UNL     1       8.651  19.979  55.986  1.00  0.00     0.210 C 
ENDBRANCH  14  17
ENDBRANCH   1  11
BRANCH   8  19
HETATM   19  C   UNL     1       6.163  28.604  54.867  1.00  0.00    -0.031 A 
HETATM   20  C   UNL     1       6.771  29.359  55.885  1.00  0.00     0.028 A 
HETATM   21  C   UNL     1       6.010  29.875  56.935  1.00  0.00     0.011 A 
HETATM   22 BR   UNL     1       6.853  30.884  58.294  1.00  0.00    -0.051 Br
HETATM   23  C   UNL     1       4.636  29.657  56.991  1.00  0.00     0.019 A 
HETATM   24  C   UNL     1       4.017  28.916  55.988  1.00  0.00     0.002 A 
HETATM   25  C   UNL     1       4.772  28.396  54.934  1.00  0.00     0.009 A 
ENDBRANCH   8  19
BRANCH   6  26
HETATM   26  N   UNL     1       4.548  29.210  49.756  1.00  0.00    -0.229 N 
HETATM   27  H   UNL     1       4.490  30.214  49.848  1.00  0.00     0.174 HD
HETATM   28  H   UNL     1       3.750  28.772  49.318  1.00  0.00     0.174 HD
ENDBRANCH   6  26
TORSDOF 4
ENDMDL
MODEL 6
REMARK VINA RESULT:      -8.5      8.918     13.164
REMARK  4 active torsions:
REMARK  status: ('A' for Active; 'I' for Inactive)
REMARK    1  A    between atoms: O_2  and  C_3 
REMARK    2  A    between atoms: C_6  and  C_7 
REMARK    3  A    between atoms: C_12  and  N_13 
REMARK    4  A    between atoms: C_15  and  C_16 
ROOT
HETATM    1  C   UNL     1       6.604  33.812  63.143  1.00  0.00     0.135 C 
HETATM    2  N   UNL     1       6.931  33.548  64.540  1.00  0.00    -0.214 N 
HETATM    3  C   UNL     1       6.179  34.079  65.524  1.00  0.00     0.736 A 
HETATM    4  N   UNL     1       4.969  34.661  65.259  1.00  0.00    -0.074 N 
HETATM    5  N   UNL     1       4.369  35.089  66.382  1.00  0.00     0.037 NA
HETATM    6  C   UNL     1       5.276  34.739  67.292  1.00  0.00     0.753 A 
HETATM    7  N   UNL     1       6.406  34.147  66.809  1.00  0.00     0.131 NA
HETATM    8  C   UNL     1       4.406  34.818  63.927  1.00  0.00     0.164 C 
HETATM    9  C   UNL     1       5.074  33.831  62.954  1.00  0.00     0.063 C 
HETATM   10  H   UNL     1       7.908  33.353  64.749  1.00  0.00     0.178 HD
ENDROOT
BRANCH   1  11
HETATM   11  C   UNL     1       7.224  32.762  62.236  1.00  0.00    -0.035 A 
HETATM   12  C   UNL     1       6.762  32.541  60.930  1.00  0.00     0.012 A 
HETATM   13  C   UNL     1       7.386  31.603  60.103  1.00  0.00     0.037 A 
HETATM   14  C   UNL     1       8.495  30.885  60.550  1.00  0.00     0.068 A 
HETATM   15  C   UNL     1       8.961  31.092  61.847  1.00  0.00     0.037 A 
HETATM   16  C   UNL     1       8.331  32.023  62.682  1.00  0.00     0.012 A 
BRANCH  14  17
HETATM   17  O   UNL     1       9.023  30.017  59.636  1.00  0.00    -0.356 OA
HETATM   18  C   UNL     1       8.182  29.642  58.552  1.00  0.00     0.210 C 
ENDBRANCH  14  17
ENDBRANCH   1  11
BRANCH   8  19
HETATM   19  C   UNL     1       4.474  36.254  63.414  1.00  0.00    -0.031 A 
HETATM   20  C   UNL     1       5.473  37.163  63.806  1.00  0.00     0.028 A 
HETATM   21  C   UNL     1       5.496  38.458  63.285  1.00  0.00     0.011 A 
HETATM   22 BR   UNL     1       6.848  39.662  63.832  1.00  0.00    -0.051 Br
HETATM   23  C   UNL     1       4.537  38.871  62.364  1.00  0.00     0.019 A 
HETATM   24  C   UNL     1       3.545  37.981  61.961  1.00  0.00     0.002 A 
HETATM   25  C   UNL     1       3.514  36.684  62.479  1.00  0.00     0.009 A 
ENDBRANCH   8  19
BRANCH   6  26
HETATM   26  N   UNL     1       5.178  34.954  68.601  1.00  0.00    -0.229 N 
HETATM   27  H   UNL     1       4.246  35.012  68.985  1.00  0.00     0.174 HD
HETATM   28  H   UNL     1       5.852  35.586  69.009  1.00  0.00     0.174 HD
ENDBRANCH   6  26
TORSDOF 4
ENDMDL
MODEL 7
REMARK VINA RESULT:      -8.5      1.679      2.184
REMARK  4 active torsions:
REMARK  status: ('A' for Active; 'I' for Inactive)
REMARK    1  A    between atoms: O_2  and  C_3 
REMARK    2  A    between atoms: C_6  and  C_7 
REMARK    3  A    between atoms: C_12  and  N_13 
REMARK    4  A    between atoms: C_15  and  C_16 
ROOT
HETATM    1  C   UNL     1       6.738  28.335  56.346  1.00  0.00     0.135 C 
HETATM    2  N   UNL     1       6.273  28.879  55.074  1.00  0.00    -0.214 N 
HETATM    3  C   UNL     1       5.701  28.071  54.160  1.00  0.00     0.736 A 
HETATM    4  N   UNL     1       5.317  26.797  54.478  1.00  0.00    -0.074 N 
HETATM    5  N   UNL     1       4.736  26.180  53.436  1.00  0.00     0.037 NA
HETATM    6  C   UNL     1       4.806  27.140  52.515  1.00  0.00     0.753 A 
HETATM    7  N   UNL     1       5.413  28.297  52.906  1.00  0.00     0.131 NA
HETATM    8  C   UNL     1       5.528  26.174  55.776  1.00  0.00     0.164 C 
HETATM    9  C   UNL     1       5.759  27.254  56.847  1.00  0.00     0.063 C 
HETATM   10  H   UNL     1       6.753  29.709  54.732  1.00  0.00     0.178 HD
ENDROOT
BRANCH   1  11
HETATM   11  C   UNL     1       6.871  29.434  57.386  1.00  0.00    -0.035 A 
HETATM   12  C   UNL     1       7.815  29.368  58.422  1.00  0.00     0.012 A 
HETATM   13  C   UNL     1       7.947  30.418  59.334  1.00  0.00     0.037 A 
HETATM   14  C   UNL     1       7.161  31.565  59.219  1.00  0.00     0.068 A 
HETATM   15  C   UNL     1       6.217  31.642  58.197  1.00  0.00     0.037 A 
HETATM   16  C   UNL     1       6.074  30.585  57.288  1.00  0.00     0.012 A 
BRANCH  14  17
HETATM   17  O   UNL     1       7.406  32.525  60.160  1.00  0.00    -0.356 OA
HETATM   18  C   UNL     1       7.644  32.071  61.487  1.00  0.00     0.210 C 
ENDBRANCH  14  17
ENDBRANCH   1  11
BRANCH   8  19
HETATM   19  C   UNL     1       6.647  25.136  55.767  1.00  0.00    -0.031 A 
HETATM   20  C   UNL     1       6.819  24.201  54.730  1.00  0.00     0.028 A 
HETATM   21  C   UNL     1       7.877  23.291  54.767  1.00  0.00     0.011 A 
HETATM   22 BR   UNL     1       8.083  22.040  53.363  1.00  0.00    -0.051 Br
HETATM   23  C   UNL     1       8.783  23.295  55.824  1.00  0.00     0.019 A 
HETATM   24  C   UNL     1       8.630  24.219  56.855  1.00  0.00     0.002 A 
HETATM   25  C   UNL     1       7.574  25.133  56.826  1.00  0.00     0.009 A 
ENDBRANCH   8  19
BRANCH   6  26
HETATM   26  N   UNL     1       4.372  27.039  51.262  1.00  0.00    -0.229 N 
HETATM   27  H   UNL     1       5.060  27.146  50.530  1.00  0.00     0.174 HD
HETATM   28  H   UNL     1       3.466  27.438  51.061  1.00  0.00     0.174 HD
ENDBRANCH   6  26
TORSDOF 4
ENDMDL
MODEL 8
REMARK VINA RESULT:      -8.2      4.179      7.520
REMARK  4 active torsions:
REMARK  status: ('A' for Active; 'I' for Inactive)
REMARK    1  A    between atoms: O_2  and  C_3 
REMARK    2  A    between atoms: C_6  and  C_7 
REMARK    3  A    between atoms: C_12  and  N_13 
REMARK    4  A    between atoms: C_15  and  C_16 
ROOT
HETATM    1  C   UNL     1       5.968  26.489  51.965  1.00  0.00     0.135 C 
HETATM    2  N   UNL     1       6.894  25.393  51.697  1.00  0.00    -0.214 N 
HETATM    3  C   UNL     1       7.275  24.571  52.694  1.00  0.00     0.736 A 
HETATM    4  N   UNL     1       6.637  24.575  53.904  1.00  0.00    -0.074 N 
HETATM    5  N   UNL     1       7.149  23.655  54.738  1.00  0.00     0.037 NA
HETATM    6  C   UNL     1       8.102  23.132  53.968  1.00  0.00     0.753 A 
HETATM    7  N   UNL     1       8.231  23.680  52.725  1.00  0.00     0.131 NA
HETATM    8  C   UNL     1       5.551  25.476  54.258  1.00  0.00     0.164 C 
HETATM    9  C   UNL     1       4.901  26.042  52.984  1.00  0.00     0.063 C 
HETATM   10  H   UNL     1       7.540  25.523  50.922  1.00  0.00     0.178 HD
ENDROOT
BRANCH   1  11
HETATM   11  C   UNL     1       5.297  26.954  50.683  1.00  0.00    -0.035 A 
HETATM   12  C   UNL     1       4.603  26.069  49.844  1.00  0.00     0.012 A 
HETATM   13  C   UNL     1       3.953  26.535  48.698  1.00  0.00     0.037 A 
HETATM   14  C   UNL     1       3.959  27.892  48.379  1.00  0.00     0.068 A 
HETATM   15  C   UNL     1       4.648  28.782  49.202  1.00  0.00     0.037 A 
HETATM   16  C   UNL     1       5.311  28.316  50.345  1.00  0.00     0.012 A 
BRANCH  14  17
HETATM   17  O   UNL     1       3.268  28.218  47.246  1.00  0.00    -0.356 OA
HETATM   18  C   UNL     1       2.051  27.520  47.017  1.00  0.00     0.210 C 
ENDBRANCH  14  17
ENDBRANCH   1  11
BRANCH   8  19
HETATM   19  C   UNL     1       5.981  26.585  55.215  1.00  0.00    -0.031 A 
HETATM   20  C   UNL     1       7.202  27.272  55.095  1.00  0.00     0.028 A 
HETATM   21  C   UNL     1       7.530  28.293  55.989  1.00  0.00     0.011 A 
HETATM   22 BR   UNL     1       9.180  29.200  55.808  1.00  0.00    -0.051 Br
HETATM   23  C   UNL     1       6.654  28.653  57.009  1.00  0.00     0.019 A 
HETATM   24  C   UNL     1       5.439  27.987  57.138  1.00  0.00     0.002 A 
HETATM   25  C   UNL     1       5.103  26.963  56.249  1.00  0.00     0.009 A 
ENDBRANCH   8  19
BRANCH   6  26
HETATM   26  N   UNL     1       8.938  22.163  54.327  1.00  0.00    -0.229 N 
HETATM   27  H   UNL     1       9.043  21.994  55.318  1.00  0.00     0.174 HD
HETATM   28  H   UNL     1       9.785  22.069  53.784  1.00  0.00     0.174 HD
ENDBRANCH   6  26
TORSDOF 4
ENDMDL
MODEL 9
REMARK VINA RESULT:      -8.0      4.037      7.041
REMARK  4 active torsions:
REMARK  status: ('A' for Active; 'I' for Inactive)
REMARK    1  A    between atoms: O_2  and  C_3 
REMARK    2  A    between atoms: C_6  and  C_7 
REMARK    3  A    between atoms: C_12  and  N_13 
REMARK    4  A    between atoms: C_15  and  C_16 
ROOT
HETATM    1  C   UNL     1       6.798  27.275  57.010  1.00  0.00     0.135 C 
HETATM    2  N   UNL     1       5.421  27.463  56.563  1.00  0.00    -0.214 N 
HETATM    3  C   UNL     1       4.956  28.700  56.303  1.00  0.00     0.736 A 
HETATM    4  N   UNL     1       5.800  29.773  56.209  1.00  0.00    -0.074 N 
HETATM    5  N   UNL     1       5.137  30.901  55.906  1.00  0.00     0.037 NA
HETATM    6  C   UNL     1       3.889  30.439  55.837  1.00  0.00     0.753 A 
HETATM    7  N   UNL     1       3.732  29.109  56.100  1.00  0.00     0.131 NA
HETATM    8  C   UNL     1       7.237  29.710  56.428  1.00  0.00     0.164 C 
HETATM    9  C   UNL     1       7.730  28.261  56.276  1.00  0.00     0.063 C 
HETATM   10  H   UNL     1       4.748  26.760  56.859  1.00  0.00     0.178 HD
ENDROOT
BRANCH   1  11
HETATM   11  C   UNL     1       7.256  25.848  56.763  1.00  0.00    -0.035 A 
HETATM   12  C   UNL     1       6.671  25.039  55.777  1.00  0.00     0.012 A 
HETATM   13  C   UNL     1       7.149  23.748  55.539  1.00  0.00     0.037 A 
HETATM   14  C   UNL     1       8.233  23.246  56.258  1.00  0.00     0.068 A 
HETATM   15  C   UNL     1       8.820  24.038  57.244  1.00  0.00     0.037 A 
HETATM   16  C   UNL     1       8.336  25.328  57.492  1.00  0.00     0.012 A 
BRANCH  14  17
HETATM   17  O   UNL     1       8.614  21.980  55.913  1.00  0.00    -0.356 OA
HETATM   18  C   UNL     1       8.421  20.966  56.891  1.00  0.00     0.210 C 
ENDBRANCH  14  17
ENDBRANCH   1  11
BRANCH   8  19
HETATM   19  C   UNL     1       7.667  30.318  57.761  1.00  0.00    -0.031 A 
HETATM   20  C   UNL     1       6.808  31.092  58.564  1.00  0.00     0.028 A 
HETATM   21  C   UNL     1       7.252  31.603  59.785  1.00  0.00     0.011 A 
HETATM   22 BR   UNL     1       6.080  32.643  60.843  1.00  0.00    -0.051 Br
HETATM   23  C   UNL     1       8.546  31.352  60.233  1.00  0.00     0.019 A 
HETATM   24  C   UNL     1       9.405  30.583  59.453  1.00  0.00     0.002 A 
HETATM   25  C   UNL     1       8.970  30.069  58.229  1.00  0.00     0.009 A 
ENDBRANCH   8  19
BRANCH   6  26
HETATM   26  N   UNL     1       2.810  31.169  55.574  1.00  0.00    -0.229 N 
HETATM   27  H   UNL     1       2.965  32.111  55.244  1.00  0.00     0.174 HD
HETATM   28  H   UNL     1       2.023  31.057  56.197  1.00  0.00     0.174 HD
ENDBRANCH   6  26
TORSDOF 4
ENDMDL
MODEL 10
REMARK VINA RESULT:      -7.8      5.360      8.613
REMARK  4 active torsions:
REMARK  status: ('A' for Active; 'I' for Inactive)
REMARK    1  A    between atoms: O_2  and  C_3 
REMARK    2  A    between atoms: C_6  and  C_7 
REMARK    3  A    between atoms: C_12  and  N_13 
REMARK    4  A    between atoms: C_15  and  C_16 
ROOT
HETATM    1  C   UNL     1       5.369  30.058  57.950  1.00  0.00     0.135 C 
HETATM    2  N   UNL     1       4.020  30.341  58.429  1.00  0.00    -0.214 N 
HETATM    3  C   UNL     1       3.774  31.460  59.137  1.00  0.00     0.736 A 
HETATM    4  N   UNL     1       4.695  32.468  59.219  1.00  0.00    -0.074 N 
HETATM    5  N   UNL     1       4.235  33.504  59.940  1.00  0.00     0.037 NA
HETATM    6  C   UNL     1       3.026  33.052  60.271  1.00  0.00     0.753 A 
HETATM    7  N   UNL     1       2.716  31.800  59.826  1.00  0.00     0.131 NA
HETATM    8  C   UNL     1       6.020  32.422  58.619  1.00  0.00     0.164 C 
HETATM    9  C   UNL     1       6.055  31.364  57.503  1.00  0.00     0.063 C 
HETATM   10  H   UNL     1       3.420  29.537  58.597  1.00  0.00     0.178 HD
ENDROOT
BRANCH   1  11
HETATM   11  C   UNL     1       5.336  29.070  56.797  1.00  0.00    -0.035 A 
HETATM   12  C   UNL     1       6.168  27.941  56.760  1.00  0.00     0.012 A 
HETATM   13  C   UNL     1       6.079  27.023  55.710  1.00  0.00     0.037 A 
HETATM   14  C   UNL     1       5.144  27.197  54.690  1.00  0.00     0.068 A 
HETATM   15  C   UNL     1       4.314  28.317  54.713  1.00  0.00     0.037 A 
HETATM   16  C   UNL     1       4.409  29.244  55.758  1.00  0.00     0.012 A 
BRANCH  14  17
HETATM   17  O   UNL     1       5.145  26.217  53.738  1.00  0.00    -0.356 OA
HETATM   18  C   UNL     1       5.901  25.048  54.026  1.00  0.00     0.210 C 
ENDBRANCH  14  17
ENDBRANCH   1  11
BRANCH   8  19
HETATM   19  C   UNL     1       7.133  32.204  59.642  1.00  0.00    -0.031 A 
HETATM   20  C   UNL     1       7.004  32.543  61.001  1.00  0.00     0.028 A 
HETATM   21  C   UNL     1       8.049  32.298  61.893  1.00  0.00     0.011 A 
HETATM   22 BR   UNL     1       7.853  32.767  63.714  1.00  0.00    -0.051 Br
HETATM   23  C   UNL     1       9.234  31.711  61.457  1.00  0.00     0.019 A 
HETATM   24  C   UNL     1       9.375  31.364  60.116  1.00  0.00     0.002 A 
HETATM   25  C   UNL     1       8.334  31.606  59.216  1.00  0.00     0.009 A 
ENDBRANCH   8  19
BRANCH   6  26
HETATM   26  N   UNL     1       2.137  33.703  61.015  1.00  0.00    -0.229 N 
HETATM   27  H   UNL     1       2.328  34.675  61.209  1.00  0.00     0.174 HD
HETATM   28  H   UNL     1       1.718  33.187  61.777  1.00  0.00     0.174 HD
ENDBRANCH   6  26
TORSDOF 4
ENDMDL
