MODEL 1
REMARK VINA RESULT:     -11.6      0.000      0.000
REMARK  5 active torsions:
REMARK  status: ('A' for Active; 'I' for Inactive)
REMARK    1  A    between atoms: C_4  and  C_5 
REMARK    2  A    between atoms: C_5  and  C_6 
REMARK    3  A    between atoms: N_15  and  N_16 
REMARK       I    between atoms: N_16  and  C_17 
REMARK    4  A    between atoms: C_17  and  C_18 
REMARK    5  A    between atoms: C_18  and  C_19 
ROOT
HETATM    1  C   UNL     1       6.288  26.274  53.823  1.00  0.00     0.173 A 
HETATM    2  N   UNL     1       5.262  26.351  54.855  1.00  0.00    -0.315 N 
HETATM    3  C   UNL     1       5.557  27.264  55.838  1.00  0.00     0.346 A 
HETATM    4  O   UNL     1       4.819  27.533  56.772  1.00  0.00    -0.245 OA
HETATM    5  N   UNL     1       6.762  27.832  55.541  1.00  0.00    -0.167 N 
HETATM    6  C   UNL     1       7.251  27.400  54.330  1.00  0.00     0.285 A 
HETATM    7  O   UNL     1       8.240  27.829  53.745  1.00  0.00    -0.267 OA
HETATM    8  H   UNL     1       4.456  25.746  54.913  1.00  0.00     0.166 HD
ENDROOT
BRANCH   5   9
HETATM    9  N   UNL     1       7.293  28.899  56.257  1.00  0.00    -0.256 N 
HETATM   10  C   UNL     1       8.080  28.601  57.358  1.00  0.00     0.242 C 
HETATM   11  O   UNL     1       8.381  27.462  57.707  1.00  0.00    -0.271 OA
HETATM   12  H   UNL     1       6.655  29.688  56.365  1.00  0.00     0.191 HD
BRANCH  10  13
HETATM   13  C   UNL     1       8.664  29.825  58.025  1.00  0.00     0.166 C 
BRANCH  13  14
HETATM   14  C   UNL     1       7.673  30.761  58.685  1.00  0.00     0.074 A 
HETATM   15  N   UNL     1       6.625  31.120  58.006  1.00  0.00    -0.175 NA
HETATM   16  N   UNL     1       5.718  31.940  58.598  1.00  0.00    -0.243 N 
HETATM   17  C   UNL     1       5.786  32.436  59.877  1.00  0.00     0.272 A 
HETATM   18  H   UNL     1       4.891  32.174  58.053  1.00  0.00     0.192 HD
HETATM   19  O   UNL     1       4.911  33.148  60.356  1.00  0.00    -0.266 OA
HETATM   20  C   UNL     1       6.983  32.067  60.649  1.00  0.00     0.046 A 
HETATM   21  C   UNL     1       7.933  31.225  60.071  1.00  0.00     0.006 A 
HETATM   22  C   UNL     1       7.167  32.563  61.945  1.00  0.00     0.018 A 
HETATM   23  C   UNL     1       9.077  30.875  60.797  1.00  0.00     0.014 A 
HETATM   24  C   UNL     1       9.264  31.378  62.090  1.00  0.00     0.001 A 
HETATM   25  C   UNL     1       8.312  32.220  62.663  1.00  0.00     0.001 A 
ENDBRANCH  13  14
ENDBRANCH  10  13
ENDBRANCH   5   9
BRANCH   1  26
HETATM   26  C   UNL     1       6.882  24.859  53.876  1.00  0.00    -0.016 A 
HETATM   27  C   UNL     1       7.593  24.300  52.799  1.00  0.00     0.010 A 
HETATM   28  C   UNL     1       8.165  23.027  52.902  1.00  0.00     0.001 A 
HETATM   29  C   UNL     1       8.043  22.293  54.079  1.00  0.00     0.000 A 
HETATM   30  C   UNL     1       7.353  22.830  55.160  1.00  0.00     0.001 A 
HETATM   31  C   UNL     1       6.785  24.102  55.063  1.00  0.00     0.010 A 
ENDBRANCH   1  26
BRANCH   1  32
HETATM   32  C   UNL     1       5.759  26.670  52.434  1.00  0.00    -0.016 A 
HETATM   33  C   UNL     1       5.313  25.724  51.492  1.00  0.00     0.010 A 
HETATM   34  C   UNL     1       4.821  26.130  50.248  1.00  0.00     0.001 A 
HETATM   35  C   UNL     1       4.760  27.482  49.923  1.00  0.00     0.000 A 
HETATM   36  C   UNL     1       5.191  28.434  50.841  1.00  0.00     0.001 A 
HETATM   37  C   UNL     1       5.684  28.033  52.083  1.00  0.00     0.010 A 
ENDBRANCH   1  32
TORSDOF 5
ENDMDL
MODEL 2
REMARK VINA RESULT:     -10.9      4.397      9.322
REMARK  5 active torsions:
REMARK  status: ('A' for Active; 'I' for Inactive)
REMARK    1  A    between atoms: C_4  and  C_5 
REMARK    2  A    between atoms: C_5  and  C_6 
REMARK    3  A    between atoms: N_15  and  N_16 
REMARK       I    between atoms: N_16  and  C_17 
REMARK    4  A    between atoms: C_17  and  C_18 
REMARK    5  A    between atoms: C_18  and  C_19 
ROOT
HETATM    1  C   UNL     1       7.084  24.687  54.086  1.00  0.00     0.173 A 
HETATM    2  N   UNL     1       5.636  24.526  54.054  1.00  0.00    -0.315 N 
HETATM    3  C   UNL     1       5.063  25.048  52.920  1.00  0.00     0.346 A 
HETATM    4  O   UNL     1       3.873  24.981  52.656  1.00  0.00    -0.245 OA
HETATM    5  N   UNL     1       6.056  25.581  52.150  1.00  0.00    -0.167 N 
HETATM    6  C   UNL     1       7.303  25.349  52.684  1.00  0.00     0.285 A 
HETATM    7  O   UNL     1       8.382  25.594  52.155  1.00  0.00    -0.267 OA
HETATM    8  H   UNL     1       5.080  24.155  54.811  1.00  0.00     0.166 HD
ENDROOT
BRANCH   5   9
HETATM    9  N   UNL     1       5.840  26.070  50.867  1.00  0.00    -0.256 N 
HETATM   10  C   UNL     1       5.526  27.413  50.739  1.00  0.00     0.242 C 
HETATM   11  O   UNL     1       5.481  28.207  51.676  1.00  0.00    -0.271 OA
HETATM   12  H   UNL     1       5.326  25.432  50.259  1.00  0.00     0.191 HD
BRANCH  10  13
HETATM   13  C   UNL     1       5.378  27.859  49.302  1.00  0.00     0.166 C 
BRANCH  13  14
HETATM   14  C   UNL     1       4.004  27.687  48.689  1.00  0.00     0.074 A 
HETATM   15  N   UNL     1       3.373  26.573  48.906  1.00  0.00    -0.175 NA
HETATM   16  N   UNL     1       2.129  26.419  48.381  1.00  0.00    -0.243 N 
HETATM   17  C   UNL     1       1.443  27.345  47.634  1.00  0.00     0.272 A 
HETATM   18  H   UNL     1       1.647  25.549  48.598  1.00  0.00     0.192 HD
HETATM   19  O   UNL     1       0.308  27.148  47.218  1.00  0.00    -0.266 OA
HETATM   20  C   UNL     1       2.157  28.601  47.350  1.00  0.00     0.046 A 
HETATM   21  C   UNL     1       3.435  28.790  47.876  1.00  0.00     0.006 A 
HETATM   22  C   UNL     1       1.560  29.586  46.555  1.00  0.00     0.018 A 
HETATM   23  C   UNL     1       4.121  29.980  47.605  1.00  0.00     0.014 A 
HETATM   24  C   UNL     1       3.527  30.962  46.804  1.00  0.00     0.001 A 
HETATM   25  C   UNL     1       2.250  30.766  46.280  1.00  0.00     0.001 A 
ENDBRANCH  13  14
ENDBRANCH  10  13
ENDBRANCH   5   9
BRANCH   1  26
HETATM   26  C   UNL     1       7.415  25.596  55.278  1.00  0.00    -0.016 A 
HETATM   27  C   UNL     1       7.707  26.963  55.124  1.00  0.00     0.010 A 
HETATM   28  C   UNL     1       7.953  27.773  56.238  1.00  0.00     0.001 A 
HETATM   29  C   UNL     1       7.905  27.237  57.523  1.00  0.00     0.000 A 
HETATM   30  C   UNL     1       7.606  25.891  57.699  1.00  0.00     0.001 A 
HETATM   31  C   UNL     1       7.356  25.081  56.590  1.00  0.00     0.010 A 
ENDBRANCH   1  26
BRANCH   1  32
HETATM   32  C   UNL     1       7.827  23.340  54.113  1.00  0.00    -0.016 A 
HETATM   33  C   UNL     1       8.785  23.019  55.093  1.00  0.00     0.010 A 
HETATM   34  C   UNL     1       9.422  21.774  55.091  1.00  0.00     0.001 A 
HETATM   35  C   UNL     1       9.112  20.828  54.118  1.00  0.00     0.000 A 
HETATM   36  C   UNL     1       8.165  21.122  53.143  1.00  0.00     0.001 A 
HETATM   37  C   UNL     1       7.528  22.364  53.140  1.00  0.00     0.010 A 
ENDBRANCH   1  32
TORSDOF 5
ENDMDL
MODEL 3
REMARK VINA RESULT:     -10.8      1.316      2.251
REMARK  5 active torsions:
REMARK  status: ('A' for Active; 'I' for Inactive)
REMARK    1  A    between atoms: C_4  and  C_5 
REMARK    2  A    between atoms: C_5  and  C_6 
REMARK    3  A    between atoms: N_15  and  N_16 
REMARK       I    between atoms: N_16  and  C_17 
REMARK    4  A    between atoms: C_17  and  C_18 
REMARK    5  A    between atoms: C_18  and  C_19 
ROOT
HETATM    1  C   UNL     1       6.327  26.456  54.052  1.00  0.00     0.173 A 
HETATM    2  N   UNL     1       5.347  26.567  55.125  1.00  0.00    -0.315 N 
HETATM    3  C   UNL     1       5.660  27.543  56.039  1.00  0.00     0.346 A 
HETATM    4  O   UNL     1       4.958  27.848  56.990  1.00  0.00    -0.245 OA
HETATM    5  N   UNL     1       6.835  28.123  55.655  1.00  0.00    -0.167 N 
HETATM    6  C   UNL     1       7.280  27.633  54.448  1.00  0.00     0.285 A 
HETATM    7  O   UNL     1       8.230  28.052  53.794  1.00  0.00    -0.267 OA
HETATM    8  H   UNL     1       4.561  25.947  55.255  1.00  0.00     0.166 HD
ENDROOT
BRANCH   5   9
HETATM    9  N   UNL     1       7.369  29.242  56.283  1.00  0.00    -0.256 N 
HETATM   10  C   UNL     1       8.195  29.029  57.374  1.00  0.00     0.242 C 
HETATM   11  O   UNL     1       8.528  27.920  57.786  1.00  0.00    -0.271 OA
HETATM   12  H   UNL     1       6.720  30.026  56.360  1.00  0.00     0.191 HD
BRANCH  10  13
HETATM   13  C   UNL     1       8.777  30.303  57.942  1.00  0.00     0.166 C 
BRANCH  13  14
HETATM   14  C   UNL     1       8.340  30.668  59.345  1.00  0.00     0.074 A 
HETATM   15  N   UNL     1       9.018  30.186  60.342  1.00  0.00    -0.175 NA
HETATM   16  N   UNL     1       8.649  30.527  61.605  1.00  0.00    -0.243 N 
HETATM   17  C   UNL     1       7.613  31.360  61.949  1.00  0.00     0.272 A 
HETATM   18  H   UNL     1       9.222  30.161  62.362  1.00  0.00     0.192 HD
HETATM   19  O   UNL     1       7.357  31.648  63.113  1.00  0.00    -0.266 OA
HETATM   20  C   UNL     1       6.812  31.889  60.833  1.00  0.00     0.046 A 
HETATM   21  C   UNL     1       7.166  31.558  59.526  1.00  0.00     0.006 A 
HETATM   22  C   UNL     1       5.705  32.707  61.087  1.00  0.00     0.018 A 
HETATM   23  C   UNL     1       6.405  32.054  58.460  1.00  0.00     0.014 A 
HETATM   24  C   UNL     1       5.293  32.865  58.714  1.00  0.00     0.001 A 
HETATM   25  C   UNL     1       4.943  33.191  60.024  1.00  0.00     0.001 A 
ENDBRANCH  13  14
ENDBRANCH  10  13
ENDBRANCH   5   9
BRANCH   1  26
HETATM   26  C   UNL     1       6.960  25.062  54.157  1.00  0.00    -0.016 A 
HETATM   27  C   UNL     1       6.694  24.192  55.229  1.00  0.00     0.010 A 
HETATM   28  C   UNL     1       7.248  22.908  55.265  1.00  0.00     0.001 A 
HETATM   29  C   UNL     1       8.071  22.466  54.232  1.00  0.00     0.000 A 
HETATM   30  C   UNL     1       8.339  23.306  53.156  1.00  0.00     0.001 A 
HETATM   31  C   UNL     1       7.784  24.586  53.115  1.00  0.00     0.010 A 
ENDBRANCH   1  26
BRANCH   1  32
HETATM   32  C   UNL     1       5.724  26.757  52.669  1.00  0.00    -0.016 A 
HETATM   33  C   UNL     1       5.415  28.061  52.240  1.00  0.00     0.010 A 
HETATM   34  C   UNL     1       4.887  28.291  50.967  1.00  0.00     0.001 A 
HETATM   35  C   UNL     1       4.661  27.226  50.097  1.00  0.00     0.000 A 
HETATM   36  C   UNL     1       4.964  25.930  50.498  1.00  0.00     0.001 A 
HETATM   37  C   UNL     1       5.490  25.697  51.770  1.00  0.00     0.010 A 
ENDBRANCH   1  32
TORSDOF 5
ENDMDL
MODEL 4
REMARK VINA RESULT:     -10.7      2.823      9.043
REMARK  5 active torsions:
REMARK  status: ('A' for Active; 'I' for Inactive)
REMARK    1  A    between atoms: C_4  and  C_5 
REMARK    2  A    between atoms: C_5  and  C_6 
REMARK    3  A    between atoms: N_15  and  N_16 
REMARK       I    between atoms: N_16  and  C_17 
REMARK    4  A    between atoms: C_17  and  C_18 
REMARK    5  A    between atoms: C_18  and  C_19 
ROOT
HETATM    1  C   UNL     1       7.276  27.945  56.234  1.00  0.00     0.173 A 
HETATM    2  N   UNL     1       5.984  28.228  56.846  1.00  0.00    -0.315 N 
HETATM    3  C   UNL     1       5.083  28.776  55.966  1.00  0.00     0.346 A 
HETATM    4  O   UNL     1       3.925  29.045  56.245  1.00  0.00    -0.245 OA
HETATM    5  N   UNL     1       5.695  28.899  54.753  1.00  0.00    -0.167 N 
HETATM    6  C   UNL     1       6.961  28.358  54.758  1.00  0.00     0.285 A 
HETATM    7  O   UNL     1       7.695  28.206  53.787  1.00  0.00    -0.267 OA
HETATM    8  H   UNL     1       5.776  28.125  57.829  1.00  0.00     0.166 HD
ENDROOT
BRANCH   5   9
HETATM    9  N   UNL     1       5.023  29.291  53.602  1.00  0.00    -0.256 N 
HETATM   10  C   UNL     1       4.263  28.336  52.948  1.00  0.00     0.242 C 
HETATM   11  O   UNL     1       4.101  27.186  53.348  1.00  0.00    -0.271 OA
HETATM   12  H   UNL     1       5.556  29.924  53.004  1.00  0.00     0.191 HD
BRANCH  10  13
HETATM   13  C   UNL     1       3.519  28.880  51.749  1.00  0.00     0.166 C 
BRANCH  13  14
HETATM   14  C   UNL     1       4.092  28.526  50.393  1.00  0.00     0.074 A 
HETATM   15  N   UNL     1       5.381  28.580  50.240  1.00  0.00    -0.175 NA
HETATM   16  N   UNL     1       5.906  28.240  49.034  1.00  0.00    -0.243 N 
HETATM   17  C   UNL     1       5.202  27.822  47.931  1.00  0.00     0.272 A 
HETATM   18  H   UNL     1       6.921  28.260  48.957  1.00  0.00     0.192 HD
HETATM   19  O   UNL     1       5.749  27.502  46.882  1.00  0.00    -0.266 OA
HETATM   20  C   UNL     1       3.738  27.787  48.076  1.00  0.00     0.046 A 
HETATM   21  C   UNL     1       3.168  28.128  49.302  1.00  0.00     0.006 A 
HETATM   22  C   UNL     1       2.932  27.421  46.992  1.00  0.00     0.018 A 
HETATM   23  C   UNL     1       1.775  28.102  49.445  1.00  0.00     0.014 A 
HETATM   24  C   UNL     1       0.969  27.743  48.358  1.00  0.00     0.001 A 
HETATM   25  C   UNL     1       1.545  27.404  47.135  1.00  0.00     0.001 A 
ENDBRANCH  13  14
ENDBRANCH  10  13
ENDBRANCH   5   9
BRANCH   1  26
HETATM   26  C   UNL     1       8.315  28.832  56.935  1.00  0.00    -0.016 A 
HETATM   27  C   UNL     1       9.550  29.156  56.345  1.00  0.00     0.010 A 
HETATM   28  C   UNL     1      10.451  30.010  56.990  1.00  0.00     0.001 A 
HETATM   29  C   UNL     1      10.135  30.560  58.230  1.00  0.00     0.000 A 
HETATM   30  C   UNL     1       8.915  30.263  58.827  1.00  0.00     0.001 A 
HETATM   31  C   UNL     1       8.012  29.414  58.184  1.00  0.00     0.010 A 
ENDBRANCH   1  26
BRANCH   1  32
HETATM   32  C   UNL     1       7.626  26.447  56.261  1.00  0.00    -0.016 A 
HETATM   33  C   UNL     1       7.233  25.555  55.246  1.00  0.00     0.010 A 
HETATM   34  C   UNL     1       7.590  24.204  55.301  1.00  0.00     0.001 A 
HETATM   35  C   UNL     1       8.348  23.721  56.365  1.00  0.00     0.000 A 
HETATM   36  C   UNL     1       8.751  24.585  57.377  1.00  0.00     0.001 A 
HETATM   37  C   UNL     1       8.395  25.934  57.326  1.00  0.00     0.010 A 
ENDBRANCH   1  32
TORSDOF 5
ENDMDL
MODEL 5
REMARK VINA RESULT:     -10.5      5.072      8.701
REMARK  5 active torsions:
REMARK  status: ('A' for Active; 'I' for Inactive)
REMARK    1  A    between atoms: C_4  and  C_5 
REMARK    2  A    between atoms: C_5  and  C_6 
REMARK    3  A    between atoms: N_15  and  N_16 
REMARK       I    between atoms: N_16  and  C_17 
REMARK    4  A    between atoms: C_17  and  C_18 
REMARK    5  A    between atoms: C_18  and  C_19 
ROOT
HETATM    1  C   UNL     1       3.580  29.362  48.322  1.00  0.00     0.173 A 
HETATM    2  N   UNL     1       4.281  28.495  47.385  1.00  0.00    -0.315 N 
HETATM    3  C   UNL     1       4.595  27.269  47.920  1.00  0.00     0.346 A 
HETATM    4  O   UNL     1       5.135  26.365  47.303  1.00  0.00    -0.245 OA
HETATM    5  N   UNL     1       4.146  27.242  49.209  1.00  0.00    -0.167 N 
HETATM    6  C   UNL     1       3.448  28.382  49.535  1.00  0.00     0.285 A 
HETATM    7  O   UNL     1       2.821  28.585  50.570  1.00  0.00    -0.267 OA
HETATM    8  H   UNL     1       4.595  28.771  46.466  1.00  0.00     0.166 HD
ENDROOT
BRANCH   5   9
HETATM    9  N   UNL     1       4.177  26.098  49.998  1.00  0.00    -0.256 N 
HETATM   10  C   UNL     1       5.151  26.025  50.980  1.00  0.00     0.242 C 
HETATM   11  O   UNL     1       5.950  26.925  51.232  1.00  0.00    -0.271 OA
HETATM   12  H   UNL     1       3.992  25.234  49.488  1.00  0.00     0.191 HD
BRANCH  10  13
HETATM   13  C   UNL     1       5.058  24.776  51.825  1.00  0.00     0.166 C 
BRANCH  13  14
HETATM   14  C   UNL     1       5.494  24.914  53.269  1.00  0.00     0.074 A 
HETATM   15  N   UNL     1       4.836  25.734  54.031  1.00  0.00    -0.175 NA
HETATM   16  N   UNL     1       5.203  25.847  55.334  1.00  0.00    -0.243 N 
HETATM   17  C   UNL     1       6.218  25.158  55.953  1.00  0.00     0.272 A 
HETATM   18  H   UNL     1       4.645  26.471  55.913  1.00  0.00     0.192 HD
HETATM   19  O   UNL     1       6.473  25.289  57.144  1.00  0.00    -0.266 OA
HETATM   20  C   UNL     1       6.996  24.249  55.096  1.00  0.00     0.046 A 
HETATM   21  C   UNL     1       6.643  24.110  53.754  1.00  0.00     0.006 A 
HETATM   22  C   UNL     1       8.081  23.540  55.624  1.00  0.00     0.018 A 
HETATM   23  C   UNL     1       7.382  23.251  52.933  1.00  0.00     0.014 A 
HETATM   24  C   UNL     1       8.472  22.548  53.459  1.00  0.00     0.001 A 
HETATM   25  C   UNL     1       8.822  22.692  54.801  1.00  0.00     0.001 A 
ENDBRANCH  13  14
ENDBRANCH  10  13
ENDBRANCH   5   9
BRANCH   1  26
HETATM   26  C   UNL     1       4.483  30.577  48.581  1.00  0.00    -0.016 A 
HETATM   27  C   UNL     1       5.156  30.769  49.800  1.00  0.00     0.010 A 
HETATM   28  C   UNL     1       6.013  31.860  49.982  1.00  0.00     0.001 A 
HETATM   29  C   UNL     1       6.217  32.774  48.952  1.00  0.00     0.000 A 
HETATM   30  C   UNL     1       5.571  32.598  47.734  1.00  0.00     0.001 A 
HETATM   31  C   UNL     1       4.719  31.508  47.547  1.00  0.00     0.010 A 
ENDBRANCH   1  26
BRANCH   1  32
HETATM   32  C   UNL     1       2.168  29.736  47.836  1.00  0.00    -0.016 A 
HETATM   33  C   UNL     1       1.420  30.783  48.405  1.00  0.00     0.010 A 
HETATM   34  C   UNL     1       0.148  31.101  47.920  1.00  0.00     0.001 A 
HETATM   35  C   UNL     1      -0.397  30.385  46.857  1.00  0.00     0.000 A 
HETATM   36  C   UNL     1       0.327  29.350  46.276  1.00  0.00     0.001 A 
HETATM   37  C   UNL     1       1.596  29.028  46.760  1.00  0.00     0.010 A 
ENDBRANCH   1  32
TORSDOF 5
ENDMDL
MODEL 6
REMARK VINA RESULT:     -10.2      3.044      8.992
REMARK  5 active torsions:
REMARK  status: ('A' for Active; 'I' for Inactive)
REMARK    1  A    between atoms: C_4  and  C_5 
REMARK    2  A    between atoms: C_5  and  C_6 
REMARK    3  A    between atoms: N_15  and  N_16 
REMARK       I    between atoms: N_16  and  C_17 
REMARK    4  A    between atoms: C_17  and  C_18 
REMARK    5  A    between atoms: C_18  and  C_19 
ROOT
HETATM    1  C   UNL     1       7.174  27.495  55.876  1.00  0.00     0.173 A 
HETATM    2  N   UNL     1       5.738  27.721  55.971  1.00  0.00    -0.315 N 
HETATM    3  C   UNL     1       5.173  28.092  54.775  1.00  0.00     0.346 A 
HETATM    4  O   UNL     1       3.979  28.282  54.606  1.00  0.00    -0.245 OA
HETATM    5  N   UNL     1       6.163  28.144  53.836  1.00  0.00    -0.167 N 
HETATM    6  C   UNL     1       7.373  27.724  54.340  1.00  0.00     0.285 A 
HETATM    7  O   UNL     1       8.406  27.541  53.705  1.00  0.00    -0.267 OA
HETATM    8  H   UNL     1       5.206  27.701  56.829  1.00  0.00     0.166 HD
ENDROOT
BRANCH   5   9
HETATM    9  N   UNL     1       5.915  28.355  52.485  1.00  0.00    -0.256 N 
HETATM   10  C   UNL     1       5.583  27.251  51.717  1.00  0.00     0.242 C 
HETATM   11  O   UNL     1       5.440  26.114  52.162  1.00  0.00    -0.271 OA
HETATM   12  H   UNL     1       6.541  29.032  52.047  1.00  0.00     0.191 HD
BRANCH  10  13
HETATM   13  C   UNL     1       5.267  27.595  50.279  1.00  0.00     0.166 C 
BRANCH  13  14
HETATM   14  C   UNL     1       3.960  28.320  50.040  1.00  0.00     0.074 A 
HETATM   15  N   UNL     1       3.660  29.316  50.818  1.00  0.00    -0.175 NA
HETATM   16  N   UNL     1       2.501  29.989  50.596  1.00  0.00    -0.243 N 
HETATM   17  C   UNL     1       1.591  29.730  49.600  1.00  0.00     0.272 A 
HETATM   18  H   UNL     1       2.313  30.785  51.201  1.00  0.00     0.192 HD
HETATM   19  O   UNL     1       0.578  30.401  49.441  1.00  0.00    -0.266 OA
HETATM   20  C   UNL     1       1.898  28.584  48.729  1.00  0.00     0.046 A 
HETATM   21  C   UNL     1       3.080  27.873  48.930  1.00  0.00     0.006 A 
HETATM   22  C   UNL     1       1.006  28.211  47.717  1.00  0.00     0.018 A 
HETATM   23  C   UNL     1       3.375  26.779  48.109  1.00  0.00     0.014 A 
HETATM   24  C   UNL     1       2.480  26.401  47.101  1.00  0.00     0.001 A 
HETATM   25  C   UNL     1       1.298  27.115  46.906  1.00  0.00     0.001 A 
ENDBRANCH  13  14
ENDBRANCH  10  13
ENDBRANCH   5   9
BRANCH   1  26
HETATM   26  C   UNL     1       7.859  28.540  56.768  1.00  0.00    -0.016 A 
HETATM   27  C   UNL     1       7.234  29.088  57.902  1.00  0.00     0.010 A 
HETATM   28  C   UNL     1       7.908  29.999  58.723  1.00  0.00     0.001 A 
HETATM   29  C   UNL     1       9.218  30.374  58.431  1.00  0.00     0.000 A 
HETATM   30  C   UNL     1       9.859  29.836  57.321  1.00  0.00     0.001 A 
HETATM   31  C   UNL     1       9.191  28.923  56.503  1.00  0.00     0.010 A 
ENDBRANCH   1  26
BRANCH   1  32
HETATM   32  C   UNL     1       7.567  26.045  56.211  1.00  0.00    -0.016 A 
HETATM   33  C   UNL     1       8.447  25.718  57.259  1.00  0.00     0.010 A 
HETATM   34  C   UNL     1       8.761  24.385  57.541  1.00  0.00     0.001 A 
HETATM   35  C   UNL     1       8.201  23.357  56.787  1.00  0.00     0.000 A 
HETATM   36  C   UNL     1       7.325  23.657  55.750  1.00  0.00     0.001 A 
HETATM   37  C   UNL     1       7.011  24.987  55.464  1.00  0.00     0.010 A 
ENDBRANCH   1  32
TORSDOF 5
ENDMDL
MODEL 7
REMARK VINA RESULT:      -9.9      5.135      8.966
REMARK  5 active torsions:
REMARK  status: ('A' for Active; 'I' for Inactive)
REMARK    1  A    between atoms: C_4  and  C_5 
REMARK    2  A    between atoms: C_5  and  C_6 
REMARK    3  A    between atoms: N_15  and  N_16 
REMARK       I    between atoms: N_16  and  C_17 
REMARK    4  A    between atoms: C_17  and  C_18 
REMARK    5  A    between atoms: C_18  and  C_19 
ROOT
HETATM    1  C   UNL     1       2.609  29.579  48.047  1.00  0.00     0.173 A 
HETATM    2  N   UNL     1       2.307  29.851  49.446  1.00  0.00    -0.315 N 
HETATM    3  C   UNL     1       2.731  28.853  50.290  1.00  0.00     0.346 A 
HETATM    4  O   UNL     1       2.631  28.891  51.506  1.00  0.00    -0.245 OA
HETATM    5  N   UNL     1       3.316  27.878  49.535  1.00  0.00    -0.167 N 
HETATM    6  C   UNL     1       3.389  28.231  48.207  1.00  0.00     0.285 A 
HETATM    7  O   UNL     1       3.974  27.619  47.319  1.00  0.00    -0.267 OA
HETATM    8  H   UNL     1       1.768  30.637  49.778  1.00  0.00     0.166 HD
ENDROOT
BRANCH   5   9
HETATM    9  N   UNL     1       3.976  26.786  50.086  1.00  0.00    -0.256 N 
HETATM   10  C   UNL     1       5.261  26.990  50.561  1.00  0.00     0.242 C 
HETATM   11  O   UNL     1       5.830  28.079  50.577  1.00  0.00    -0.271 OA
HETATM   12  H   UNL     1       3.817  25.909  49.590  1.00  0.00     0.191 HD
BRANCH  10  13
HETATM   13  C   UNL     1       5.864  25.760  51.201  1.00  0.00     0.166 C 
BRANCH  13  14
HETATM   14  C   UNL     1       5.756  25.672  52.709  1.00  0.00     0.074 A 
HETATM   15  N   UNL     1       4.944  26.487  53.312  1.00  0.00    -0.175 NA
HETATM   16  N   UNL     1       4.821  26.400  54.663  1.00  0.00    -0.243 N 
HETATM   17  C   UNL     1       5.473  25.509  55.481  1.00  0.00     0.272 A 
HETATM   18  H   UNL     1       4.151  27.028  55.101  1.00  0.00     0.192 HD
HETATM   19  O   UNL     1       5.289  25.468  56.691  1.00  0.00    -0.266 OA
HETATM   20  C   UNL     1       6.423  24.601  54.818  1.00  0.00     0.046 A 
HETATM   21  C   UNL     1       6.571  24.665  53.433  1.00  0.00     0.006 A 
HETATM   22  C   UNL     1       7.171  23.691  55.573  1.00  0.00     0.018 A 
HETATM   23  C   UNL     1       7.476  23.807  52.796  1.00  0.00     0.014 A 
HETATM   24  C   UNL     1       8.230  22.902  53.553  1.00  0.00     0.001 A 
HETATM   25  C   UNL     1       8.079  22.844  54.938  1.00  0.00     0.001 A 
ENDBRANCH  13  14
ENDBRANCH  10  13
ENDBRANCH   5   9
BRANCH   1  26
HETATM   26  C   UNL     1       1.269  29.454  47.309  1.00  0.00    -0.016 A 
HETATM   27  C   UNL     1       0.871  28.270  46.664  1.00  0.00     0.010 A 
HETATM   28  C   UNL     1      -0.380  28.176  46.046  1.00  0.00     0.001 A 
HETATM   29  C   UNL     1      -1.258  29.257  46.064  1.00  0.00     0.000 A 
HETATM   30  C   UNL     1      -0.890  30.434  46.705  1.00  0.00     0.001 A 
HETATM   31  C   UNL     1       0.356  30.530  47.328  1.00  0.00     0.010 A 
ENDBRANCH   1  26
BRANCH   1  32
HETATM   32  C   UNL     1       3.557  30.624  47.434  1.00  0.00    -0.016 A 
HETATM   33  C   UNL     1       4.421  31.417  48.211  1.00  0.00     0.010 A 
HETATM   34  C   UNL     1       5.280  32.342  47.610  1.00  0.00     0.001 A 
HETATM   35  C   UNL     1       5.295  32.490  46.225  1.00  0.00     0.000 A 
HETATM   36  C   UNL     1       4.453  31.713  45.437  1.00  0.00     0.001 A 
HETATM   37  C   UNL     1       3.593  30.790  46.034  1.00  0.00     0.010 A 
ENDBRANCH   1  32
TORSDOF 5
ENDMDL
MODEL 8
REMARK VINA RESULT:      -9.7      4.503      7.608
REMARK  5 active torsions:
REMARK  status: ('A' for Active; 'I' for Inactive)
REMARK    1  A    between atoms: C_4  and  C_5 
REMARK    2  A    between atoms: C_5  and  C_6 
REMARK    3  A    between atoms: N_15  and  N_16 
REMARK       I    between atoms: N_16  and  C_17 
REMARK    4  A    between atoms: C_17  and  C_18 
REMARK    5  A    between atoms: C_18  and  C_19 
ROOT
HETATM    1  C   UNL     1       4.114  28.565  49.453  1.00  0.00     0.173 A 
HETATM    2  N   UNL     1       5.171  27.564  49.404  1.00  0.00    -0.315 N 
HETATM    3  C   UNL     1       5.387  26.953  50.615  1.00  0.00     0.346 A 
HETATM    4  O   UNL     1       6.186  26.048  50.798  1.00  0.00    -0.245 OA
HETATM    5  N   UNL     1       4.523  27.493  51.524  1.00  0.00    -0.167 N 
HETATM    6  C   UNL     1       3.657  28.389  50.940  1.00  0.00     0.285 A 
HETATM    7  O   UNL     1       2.694  28.930  51.474  1.00  0.00    -0.267 OA
HETATM    8  H   UNL     1       5.758  27.383  48.603  1.00  0.00     0.166 HD
ENDROOT
BRANCH   5   9
HETATM    9  N   UNL     1       4.380  27.004  52.817  1.00  0.00    -0.256 N 
HETATM   10  C   UNL     1       5.298  27.426  53.764  1.00  0.00     0.242 C 
HETATM   11  O   UNL     1       6.192  28.241  53.549  1.00  0.00    -0.271 OA
HETATM   12  H   UNL     1       4.109  26.022  52.864  1.00  0.00     0.191 HD
BRANCH  10  13
HETATM   13  C   UNL     1       5.015  26.893  55.150  1.00  0.00     0.166 C 
BRANCH  13  14
HETATM   14  C   UNL     1       6.174  26.217  55.854  1.00  0.00     0.074 A 
HETATM   15  N   UNL     1       6.568  26.705  56.991  1.00  0.00    -0.175 NA
HETATM   16  N   UNL     1       7.590  26.092  57.642  1.00  0.00    -0.243 N 
HETATM   17  C   UNL     1       8.264  24.972  57.220  1.00  0.00     0.272 A 
HETATM   18  H   UNL     1       7.851  26.477  58.547  1.00  0.00     0.192 HD
HETATM   19  O   UNL     1       9.159  24.453  57.878  1.00  0.00    -0.266 OA
HETATM   20  C   UNL     1       7.854  24.425  55.917  1.00  0.00     0.046 A 
HETATM   21  C   UNL     1       6.806  25.031  55.224  1.00  0.00     0.006 A 
HETATM   22  C   UNL     1       8.515  23.314  55.380  1.00  0.00     0.018 A 
HETATM   23  C   UNL     1       6.415  24.519  53.981  1.00  0.00     0.014 A 
HETATM   24  C   UNL     1       7.081  23.414  53.441  1.00  0.00     0.001 A 
HETATM   25  C   UNL     1       8.129  22.812  54.137  1.00  0.00     0.001 A 
ENDBRANCH  13  14
ENDBRANCH  10  13
ENDBRANCH   5   9
BRANCH   1  26
HETATM   26  C   UNL     1       4.759  29.924  49.144  1.00  0.00    -0.016 A 
HETATM   27  C   UNL     1       4.663  30.533  47.880  1.00  0.00     0.010 A 
HETATM   28  C   UNL     1       5.219  31.796  47.649  1.00  0.00     0.001 A 
HETATM   29  C   UNL     1       5.874  32.476  48.673  1.00  0.00     0.000 A 
HETATM   30  C   UNL     1       5.971  31.897  49.934  1.00  0.00     0.001 A 
HETATM   31  C   UNL     1       5.413  30.639  50.169  1.00  0.00     0.010 A 
ENDBRANCH   1  26
BRANCH   1  32
HETATM   32  C   UNL     1       2.931  28.220  48.531  1.00  0.00    -0.016 A 
HETATM   33  C   UNL     1       1.860  29.104  48.304  1.00  0.00     0.010 A 
HETATM   34  C   UNL     1       0.815  28.757  47.442  1.00  0.00     0.001 A 
HETATM   35  C   UNL     1       0.822  27.527  46.790  1.00  0.00     0.000 A 
HETATM   36  C   UNL     1       1.873  26.639  46.996  1.00  0.00     0.001 A 
HETATM   37  C   UNL     1       2.917  26.982  47.857  1.00  0.00     0.010 A 
ENDBRANCH   1  32
TORSDOF 5
ENDMDL
MODEL 9
REMARK VINA RESULT:      -9.6      2.336      4.654
REMARK  5 active torsions:
REMARK  status: ('A' for Active; 'I' for Inactive)
REMARK    1  A    between atoms: C_4  and  C_5 
REMARK    2  A    between atoms: C_5  and  C_6 
REMARK    3  A    between atoms: N_15  and  N_16 
REMARK       I    between atoms: N_16  and  C_17 
REMARK    4  A    between atoms: C_17  and  C_18 
REMARK    5  A    between atoms: C_18  and  C_19 
ROOT
HETATM    1  C   UNL     1       6.603  28.563  55.786  1.00  0.00     0.173 A 
HETATM    2  N   UNL     1       7.983  28.997  55.614  1.00  0.00    -0.315 N 
HETATM    3  C   UNL     1       8.335  30.014  56.469  1.00  0.00     0.346 A 
HETATM    4  O   UNL     1       9.453  30.499  56.539  1.00  0.00    -0.245 OA
HETATM    5  N   UNL     1       7.248  30.320  57.235  1.00  0.00    -0.167 N 
HETATM    6  C   UNL     1       6.192  29.472  56.992  1.00  0.00     0.285 A 
HETATM    7  O   UNL     1       5.137  29.420  57.616  1.00  0.00    -0.267 OA
HETATM    8  H   UNL     1       8.608  28.667  54.893  1.00  0.00     0.166 HD
ENDROOT
BRANCH   5   9
HETATM    9  N   UNL     1       7.298  31.212  58.300  1.00  0.00    -0.256 N 
HETATM   10  C   UNL     1       7.891  30.775  59.473  1.00  0.00     0.242 C 
HETATM   11  O   UNL     1       8.422  29.676  59.614  1.00  0.00    -0.271 OA
HETATM   12  H   UNL     1       6.456  31.778  58.409  1.00  0.00     0.191 HD
BRANCH  10  13
HETATM   13  C   UNL     1       7.956  31.840  60.543  1.00  0.00     0.166 C 
BRANCH  13  14
HETATM   14  C   UNL     1       6.638  32.227  61.180  1.00  0.00     0.074 A 
HETATM   15  N   UNL     1       5.561  32.134  60.460  1.00  0.00    -0.175 NA
HETATM   16  N   UNL     1       4.370  32.456  61.029  1.00  0.00    -0.243 N 
HETATM   17  C   UNL     1       4.175  32.869  62.325  1.00  0.00     0.272 A 
HETATM   18  H   UNL     1       3.541  32.338  60.450  1.00  0.00     0.192 HD
HETATM   19  O   UNL     1       3.064  33.113  62.780  1.00  0.00    -0.266 OA
HETATM   20  C   UNL     1       5.389  33.013  63.145  1.00  0.00     0.046 A 
HETATM   21  C   UNL     1       6.627  32.689  62.590  1.00  0.00     0.006 A 
HETATM   22  C   UNL     1       5.298  33.475  64.463  1.00  0.00     0.018 A 
HETATM   23  C   UNL     1       7.786  32.829  63.363  1.00  0.00     0.014 A 
HETATM   24  C   UNL     1       7.695  33.299  64.679  1.00  0.00     0.001 A 
HETATM   25  C   UNL     1       6.455  33.622  65.227  1.00  0.00     0.001 A 
ENDBRANCH  13  14
ENDBRANCH  10  13
ENDBRANCH   5   9
BRANCH   1  26
HETATM   26  C   UNL     1       5.863  28.871  54.476  1.00  0.00    -0.016 A 
HETATM   27  C   UNL     1       6.218  28.276  53.252  1.00  0.00     0.010 A 
HETATM   28  C   UNL     1       5.488  28.540  52.089  1.00  0.00     0.001 A 
HETATM   29  C   UNL     1       4.389  29.395  52.126  1.00  0.00     0.000 A 
HETATM   30  C   UNL     1       4.012  29.985  53.327  1.00  0.00     0.001 A 
HETATM   31  C   UNL     1       4.736  29.720  54.491  1.00  0.00     0.010 A 
ENDBRANCH   1  26
BRANCH   1  32
HETATM   32  C   UNL     1       6.498  27.091  56.222  1.00  0.00    -0.016 A 
HETATM   33  C   UNL     1       5.267  26.454  56.464  1.00  0.00     0.010 A 
HETATM   34  C   UNL     1       5.217  25.109  56.839  1.00  0.00     0.001 A 
HETATM   35  C   UNL     1       6.392  24.374  56.976  1.00  0.00     0.000 A 
HETATM   36  C   UNL     1       7.620  24.981  56.737  1.00  0.00     0.001 A 
HETATM   37  C   UNL     1       7.674  26.325  56.364  1.00  0.00     0.010 A 
ENDBRANCH   1  32
TORSDOF 5
ENDMDL
MODEL 10
REMARK VINA RESULT:      -9.6      1.890      4.246
REMARK  5 active torsions:
REMARK  status: ('A' for Active; 'I' for Inactive)
REMARK    1  A    between atoms: C_4  and  C_5 
REMARK    2  A    between atoms: C_5  and  C_6 
REMARK    3  A    between atoms: N_15  and  N_16 
REMARK       I    between atoms: N_16  and  C_17 
REMARK    4  A    between atoms: C_17  and  C_18 
REMARK    5  A    between atoms: C_18  and  C_19 
ROOT
HETATM    1  C   UNL     1       7.026  26.673  55.093  1.00  0.00     0.173 A 
HETATM    2  N   UNL     1       8.158  27.586  55.009  1.00  0.00    -0.315 N 
HETATM    3  C   UNL     1       8.012  28.697  55.804  1.00  0.00     0.346 A 
HETATM    4  O   UNL     1       8.857  29.568  55.933  1.00  0.00    -0.245 OA
HETATM    5  N   UNL     1       6.809  28.606  56.443  1.00  0.00    -0.167 N 
HETATM    6  C   UNL     1       6.174  27.414  56.178  1.00  0.00     0.285 A 
HETATM    7  O   UNL     1       5.149  26.997  56.707  1.00  0.00    -0.267 OA
HETATM    8  H   UNL     1       8.938  27.482  54.376  1.00  0.00     0.166 HD
ENDROOT
BRANCH   5   9
HETATM    9  N   UNL     1       6.406  29.497  57.430  1.00  0.00    -0.256 N 
HETATM   10  C   UNL     1       5.811  30.679  57.019  1.00  0.00     0.242 C 
HETATM   11  O   UNL     1       5.568  30.963  55.848  1.00  0.00    -0.271 OA
HETATM   12  H   UNL     1       7.054  29.573  58.214  1.00  0.00     0.191 HD
BRANCH  10  13
HETATM   13  C   UNL     1       5.348  31.547  58.167  1.00  0.00     0.166 C 
BRANCH  13  14
HETATM   14  C   UNL     1       6.330  31.724  59.306  1.00  0.00     0.074 A 
HETATM   15  N   UNL     1       7.416  31.013  59.295  1.00  0.00    -0.175 NA
HETATM   16  N   UNL     1       8.315  31.183  60.299  1.00  0.00    -0.243 N 
HETATM   17  C   UNL     1       8.200  32.059  61.350  1.00  0.00     0.272 A 
HETATM   18  H   UNL     1       9.171  30.636  60.242  1.00  0.00     0.192 HD
HETATM   19  O   UNL     1       9.069  32.181  62.206  1.00  0.00    -0.266 OA
HETATM   20  C   UNL     1       6.960  32.850  61.398  1.00  0.00     0.046 A 
HETATM   21  C   UNL     1       6.018  32.700  60.381  1.00  0.00     0.006 A 
HETATM   22  C   UNL     1       6.729  33.735  62.457  1.00  0.00     0.018 A 
HETATM   23  C   UNL     1       4.833  33.445  60.423  1.00  0.00     0.014 A 
HETATM   24  C   UNL     1       4.599  34.324  61.487  1.00  0.00     0.001 A 
HETATM   25  C   UNL     1       5.544  34.469  62.502  1.00  0.00     0.001 A 
ENDBRANCH  13  14
ENDBRANCH  10  13
ENDBRANCH   5   9
BRANCH   1  26
HETATM   26  C   UNL     1       6.378  26.623  53.702  1.00  0.00    -0.016 A 
HETATM   27  C   UNL     1       6.927  25.881  52.641  1.00  0.00     0.010 A 
HETATM   28  C   UNL     1       6.281  25.816  51.402  1.00  0.00     0.001 A 
HETATM   29  C   UNL     1       5.075  26.483  51.200  1.00  0.00     0.000 A 
HETATM   30  C   UNL     1       4.508  27.214  52.238  1.00  0.00     0.001 A 
HETATM   31  C   UNL     1       5.148  27.277  53.478  1.00  0.00     0.010 A 
ENDBRANCH   1  26
BRANCH   1  32
HETATM   32  C   UNL     1       7.422  25.290  55.639  1.00  0.00    -0.016 A 
HETATM   33  C   UNL     1       6.962  24.088  55.071  1.00  0.00     0.010 A 
HETATM   34  C   UNL     1       7.363  22.852  55.587  1.00  0.00     0.001 A 
HETATM   35  C   UNL     1       8.232  22.793  56.674  1.00  0.00     0.000 A 
HETATM   36  C   UNL     1       8.703  23.969  57.248  1.00  0.00     0.001 A 
HETATM   37  C   UNL     1       8.303  25.205  56.736  1.00  0.00     0.010 A 
ENDBRANCH   1  32
TORSDOF 5
ENDMDL
