MODEL 1
REMARK VINA RESULT:      -9.3      0.000      0.000
REMARK  6 active torsions:
REMARK  status: ('A' for Active; 'I' for Inactive)
REMARK    1  A    between atoms: C_2  and  O_3 
REMARK    2  A    between atoms: O_3  and  C_4 
REMARK    3  A    between atoms: C_4  and  C_5 
REMARK    4  A    between atoms: C_8  and  C_9 
REMARK    5  A    between atoms: C_9  and  N_10 
REMARK    6  A    between atoms: N_10  and  C_11 
ROOT
HETATM    1  N   UNL     1       8.107  25.738  57.153  1.00  0.00    -0.220 N 
HETATM    2  H   UNL     1       8.010  25.782  58.158  1.00  0.00     0.178 HD
ENDROOT
BRANCH   1   3
HETATM    3  C   UNL     1       7.613  26.906  56.451  1.00  0.00     0.176 C 
BRANCH   3   4
HETATM    4  C   UNL     1       8.176  28.155  57.083  1.00  0.00    -0.040 A 
HETATM    5  C   UNL     1       7.399  28.913  57.969  1.00  0.00     0.009 A 
HETATM    6  C   UNL     1       7.924  30.058  58.571  1.00  0.00     0.010 A 
HETATM    7  C   UNL     1       9.232  30.475  58.290  1.00  0.00    -0.035 A 
HETATM    8  C   UNL     1      10.004  29.726  57.394  1.00  0.00     0.010 A 
HETATM    9  C   UNL     1       9.479  28.580  56.791  1.00  0.00     0.009 A 
BRANCH   7  10
HETATM   10  C   UNL     1       9.805  31.686  58.979  1.00  0.00     0.206 C 
BRANCH  10  11
HETATM   11  O   UNL     1       8.720  32.494  59.424  1.00  0.00    -0.382 OA
BRANCH  11  12
HETATM   12  C   UNL     1       8.720  32.737  60.831  1.00  0.00     0.113 C 
HETATM   13  C   UNL     1       9.572  31.702  61.560  1.00  0.00     0.039 C 
HETATM   14  C   UNL     1       7.271  32.648  61.296  1.00  0.00     0.039 C 
ENDBRANCH  11  12
ENDBRANCH  10  11
ENDBRANCH   7  10
ENDBRANCH   3   4
ENDBRANCH   1   3
BRANCH   1  15
HETATM   15  C   UNL     1       8.114  24.511  56.562  1.00  0.00     0.704 A 
HETATM   16  N   UNL     1       8.017  24.353  55.280  1.00  0.00    -0.064 NA
HETATM   17  C   UNL     1       8.027  23.050  54.756  1.00  0.00     0.091 A 
HETATM   18  C   UNL     1       8.145  21.917  55.562  1.00  0.00     0.062 A 
HETATM   19  C   UNL     1       7.916  22.877  53.375  1.00  0.00     0.033 A 
HETATM   20  C   UNL     1       8.263  22.137  57.011  1.00  0.00     0.272 A 
HETATM   21  C   UNL     1       8.150  20.629  55.016  1.00  0.00     0.019 A 
HETATM   22  O   UNL     1       8.384  21.211  57.805  1.00  0.00    -0.267 OA
HETATM   23  N   UNL     1       8.230  23.447  57.415  1.00  0.00    -0.154 N 
HETATM   24  H   UNL     1       8.340  23.602  58.403  1.00  0.00     0.187 HD
HETATM   25  C   UNL     1       8.037  20.472  53.636  1.00  0.00     0.001 A 
HETATM   26  C   UNL     1       7.920  21.595  52.815  1.00  0.00     0.002 A 
ENDBRANCH   1  15
TORSDOF 6
ENDMDL
MODEL 2
REMARK VINA RESULT:      -9.2      1.557      2.338
REMARK  6 active torsions:
REMARK  status: ('A' for Active; 'I' for Inactive)
REMARK    1  A    between atoms: C_2  and  O_3 
REMARK    2  A    between atoms: O_3  and  C_4 
REMARK    3  A    between atoms: C_4  and  C_5 
REMARK    4  A    between atoms: C_8  and  C_9 
REMARK    5  A    between atoms: C_9  and  N_10 
REMARK    6  A    between atoms: N_10  and  C_11 
ROOT
HETATM    1  N   UNL     1       7.369  26.154  56.247  1.00  0.00    -0.220 N 
HETATM    2  H   UNL     1       6.886  26.059  57.129  1.00  0.00     0.178 HD
ENDROOT
BRANCH   1   3
HETATM    3  C   UNL     1       7.270  27.469  55.647  1.00  0.00     0.176 C 
BRANCH   3   4
HETATM    4  C   UNL     1       7.953  28.483  56.530  1.00  0.00    -0.040 A 
HETATM    5  C   UNL     1       9.155  29.079  56.125  1.00  0.00     0.009 A 
HETATM    6  C   UNL     1       9.779  30.033  56.931  1.00  0.00     0.010 A 
HETATM    7  C   UNL     1       9.222  30.401  58.163  1.00  0.00    -0.035 A 
HETATM    8  C   UNL     1       8.029  29.795  58.574  1.00  0.00     0.010 A 
HETATM    9  C   UNL     1       7.403  28.840  57.768  1.00  0.00     0.009 A 
BRANCH   7  10
HETATM   10  C   UNL     1       9.879  31.465  59.004  1.00  0.00     0.206 C 
BRANCH  10  11
HETATM   11  O   UNL     1       8.898  32.451  59.310  1.00  0.00    -0.382 OA
BRANCH  11  12
HETATM   12  C   UNL     1       8.733  32.685  60.710  1.00  0.00     0.113 C 
HETATM   13  C   UNL     1       9.568  31.703  61.526  1.00  0.00     0.039 C 
HETATM   14  C   UNL     1       7.251  32.499  61.018  1.00  0.00     0.039 C 
ENDBRANCH  11  12
ENDBRANCH  10  11
ENDBRANCH   7  10
ENDBRANCH   3   4
ENDBRANCH   1   3
BRANCH   1  15
HETATM   15  C   UNL     1       7.529  25.039  55.481  1.00  0.00     0.704 A 
HETATM   16  N   UNL     1       7.574  23.846  55.984  1.00  0.00    -0.064 NA
HETATM   17  C   UNL     1       7.747  22.753  55.121  1.00  0.00     0.091 A 
HETATM   18  C   UNL     1       7.866  22.899  53.738  1.00  0.00     0.062 A 
HETATM   19  C   UNL     1       7.803  21.467  55.663  1.00  0.00     0.033 A 
HETATM   20  C   UNL     1       7.801  24.266  53.203  1.00  0.00     0.272 A 
HETATM   21  C   UNL     1       8.040  21.794  52.899  1.00  0.00     0.019 A 
HETATM   22  O   UNL     1       7.881  24.503  52.003  1.00  0.00    -0.267 OA
HETATM   23  N   UNL     1       7.641  25.260  54.135  1.00  0.00    -0.154 N 
HETATM   24  H   UNL     1       7.566  26.194  53.769  1.00  0.00     0.187 HD
HETATM   25  C   UNL     1       8.095  20.517  53.454  1.00  0.00     0.001 A 
HETATM   26  C   UNL     1       7.976  20.353  54.835  1.00  0.00     0.002 A 
ENDBRANCH   1  15
TORSDOF 6
ENDMDL
MODEL 3
REMARK VINA RESULT:      -8.7      1.509      2.079
REMARK  6 active torsions:
REMARK  status: ('A' for Active; 'I' for Inactive)
REMARK    1  A    between atoms: C_2  and  O_3 
REMARK    2  A    between atoms: O_3  and  C_4 
REMARK    3  A    between atoms: C_4  and  C_5 
REMARK    4  A    between atoms: C_8  and  C_9 
REMARK    5  A    between atoms: C_9  and  N_10 
REMARK    6  A    between atoms: N_10  and  C_11 
ROOT
HETATM    1  N   UNL     1       6.734  27.098  54.733  1.00  0.00    -0.220 N 
HETATM    2  H   UNL     1       5.777  27.221  54.433  1.00  0.00     0.178 HD
ENDROOT
BRANCH   1   3
HETATM    3  C   UNL     1       7.606  28.216  54.432  1.00  0.00     0.176 C 
BRANCH   3   4
HETATM    4  C   UNL     1       8.057  28.869  55.715  1.00  0.00    -0.040 A 
HETATM    5  C   UNL     1       9.401  29.225  55.894  1.00  0.00     0.009 A 
HETATM    6  C   UNL     1       9.819  29.847  57.071  1.00  0.00     0.010 A 
HETATM    7  C   UNL     1       8.905  30.113  58.100  1.00  0.00    -0.035 A 
HETATM    8  C   UNL     1       7.566  29.744  57.929  1.00  0.00     0.010 A 
HETATM    9  C   UNL     1       7.146  29.122  56.749  1.00  0.00     0.009 A 
BRANCH   7  10
HETATM   10  C   UNL     1       9.356  30.826  59.349  1.00  0.00     0.206 C 
BRANCH  10  11
HETATM   11  O   UNL     1       8.858  30.105  60.471  1.00  0.00    -0.382 OA
BRANCH  11  12
HETATM   12  C   UNL     1       9.074  30.761  61.721  1.00  0.00     0.113 C 
HETATM   13  C   UNL     1       7.746  31.118  62.382  1.00  0.00     0.039 C 
HETATM   14  C   UNL     1       9.871  32.027  61.424  1.00  0.00     0.039 C 
ENDBRANCH  11  12
ENDBRANCH  10  11
ENDBRANCH   7  10
ENDBRANCH   3   4
ENDBRANCH   1   3
BRANCH   1  15
HETATM   15  C   UNL     1       7.220  25.829  54.822  1.00  0.00     0.704 A 
HETATM   16  N   UNL     1       7.196  25.001  53.827  1.00  0.00    -0.064 NA
HETATM   17  C   UNL     1       7.714  23.709  54.007  1.00  0.00     0.091 A 
HETATM   18  C   UNL     1       8.262  23.282  55.218  1.00  0.00     0.062 A 
HETATM   19  C   UNL     1       7.683  22.812  52.937  1.00  0.00     0.033 A 
HETATM   20  C   UNL     1       8.281  24.253  56.322  1.00  0.00     0.272 A 
HETATM   21  C   UNL     1       8.770  21.988  55.374  1.00  0.00     0.019 A 
HETATM   22  O   UNL     1       8.751  23.983  57.421  1.00  0.00    -0.267 OA
HETATM   23  N   UNL     1       7.739  25.481  56.039  1.00  0.00    -0.154 N 
HETATM   24  H   UNL     1       7.778  26.156  56.784  1.00  0.00     0.187 HD
HETATM   25  C   UNL     1       8.730  21.104  54.298  1.00  0.00     0.001 A 
HETATM   26  C   UNL     1       8.187  21.516  53.080  1.00  0.00     0.002 A 
ENDBRANCH   1  15
TORSDOF 6
ENDMDL
MODEL 4
REMARK VINA RESULT:      -8.5      2.938      9.619
REMARK  6 active torsions:
REMARK  status: ('A' for Active; 'I' for Inactive)
REMARK    1  A    between atoms: C_2  and  O_3 
REMARK    2  A    between atoms: O_3  and  C_4 
REMARK    3  A    between atoms: C_4  and  C_5 
REMARK    4  A    between atoms: C_8  and  C_9 
REMARK    5  A    between atoms: C_9  and  N_10 
REMARK    6  A    between atoms: N_10  and  C_11 
ROOT
HETATM    1  N   UNL     1       7.581  30.471  58.083  1.00  0.00    -0.220 N 
HETATM    2  H   UNL     1       8.149  30.919  57.377  1.00  0.00     0.178 HD
ENDROOT
BRANCH   1   3
HETATM    3  C   UNL     1       6.363  29.868  57.580  1.00  0.00     0.176 C 
BRANCH   3   4
HETATM    4  C   UNL     1       6.587  28.396  57.338  1.00  0.00    -0.040 A 
HETATM    5  C   UNL     1       5.513  27.562  56.996  1.00  0.00     0.009 A 
HETATM    6  C   UNL     1       5.720  26.204  56.752  1.00  0.00     0.010 A 
HETATM    7  C   UNL     1       7.002  25.647  56.857  1.00  0.00    -0.035 A 
HETATM    8  C   UNL     1       8.073  26.476  57.212  1.00  0.00     0.010 A 
HETATM    9  C   UNL     1       7.867  27.837  57.456  1.00  0.00     0.009 A 
BRANCH   7  10
HETATM   10  C   UNL     1       7.223  24.189  56.547  1.00  0.00     0.206 C 
BRANCH  10  11
HETATM   11  O   UNL     1       6.740  23.942  55.231  1.00  0.00    -0.382 OA
BRANCH  11  12
HETATM   12  C   UNL     1       7.584  23.086  54.459  1.00  0.00     0.113 C 
HETATM   13  C   UNL     1       8.933  22.893  55.144  1.00  0.00     0.039 C 
HETATM   14  C   UNL     1       7.774  23.758  53.103  1.00  0.00     0.039 C 
ENDBRANCH  11  12
ENDBRANCH  10  11
ENDBRANCH   7  10
ENDBRANCH   3   4
ENDBRANCH   1   3
BRANCH   1  15
HETATM   15  C   UNL     1       7.663  30.935  59.360  1.00  0.00     0.704 A 
HETATM   16  N   UNL     1       6.959  31.935  59.786  1.00  0.00    -0.064 NA
HETATM   17  C   UNL     1       7.110  32.351  61.119  1.00  0.00     0.091 A 
HETATM   18  C   UNL     1       7.986  31.725  62.006  1.00  0.00     0.062 A 
HETATM   19  C   UNL     1       6.357  33.434  61.577  1.00  0.00     0.033 A 
HETATM   20  C   UNL     1       8.761  30.588  61.490  1.00  0.00     0.272 A 
HETATM   21  C   UNL     1       8.121  32.160  63.329  1.00  0.00     0.019 A 
HETATM   22  O   UNL     1       9.548  29.961  62.190  1.00  0.00    -0.267 OA
HETATM   23  N   UNL     1       8.544  30.274  60.172  1.00  0.00    -0.154 N 
HETATM   24  H   UNL     1       9.051  29.477  59.825  1.00  0.00     0.187 HD
HETATM   25  C   UNL     1       7.363  33.243  63.772  1.00  0.00     0.001 A 
HETATM   26  C   UNL     1       6.481  33.879  62.898  1.00  0.00     0.002 A 
ENDBRANCH   1  15
TORSDOF 6
ENDMDL
MODEL 5
REMARK VINA RESULT:      -8.4      2.504      3.186
REMARK  6 active torsions:
REMARK  status: ('A' for Active; 'I' for Inactive)
REMARK    1  A    between atoms: C_2  and  O_3 
REMARK    2  A    between atoms: O_3  and  C_4 
REMARK    3  A    between atoms: C_4  and  C_5 
REMARK    4  A    between atoms: C_8  and  C_9 
REMARK    5  A    between atoms: C_9  and  N_10 
REMARK    6  A    between atoms: N_10  and  C_11 
ROOT
HETATM    1  N   UNL     1       4.904  27.061  56.209  1.00  0.00    -0.220 N 
HETATM    2  H   UNL     1       4.036  26.838  56.676  1.00  0.00     0.178 HD
ENDROOT
BRANCH   1   3
HETATM    3  C   UNL     1       5.056  28.460  55.863  1.00  0.00     0.176 C 
BRANCH   3   4
HETATM    4  C   UNL     1       5.927  29.145  56.887  1.00  0.00    -0.040 A 
HETATM    5  C   UNL     1       5.528  30.363  57.455  1.00  0.00     0.009 A 
HETATM    6  C   UNL     1       6.322  30.989  58.418  1.00  0.00     0.010 A 
HETATM    7  C   UNL     1       7.536  30.418  58.823  1.00  0.00    -0.035 A 
HETATM    8  C   UNL     1       7.941  29.209  58.246  1.00  0.00     0.010 A 
HETATM    9  C   UNL     1       7.147  28.581  57.282  1.00  0.00     0.009 A 
BRANCH   7  10
HETATM   10  C   UNL     1       8.363  31.078  59.895  1.00  0.00     0.206 C 
BRANCH  10  11
HETATM   11  O   UNL     1       7.484  31.492  60.936  1.00  0.00    -0.382 OA
BRANCH  11  12
HETATM   12  C   UNL     1       7.940  31.151  62.246  1.00  0.00     0.113 C 
HETATM   13  C   UNL     1       8.121  32.402  63.100  1.00  0.00     0.039 C 
HETATM   14  C   UNL     1       9.273  30.431  62.077  1.00  0.00     0.039 C 
ENDBRANCH  11  12
ENDBRANCH  10  11
ENDBRANCH   7  10
ENDBRANCH   3   4
ENDBRANCH   1   3
BRANCH   1  15
HETATM   15  C   UNL     1       5.508  26.084  55.477  1.00  0.00     0.704 A 
HETATM   16  N   UNL     1       6.538  25.427  55.907  1.00  0.00    -0.064 NA
HETATM   17  C   UNL     1       7.102  24.439  55.084  1.00  0.00     0.091 A 
HETATM   18  C   UNL     1       6.593  24.132  53.822  1.00  0.00     0.062 A 
HETATM   19  C   UNL     1       8.217  23.734  55.543  1.00  0.00     0.033 A 
HETATM   20  C   UNL     1       5.418  24.892  53.373  1.00  0.00     0.272 A 
HETATM   21  C   UNL     1       7.174  23.144  53.020  1.00  0.00     0.019 A 
HETATM   22  O   UNL     1       4.885  24.691  52.287  1.00  0.00    -0.267 OA
HETATM   23  N   UNL     1       4.955  25.840  54.250  1.00  0.00    -0.154 N 
HETATM   24  H   UNL     1       4.134  26.341  53.957  1.00  0.00     0.187 HD
HETATM   25  C   UNL     1       8.287  22.450  53.491  1.00  0.00     0.001 A 
HETATM   26  C   UNL     1       8.808  22.743  54.751  1.00  0.00     0.002 A 
ENDBRANCH   1  15
TORSDOF 6
ENDMDL
MODEL 6
REMARK VINA RESULT:      -8.2      2.370      9.524
REMARK  6 active torsions:
REMARK  status: ('A' for Active; 'I' for Inactive)
REMARK    1  A    between atoms: C_2  and  O_3 
REMARK    2  A    between atoms: O_3  and  C_4 
REMARK    3  A    between atoms: C_4  and  C_5 
REMARK    4  A    between atoms: C_8  and  C_9 
REMARK    5  A    between atoms: C_9  and  N_10 
REMARK    6  A    between atoms: N_10  and  C_11 
ROOT
HETATM    1  N   UNL     1       7.933  29.298  56.566  1.00  0.00    -0.220 N 
HETATM    2  H   UNL     1       8.558  29.644  55.852  1.00  0.00     0.178 HD
ENDROOT
BRANCH   1   3
HETATM    3  C   UNL     1       6.873  28.442  56.073  1.00  0.00     0.176 C 
BRANCH   3   4
HETATM    4  C   UNL     1       7.344  27.009  56.056  1.00  0.00    -0.040 A 
HETATM    5  C   UNL     1       7.976  26.457  57.179  1.00  0.00     0.009 A 
HETATM    6  C   UNL     1       8.395  25.126  57.174  1.00  0.00     0.010 A 
HETATM    7  C   UNL     1       8.204  24.322  56.042  1.00  0.00    -0.035 A 
HETATM    8  C   UNL     1       7.586  24.877  54.914  1.00  0.00     0.010 A 
HETATM    9  C   UNL     1       7.166  26.210  54.918  1.00  0.00     0.009 A 
BRANCH   7  10
HETATM   10  C   UNL     1       8.618  22.874  56.062  1.00  0.00     0.206 C 
BRANCH  10  11
HETATM   11  O   UNL     1       8.592  22.390  54.723  1.00  0.00    -0.382 OA
BRANCH  11  12
HETATM   12  C   UNL     1       7.920  21.139  54.575  1.00  0.00     0.113 C 
HETATM   13  C   UNL     1       8.347  20.161  55.666  1.00  0.00     0.039 C 
HETATM   14  C   UNL     1       8.296  20.593  53.202  1.00  0.00     0.039 C 
ENDBRANCH  11  12
ENDBRANCH  10  11
ENDBRANCH   7  10
ENDBRANCH   3   4
ENDBRANCH   1   3
BRANCH   1  15
HETATM   15  C   UNL     1       7.767  30.049  57.690  1.00  0.00     0.704 A 
HETATM   16  N   UNL     1       8.633  30.065  58.653  1.00  0.00    -0.064 NA
HETATM   17  C   UNL     1       8.379  30.864  59.779  1.00  0.00     0.091 A 
HETATM   18  C   UNL     1       7.232  31.649  59.900  1.00  0.00     0.062 A 
HETATM   19  C   UNL     1       9.309  30.877  60.821  1.00  0.00     0.033 A 
HETATM   20  C   UNL     1       6.277  31.613  58.783  1.00  0.00     0.272 A 
HETATM   21  C   UNL     1       7.000  32.436  61.033  1.00  0.00     0.019 A 
HETATM   22  O   UNL     1       5.245  32.275  58.783  1.00  0.00    -0.267 OA
HETATM   23  N   UNL     1       6.618  30.790  57.739  1.00  0.00    -0.154 N 
HETATM   24  H   UNL     1       5.981  30.787  56.961  1.00  0.00     0.187 HD
HETATM   25  C   UNL     1       7.937  32.437  62.066  1.00  0.00     0.001 A 
HETATM   26  C   UNL     1       9.090  31.659  61.960  1.00  0.00     0.002 A 
ENDBRANCH   1  15
TORSDOF 6
ENDMDL
MODEL 7
REMARK VINA RESULT:      -8.2      3.143     10.269
REMARK  6 active torsions:
REMARK  status: ('A' for Active; 'I' for Inactive)
REMARK    1  A    between atoms: C_2  and  O_3 
REMARK    2  A    between atoms: O_3  and  C_4 
REMARK    3  A    between atoms: C_4  and  C_5 
REMARK    4  A    between atoms: C_8  and  C_9 
REMARK    5  A    between atoms: C_9  and  N_10 
REMARK    6  A    between atoms: N_10  and  C_11 
ROOT
HETATM    1  N   UNL     1       8.159  30.133  59.899  1.00  0.00    -0.220 N 
HETATM    2  H   UNL     1       8.825  29.505  60.324  1.00  0.00     0.178 HD
ENDROOT
BRANCH   1   3
HETATM    3  C   UNL     1       8.307  30.286  58.466  1.00  0.00     0.176 C 
BRANCH   3   4
HETATM    4  C   UNL     1       7.688  29.104  57.762  1.00  0.00    -0.040 A 
HETATM    5  C   UNL     1       6.305  29.058  57.537  1.00  0.00     0.009 A 
HETATM    6  C   UNL     1       5.732  27.976  56.868  1.00  0.00     0.010 A 
HETATM    7  C   UNL     1       6.526  26.910  56.423  1.00  0.00    -0.035 A 
HETATM    8  C   UNL     1       7.905  26.948  56.661  1.00  0.00     0.010 A 
HETATM    9  C   UNL     1       8.480  28.032  57.330  1.00  0.00     0.009 A 
BRANCH   7  10
HETATM   10  C   UNL     1       5.904  25.768  55.663  1.00  0.00     0.206 C 
BRANCH  10  11
HETATM   11  O   UNL     1       6.825  25.354  54.659  1.00  0.00    -0.382 OA
BRANCH  11  12
HETATM   12  C   UNL     1       6.837  23.944  54.433  1.00  0.00     0.113 C 
HETATM   13  C   UNL     1       7.654  23.230  55.506  1.00  0.00     0.039 C 
HETATM   14  C   UNL     1       7.462  23.721  53.060  1.00  0.00     0.039 C 
ENDBRANCH  11  12
ENDBRANCH  10  11
ENDBRANCH   7  10
ENDBRANCH   3   4
ENDBRANCH   1   3
BRANCH   1  15
HETATM   15  C   UNL     1       7.643  31.135  60.665  1.00  0.00     0.704 A 
HETATM   16  N   UNL     1       8.078  31.396  61.857  1.00  0.00    -0.064 NA
HETATM   17  C   UNL     1       7.486  32.444  62.579  1.00  0.00     0.091 A 
HETATM   18  C   UNL     1       6.448  33.221  62.061  1.00  0.00     0.062 A 
HETATM   19  C   UNL     1       7.949  32.724  63.867  1.00  0.00     0.033 A 
HETATM   20  C   UNL     1       5.988  32.901  60.702  1.00  0.00     0.272 A 
HETATM   21  C   UNL     1       5.872  34.258  62.802  1.00  0.00     0.019 A 
HETATM   22  O   UNL     1       5.093  33.530  60.150  1.00  0.00    -0.267 OA
HETATM   23  N   UNL     1       6.628  31.852  60.092  1.00  0.00    -0.154 N 
HETATM   24  H   UNL     1       6.335  31.650  59.152  1.00  0.00     0.187 HD
HETATM   25  C   UNL     1       6.344  34.524  64.086  1.00  0.00     0.001 A 
HETATM   26  C   UNL     1       7.382  33.758  64.618  1.00  0.00     0.002 A 
ENDBRANCH   1  15
TORSDOF 6
ENDMDL
MODEL 8
REMARK VINA RESULT:      -8.1      4.941      7.724
REMARK  6 active torsions:
REMARK  status: ('A' for Active; 'I' for Inactive)
REMARK    1  A    between atoms: C_2  and  O_3 
REMARK    2  A    between atoms: O_3  and  C_4 
REMARK    3  A    between atoms: C_4  and  C_5 
REMARK    4  A    between atoms: C_8  and  C_9 
REMARK    5  A    between atoms: C_9  and  N_10 
REMARK    6  A    between atoms: N_10  and  C_11 
ROOT
HETATM    1  N   UNL     1       7.834  30.721  60.877  1.00  0.00    -0.220 N 
HETATM    2  H   UNL     1       6.838  30.841  60.999  1.00  0.00     0.178 HD
ENDROOT
BRANCH   1   3
HETATM    3  C   UNL     1       8.647  31.447  61.832  1.00  0.00     0.176 C 
BRANCH   3   4
HETATM    4  C   UNL     1       7.807  32.492  62.524  1.00  0.00    -0.040 A 
HETATM    5  C   UNL     1       6.849  33.220  61.806  1.00  0.00     0.009 A 
HETATM    6  C   UNL     1       6.056  34.173  62.448  1.00  0.00     0.010 A 
HETATM    7  C   UNL     1       6.214  34.427  63.817  1.00  0.00    -0.035 A 
HETATM    8  C   UNL     1       7.182  33.710  64.532  1.00  0.00     0.010 A 
HETATM    9  C   UNL     1       7.975  32.755  63.890  1.00  0.00     0.009 A 
BRANCH   7  10
HETATM   10  C   UNL     1       5.323  35.425  64.511  1.00  0.00     0.206 C 
BRANCH  10  11
HETATM   11  O   UNL     1       5.406  35.189  65.912  1.00  0.00    -0.382 OA
BRANCH  11  12
HETATM   12  C   UNL     1       4.284  34.485  66.446  1.00  0.00     0.113 C 
HETATM   13  C   UNL     1       3.076  35.409  66.576  1.00  0.00     0.039 C 
HETATM   14  C   UNL     1       4.699  33.965  67.818  1.00  0.00     0.039 C 
ENDBRANCH  11  12
ENDBRANCH  10  11
ENDBRANCH   7  10
ENDBRANCH   3   4
ENDBRANCH   1   3
BRANCH   1  15
HETATM   15  C   UNL     1       8.296  30.437  59.628  1.00  0.00     0.704 A 
HETATM   16  N   UNL     1       7.621  29.733  58.777  1.00  0.00    -0.064 NA
HETATM   17  C   UNL     1       8.176  29.484  57.512  1.00  0.00     0.091 A 
HETATM   18  C   UNL     1       9.428  29.970  57.132  1.00  0.00     0.062 A 
HETATM   19  C   UNL     1       7.452  28.719  56.595  1.00  0.00     0.033 A 
HETATM   20  C   UNL     1      10.161  30.774  58.121  1.00  0.00     0.272 A 
HETATM   21  C   UNL     1       9.961  29.706  55.866  1.00  0.00     0.019 A 
HETATM   22  O   UNL     1      11.261  31.259  57.883  1.00  0.00    -0.267 OA
HETATM   23  N   UNL     1       9.531  30.946  59.328  1.00  0.00    -0.154 N 
HETATM   24  H   UNL     1      10.017  31.519  59.995  1.00  0.00     0.187 HD
HETATM   25  C   UNL     1       9.227  28.941  54.962  1.00  0.00     0.001 A 
HETATM   26  C   UNL     1       7.973  28.447  55.325  1.00  0.00     0.002 A 
ENDBRANCH   1  15
TORSDOF 6
ENDMDL
MODEL 9
REMARK VINA RESULT:      -7.9      7.238     10.364
REMARK  6 active torsions:
REMARK  status: ('A' for Active; 'I' for Inactive)
REMARK    1  A    between atoms: C_2  and  O_3 
REMARK    2  A    between atoms: O_3  and  C_4 
REMARK    3  A    between atoms: C_4  and  C_5 
REMARK    4  A    between atoms: C_8  and  C_9 
REMARK    5  A    between atoms: C_9  and  N_10 
REMARK    6  A    between atoms: N_10  and  C_11 
ROOT
HETATM    1  N   UNL     1       5.487  27.034  49.809  1.00  0.00    -0.220 N 
HETATM    2  H   UNL     1       6.084  26.238  49.631  1.00  0.00     0.178 HD
ENDROOT
BRANCH   1   3
HETATM    3  C   UNL     1       5.525  27.520  51.173  1.00  0.00     0.176 C 
BRANCH   3   4
HETATM    4  C   UNL     1       5.964  26.410  52.096  1.00  0.00    -0.040 A 
HETATM    5  C   UNL     1       7.272  26.385  52.601  1.00  0.00     0.009 A 
HETATM    6  C   UNL     1       7.676  25.371  53.471  1.00  0.00     0.010 A 
HETATM    7  C   UNL     1       6.786  24.354  53.843  1.00  0.00    -0.035 A 
HETATM    8  C   UNL     1       5.484  24.371  53.328  1.00  0.00     0.010 A 
HETATM    9  C   UNL     1       5.079  25.386  52.457  1.00  0.00     0.009 A 
BRANCH   7  10
HETATM   10  C   UNL     1       7.218  23.289  54.818  1.00  0.00     0.206 C 
BRANCH  10  11
HETATM   11  O   UNL     1       8.163  22.450  54.163  1.00  0.00    -0.382 OA
BRANCH  11  12
HETATM   12  C   UNL     1       7.844  21.060  54.230  1.00  0.00     0.113 C 
HETATM   13  C   UNL     1       8.608  20.382  55.363  1.00  0.00     0.039 C 
HETATM   14  C   UNL     1       8.238  20.450  52.889  1.00  0.00     0.039 C 
ENDBRANCH  11  12
ENDBRANCH  10  11
ENDBRANCH   7  10
ENDBRANCH   3   4
ENDBRANCH   1   3
BRANCH   1  15
HETATM   15  C   UNL     1       4.376  27.185  49.036  1.00  0.00     0.704 A 
HETATM   16  N   UNL     1       3.638  28.249  49.075  1.00  0.00    -0.064 NA
HETATM   17  C   UNL     1       2.506  28.319  48.248  1.00  0.00     0.091 A 
HETATM   18  C   UNL     1       2.146  27.289  47.379  1.00  0.00     0.062 A 
HETATM   19  C   UNL     1       1.706  29.463  48.293  1.00  0.00     0.033 A 
HETATM   20  C   UNL     1       3.012  26.101  47.355  1.00  0.00     0.272 A 
HETATM   21  C   UNL     1       1.012  27.381  46.565  1.00  0.00     0.019 A 
HETATM   22  O   UNL     1       2.793  25.146  46.618  1.00  0.00    -0.267 OA
HETATM   23  N   UNL     1       4.084  26.133  48.211  1.00  0.00    -0.154 N 
HETATM   24  H   UNL     1       4.694  25.335  48.175  1.00  0.00     0.187 HD
HETATM   25  C   UNL     1       0.222  28.528  46.623  1.00  0.00     0.001 A 
HETATM   26  C   UNL     1       0.569  29.569  47.485  1.00  0.00     0.002 A 
ENDBRANCH   1  15
TORSDOF 6
ENDMDL
MODEL 10
REMARK VINA RESULT:      -7.9      6.601      9.045
REMARK  6 active torsions:
REMARK  status: ('A' for Active; 'I' for Inactive)
REMARK    1  A    between atoms: C_2  and  O_3 
REMARK    2  A    between atoms: O_3  and  C_4 
REMARK    3  A    between atoms: C_4  and  C_5 
REMARK    4  A    between atoms: C_8  and  C_9 
REMARK    5  A    between atoms: C_9  and  N_10 
REMARK    6  A    between atoms: N_10  and  C_11 
ROOT
HETATM    1  N   UNL     1       4.736  26.077  53.370  1.00  0.00    -0.220 N 
HETATM    2  H   UNL     1       3.859  25.711  53.027  1.00  0.00     0.178 HD
ENDROOT
BRANCH   1   3
HETATM    3  C   UNL     1       5.163  27.308  52.736  1.00  0.00     0.176 C 
BRANCH   3   4
HETATM    4  C   UNL     1       4.632  27.363  51.325  1.00  0.00    -0.040 A 
HETATM    5  C   UNL     1       4.940  26.344  50.412  1.00  0.00     0.009 A 
HETATM    6  C   UNL     1       4.434  26.382  49.112  1.00  0.00     0.010 A 
HETATM    7  C   UNL     1       3.621  27.444  48.693  1.00  0.00    -0.035 A 
HETATM    8  C   UNL     1       3.325  28.469  49.600  1.00  0.00     0.010 A 
HETATM    9  C   UNL     1       3.831  28.432  50.902  1.00  0.00     0.009 A 
BRANCH   7  10
HETATM   10  C   UNL     1       3.042  27.453  47.302  1.00  0.00     0.206 C 
BRANCH  10  11
HETATM   11  O   UNL     1       1.623  27.451  47.416  1.00  0.00    -0.382 OA
BRANCH  11  12
HETATM   12  C   UNL     1       0.974  28.380  46.546  1.00  0.00     0.113 C 
HETATM   13  C   UNL     1       0.594  29.652  47.298  1.00  0.00     0.039 C 
HETATM   14  C   UNL     1      -0.278  27.688  46.015  1.00  0.00     0.039 C 
ENDBRANCH  11  12
ENDBRANCH  10  11
ENDBRANCH   7  10
ENDBRANCH   3   4
ENDBRANCH   1   3
BRANCH   1  15
HETATM   15  C   UNL     1       5.640  25.197  53.883  1.00  0.00     0.704 A 
HETATM   16  N   UNL     1       6.246  24.314  53.155  1.00  0.00    -0.064 NA
HETATM   17  C   UNL     1       7.161  23.442  53.767  1.00  0.00     0.091 A 
HETATM   18  C   UNL     1       7.448  23.493  55.131  1.00  0.00     0.062 A 
HETATM   19  C   UNL     1       7.809  22.485  52.984  1.00  0.00     0.033 A 
HETATM   20  C   UNL     1       6.749  24.514  55.924  1.00  0.00     0.272 A 
HETATM   21  C   UNL     1       8.362  22.611  55.719  1.00  0.00     0.019 A 
HETATM   22  O   UNL     1       6.939  24.652  57.127  1.00  0.00    -0.267 OA
HETATM   23  N   UNL     1       5.870  25.305  55.228  1.00  0.00    -0.154 N 
HETATM   24  H   UNL     1       5.412  26.023  55.763  1.00  0.00     0.187 HD
HETATM   25  C   UNL     1       9.001  21.661  54.925  1.00  0.00     0.001 A 
HETATM   26  C   UNL     1       8.725  21.597  53.558  1.00  0.00     0.002 A 
ENDBRANCH   1  15
TORSDOF 6
ENDMDL
