MODEL 1
REMARK VINA RESULT:      -9.0      0.000      0.000
REMARK  5 active torsions:
REMARK  status: ('A' for Active; 'I' for Inactive)
REMARK    1  A    between atoms: C_6  and  C_7 
REMARK    2  A    between atoms: N_10  and  C_12 
REMARK    3  A    between atoms: C_12  and  C_13 
REMARK    4  A    between atoms: C_14  and  N_15 
REMARK    5  A    between atoms: N_15  and  C_16 
ROOT
HETATM    1  C   UNL     1       6.667  26.798  53.363  1.00  0.00    -0.006 A 
HETATM    2  C   UNL     1       6.304  25.569  53.964  1.00  0.00     0.038 A 
HETATM    3  C   UNL     1       5.327  24.774  53.331  1.00  0.00     0.030 A 
HETATM    4  C   UNL     1       4.788  25.129  52.096  1.00  0.00     0.002 A 
HETATM    5  C   UNL     1       5.223  26.282  51.460  1.00  0.00     0.001 A 
HETATM    6  C   UNL     1       6.159  27.107  52.083  1.00  0.00     0.011 A 
ENDROOT
BRANCH   1   7
HETATM    7  C   UNL     1       7.583  27.767  54.080  1.00  0.00     0.275 C 
BRANCH   7   8
HETATM    8  N   UNL     1       7.174  28.154  55.499  1.00  0.00    -0.067 N 
HETATM    9  C   UNL     1       8.188  27.744  56.541  1.00  0.00     0.236 C 
HETATM   10  C   UNL     1       7.638  28.035  57.935  1.00  0.00     0.038 C 
HETATM   11  C   UNL     1       7.131  29.472  58.135  1.00  0.00     0.040 C 
HETATM   12  C   UNL     1       6.253  29.919  56.958  1.00  0.00     0.038 C 
HETATM   13  C   UNL     1       6.879  29.632  55.601  1.00  0.00     0.236 C 
HETATM   14  H   UNL     1       6.300  27.657  55.694  1.00  0.00     0.280 HD
BRANCH  11  15
HETATM   15  C   UNL     1       8.227  30.467  58.416  1.00  0.00     0.035 A 
HETATM   16  N   UNL     1       8.030  31.600  59.188  1.00  0.00    -0.278 N 
HETATM   17  C   UNL     1       6.839  32.005  59.903  1.00  0.00     0.179 C 
HETATM   18  N   UNL     1       9.112  32.391  59.249  1.00  0.00    -0.185 NA
HETATM   19  C   UNL     1      10.061  31.706  58.620  1.00  0.00     0.141 A 
HETATM   20  C   UNL     1       9.569  30.506  58.079  1.00  0.00     0.048 A 
ENDBRANCH  11  15
ENDBRANCH   7   8
ENDBRANCH   1   7
BRANCH   2  21
HETATM   21  N   UNL     1       6.931  25.126  55.152  1.00  0.00    -0.380 N 
HETATM   22  C   UNL     1       5.985  24.719  56.197  1.00  0.00     0.150 C 
BRANCH  21  23
HETATM   23  C   UNL     1       8.220  24.395  54.947  1.00  0.00     0.087 C 
HETATM   24  C   UNL     1       8.204  23.281  53.890  1.00  0.00     0.053 C 
HETATM   25  C   UNL     1       7.667  21.960  54.401  1.00  0.00     0.236 C 
HETATM   26  N   UNL     1       8.471  21.528  55.599  1.00  0.00    -0.075 N 
HETATM   27  H   UNL     1       9.456  21.442  55.308  1.00  0.00     0.279 HD
HETATM   28  C   UNL     1       8.074  20.144  56.060  1.00  0.00     0.269 C 
HETATM   29  C   UNL     1       8.400  22.528  56.721  1.00  0.00     0.236 C 
HETATM   30  C   UNL     1       8.868  23.901  56.251  1.00  0.00     0.053 C 
ENDBRANCH  21  23
ENDBRANCH   2  21
TORSDOF 5
ENDMDL
MODEL 2
REMARK VINA RESULT:      -8.6      3.049      7.509
REMARK  5 active torsions:
REMARK  status: ('A' for Active; 'I' for Inactive)
REMARK    1  A    between atoms: C_6  and  C_7 
REMARK    2  A    between atoms: N_10  and  C_12 
REMARK    3  A    between atoms: C_12  and  C_13 
REMARK    4  A    between atoms: C_14  and  N_15 
REMARK    5  A    between atoms: N_15  and  C_16 
ROOT
HETATM    1  C   UNL     1       6.532  24.363  53.775  1.00  0.00    -0.006 A 
HETATM    2  C   UNL     1       7.146  24.550  55.037  1.00  0.00     0.038 A 
HETATM    3  C   UNL     1       8.169  23.662  55.425  1.00  0.00     0.030 A 
HETATM    4  C   UNL     1       8.642  22.674  54.563  1.00  0.00     0.002 A 
HETATM    5  C   UNL     1       8.109  22.561  53.288  1.00  0.00     0.001 A 
HETATM    6  C   UNL     1       7.069  23.400  52.893  1.00  0.00     0.011 A 
ENDROOT
BRANCH   1   7
HETATM    7  C   UNL     1       5.321  25.178  53.377  1.00  0.00     0.275 C 
BRANCH   7   8
HETATM    8  N   UNL     1       5.479  26.053  52.135  1.00  0.00    -0.067 N 
HETATM    9  C   UNL     1       4.659  25.571  50.962  1.00  0.00     0.236 C 
HETATM   10  C   UNL     1       4.984  26.408  49.728  1.00  0.00     0.038 C 
HETATM   11  C   UNL     1       4.879  27.927  49.940  1.00  0.00     0.040 C 
HETATM   12  C   UNL     1       5.566  28.354  51.246  1.00  0.00     0.038 C 
HETATM   13  C   UNL     1       5.167  27.499  52.439  1.00  0.00     0.236 C 
HETATM   14  H   UNL     1       6.468  26.006  51.872  1.00  0.00     0.280 HD
BRANCH  11  15
HETATM   15  C   UNL     1       3.469  28.453  49.862  1.00  0.00     0.035 A 
HETATM   16  N   UNL     1       2.738  28.463  48.686  1.00  0.00    -0.278 N 
HETATM   17  C   UNL     1       3.112  27.939  47.390  1.00  0.00     0.179 C 
HETATM   18  N   UNL     1       1.535  29.044  48.818  1.00  0.00    -0.185 NA
HETATM   19  C   UNL     1       1.429  29.298  50.117  1.00  0.00     0.141 A 
HETATM   20  C   UNL     1       2.600  28.956  50.814  1.00  0.00     0.048 A 
ENDBRANCH  11  15
ENDBRANCH   7   8
ENDBRANCH   1   7
BRANCH   2  21
HETATM   21  N   UNL     1       6.770  25.626  55.876  1.00  0.00    -0.380 N 
HETATM   22  C   UNL     1       5.962  25.214  57.029  1.00  0.00     0.150 C 
BRANCH  21  23
HETATM   23  C   UNL     1       7.789  26.715  55.995  1.00  0.00     0.087 C 
HETATM   24  C   UNL     1       7.992  27.299  57.401  1.00  0.00     0.053 C 
HETATM   25  C   UNL     1       6.979  28.362  57.775  1.00  0.00     0.236 C 
HETATM   26  N   UNL     1       7.010  29.460  56.745  1.00  0.00    -0.075 N 
HETATM   27  H   UNL     1       7.964  29.849  56.722  1.00  0.00     0.279 HD
HETATM   28  C   UNL     1       6.124  30.618  57.147  1.00  0.00     0.269 C 
HETATM   29  C   UNL     1       6.675  28.957  55.367  1.00  0.00     0.236 C 
HETATM   30  C   UNL     1       7.623  27.836  54.956  1.00  0.00     0.053 C 
ENDBRANCH  21  23
ENDBRANCH   2  21
TORSDOF 5
ENDMDL
MODEL 3
REMARK VINA RESULT:      -8.6      1.436      2.313
REMARK  5 active torsions:
REMARK  status: ('A' for Active; 'I' for Inactive)
REMARK    1  A    between atoms: C_6  and  C_7 
REMARK    2  A    between atoms: N_10  and  C_12 
REMARK    3  A    between atoms: C_12  and  C_13 
REMARK    4  A    between atoms: C_14  and  N_15 
REMARK    5  A    between atoms: N_15  and  C_16 
ROOT
HETATM    1  C   UNL     1       5.295  27.965  53.212  1.00  0.00    -0.006 A 
HETATM    2  C   UNL     1       5.505  26.736  52.543  1.00  0.00     0.038 A 
HETATM    3  C   UNL     1       5.504  26.729  51.133  1.00  0.00     0.030 A 
HETATM    4  C   UNL     1       5.395  27.909  50.400  1.00  0.00     0.002 A 
HETATM    5  C   UNL     1       5.295  29.124  51.061  1.00  0.00     0.001 A 
HETATM    6  C   UNL     1       5.252  29.155  52.454  1.00  0.00     0.011 A 
ENDROOT
BRANCH   1   7
HETATM    7  C   UNL     1       5.119  28.006  54.715  1.00  0.00     0.275 C 
BRANCH   7   8
HETATM    8  N   UNL     1       6.403  27.978  55.543  1.00  0.00    -0.067 N 
HETATM    9  C   UNL     1       7.377  29.069  55.164  1.00  0.00     0.236 C 
HETATM   10  C   UNL     1       8.682  28.881  55.932  1.00  0.00     0.038 C 
HETATM   11  C   UNL     1       8.515  28.738  57.453  1.00  0.00     0.040 C 
HETATM   12  C   UNL     1       7.384  27.757  57.797  1.00  0.00     0.038 C 
HETATM   13  C   UNL     1       6.102  28.027  57.022  1.00  0.00     0.236 C 
HETATM   14  H   UNL     1       6.849  27.075  55.355  1.00  0.00     0.280 HD
BRANCH  11  15
HETATM   15  C   UNL     1       8.343  30.052  58.170  1.00  0.00     0.035 A 
HETATM   16  N   UNL     1       9.362  30.982  58.284  1.00  0.00    -0.278 N 
HETATM   17  C   UNL     1      10.693  30.932  57.718  1.00  0.00     0.179 C 
HETATM   18  N   UNL     1       9.023  32.048  59.026  1.00  0.00    -0.185 NA
HETATM   19  C   UNL     1       7.733  31.874  59.288  1.00  0.00     0.141 A 
HETATM   20  C   UNL     1       7.257  30.651  58.785  1.00  0.00     0.048 A 
ENDBRANCH  11  15
ENDBRANCH   7   8
ENDBRANCH   1   7
BRANCH   2  21
HETATM   21  N   UNL     1       5.747  25.545  53.267  1.00  0.00    -0.380 N 
HETATM   22  C   UNL     1       4.803  24.466  52.952  1.00  0.00     0.150 C 
BRANCH  21  23
HETATM   23  C   UNL     1       7.189  25.256  53.539  1.00  0.00     0.087 C 
HETATM   24  C   UNL     1       7.886  24.309  52.551  1.00  0.00     0.053 C 
HETATM   25  C   UNL     1       7.655  22.840  52.845  1.00  0.00     0.236 C 
HETATM   26  N   UNL     1       8.097  22.541  54.254  1.00  0.00    -0.075 N 
HETATM   27  H   UNL     1       9.095  22.784  54.333  1.00  0.00     0.279 HD
HETATM   28  C   UNL     1       8.027  21.060  54.551  1.00  0.00     0.269 C 
HETATM   29  C   UNL     1       7.336  23.348  55.271  1.00  0.00     0.236 C 
HETATM   30  C   UNL     1       7.476  24.840  54.991  1.00  0.00     0.053 C 
ENDBRANCH  21  23
ENDBRANCH   2  21
TORSDOF 5
ENDMDL
MODEL 4
REMARK VINA RESULT:      -8.5      1.647      4.411
REMARK  5 active torsions:
REMARK  status: ('A' for Active; 'I' for Inactive)
REMARK    1  A    between atoms: C_6  and  C_7 
REMARK    2  A    between atoms: N_10  and  C_12 
REMARK    3  A    between atoms: C_12  and  C_13 
REMARK    4  A    between atoms: C_14  and  N_15 
REMARK    5  A    between atoms: N_15  and  C_16 
ROOT
HETATM    1  C   UNL     1       7.328  24.462  55.866  1.00  0.00    -0.006 A 
HETATM    2  C   UNL     1       7.339  24.800  54.492  1.00  0.00     0.038 A 
HETATM    3  C   UNL     1       7.952  23.911  53.586  1.00  0.00     0.030 A 
HETATM    4  C   UNL     1       8.457  22.681  54.003  1.00  0.00     0.002 A 
HETATM    5  C   UNL     1       8.351  22.308  55.334  1.00  0.00     0.001 A 
HETATM    6  C   UNL     1       7.786  23.186  56.258  1.00  0.00     0.011 A 
ENDROOT
BRANCH   1   7
HETATM    7  C   UNL     1       6.835  25.452  56.901  1.00  0.00     0.275 C 
BRANCH   7   8
HETATM    8  N   UNL     1       6.990  26.929  56.545  1.00  0.00    -0.067 N 
HETATM    9  C   UNL     1       5.858  27.785  57.061  1.00  0.00     0.236 C 
HETATM   10  C   UNL     1       6.014  29.211  56.541  1.00  0.00     0.038 C 
HETATM   11  C   UNL     1       7.394  29.838  56.796  1.00  0.00     0.040 C 
HETATM   12  C   UNL     1       8.522  28.861  56.433  1.00  0.00     0.038 C 
HETATM   13  C   UNL     1       8.319  27.470  57.015  1.00  0.00     0.236 C 
HETATM   14  H   UNL     1       6.987  26.982  55.522  1.00  0.00     0.280 HD
BRANCH  11  15
HETATM   15  C   UNL     1       7.564  30.383  58.190  1.00  0.00     0.035 A 
HETATM   16  N   UNL     1       6.798  31.425  58.686  1.00  0.00    -0.278 N 
HETATM   17  C   UNL     1       5.699  32.116  58.047  1.00  0.00     0.179 C 
HETATM   18  N   UNL     1       7.162  31.807  59.920  1.00  0.00    -0.185 NA
HETATM   19  C   UNL     1       8.085  30.923  60.282  1.00  0.00     0.141 A 
HETATM   20  C   UNL     1       8.377  30.018  59.249  1.00  0.00     0.048 A 
ENDBRANCH  11  15
ENDBRANCH   7   8
ENDBRANCH   1   7
BRANCH   2  21
HETATM   21  N   UNL     1       6.718  25.984  54.028  1.00  0.00    -0.380 N 
HETATM   22  C   UNL     1       7.626  26.873  53.295  1.00  0.00     0.150 C 
BRANCH  21  23
HETATM   23  C   UNL     1       5.290  25.823  53.613  1.00  0.00     0.087 C 
HETATM   24  C   UNL     1       5.046  25.000  52.340  1.00  0.00     0.053 C 
HETATM   25  C   UNL     1       5.210  25.792  51.058  1.00  0.00     0.236 C 
HETATM   26  N   UNL     1       4.291  26.985  51.092  1.00  0.00    -0.075 N 
HETATM   27  H   UNL     1       3.325  26.641  51.195  1.00  0.00     0.279 HD
HETATM   28  C   UNL     1       4.305  27.729  49.775  1.00  0.00     0.269 C 
HETATM   29  C   UNL     1       4.589  27.899  52.249  1.00  0.00     0.236 C 
HETATM   30  C   UNL     1       4.503  27.143  53.570  1.00  0.00     0.053 C 
ENDBRANCH  21  23
ENDBRANCH   2  21
TORSDOF 5
ENDMDL
MODEL 5
REMARK VINA RESULT:      -8.3      3.570      7.603
REMARK  5 active torsions:
REMARK  status: ('A' for Active; 'I' for Inactive)
REMARK    1  A    between atoms: C_6  and  C_7 
REMARK    2  A    between atoms: N_10  and  C_12 
REMARK    3  A    between atoms: C_12  and  C_13 
REMARK    4  A    between atoms: C_14  and  N_15 
REMARK    5  A    between atoms: N_15  and  C_16 
ROOT
HETATM    1  C   UNL     1       4.444  26.881  49.441  1.00  0.00    -0.006 A 
HETATM    2  C   UNL     1       3.891  27.993  48.763  1.00  0.00     0.038 A 
HETATM    3  C   UNL     1       3.087  27.757  47.629  1.00  0.00     0.030 A 
HETATM    4  C   UNL     1       2.758  26.464  47.227  1.00  0.00     0.002 A 
HETATM    5  C   UNL     1       3.216  25.378  47.957  1.00  0.00     0.001 A 
HETATM    6  C   UNL     1       4.046  25.581  49.058  1.00  0.00     0.011 A 
ENDROOT
BRANCH   1   7
HETATM    7  C   UNL     1       5.445  27.078  50.559  1.00  0.00     0.275 C 
BRANCH   7   8
HETATM    8  N   UNL     1       5.625  25.901  51.516  1.00  0.00    -0.067 N 
HETATM    9  C   UNL     1       7.073  25.552  51.763  1.00  0.00     0.236 C 
HETATM   10  C   UNL     1       7.160  24.284  52.607  1.00  0.00     0.038 C 
HETATM   11  C   UNL     1       6.330  24.319  53.901  1.00  0.00     0.040 C 
HETATM   12  C   UNL     1       4.917  24.859  53.639  1.00  0.00     0.038 C 
HETATM   13  C   UNL     1       4.909  26.144  52.824  1.00  0.00     0.236 C 
HETATM   14  H   UNL     1       5.176  25.095  51.071  1.00  0.00     0.280 HD
BRANCH  11  15
HETATM   15  C   UNL     1       7.001  25.055  55.031  1.00  0.00     0.035 A 
HETATM   16  N   UNL     1       7.823  24.426  55.952  1.00  0.00    -0.278 N 
HETATM   17  C   UNL     1       8.245  23.043  55.982  1.00  0.00     0.179 C 
HETATM   18  N   UNL     1       8.256  25.248  56.920  1.00  0.00    -0.185 NA
HETATM   19  C   UNL     1       7.820  26.449  56.557  1.00  0.00     0.141 A 
HETATM   20  C   UNL     1       7.033  26.391  55.394  1.00  0.00     0.048 A 
ENDBRANCH  11  15
ENDBRANCH   7   8
ENDBRANCH   1   7
BRANCH   2  21
HETATM   21  N   UNL     1       4.107  29.311  49.230  1.00  0.00    -0.380 N 
HETATM   22  C   UNL     1       4.998  30.097  48.370  1.00  0.00     0.150 C 
BRANCH  21  23
HETATM   23  C   UNL     1       2.929  29.939  49.903  1.00  0.00     0.087 C 
HETATM   24  C   UNL     1       3.121  31.383  50.392  1.00  0.00     0.053 C 
HETATM   25  C   UNL     1       3.803  31.486  51.741  1.00  0.00     0.236 C 
HETATM   26  N   UNL     1       3.021  30.693  52.755  1.00  0.00    -0.075 N 
HETATM   27  H   UNL     1       2.065  31.076  52.791  1.00  0.00     0.279 HD
HETATM   28  C   UNL     1       3.574  30.882  54.149  1.00  0.00     0.269 C 
HETATM   29  C   UNL     1       2.928  29.237  52.387  1.00  0.00     0.236 C 
HETATM   30  C   UNL     1       2.306  29.067  51.006  1.00  0.00     0.053 C 
ENDBRANCH  21  23
ENDBRANCH   2  21
TORSDOF 5
ENDMDL
MODEL 6
REMARK VINA RESULT:      -8.3      2.477      5.361
REMARK  5 active torsions:
REMARK  status: ('A' for Active; 'I' for Inactive)
REMARK    1  A    between atoms: C_6  and  C_7 
REMARK    2  A    between atoms: N_10  and  C_12 
REMARK    3  A    between atoms: C_12  and  C_13 
REMARK    4  A    between atoms: C_14  and  N_15 
REMARK    5  A    between atoms: N_15  and  C_16 
ROOT
HETATM    1  C   UNL     1       6.477  26.814  53.448  1.00  0.00    -0.006 A 
HETATM    2  C   UNL     1       5.517  26.910  52.412  1.00  0.00     0.038 A 
HETATM    3  C   UNL     1       5.052  25.721  51.815  1.00  0.00     0.030 A 
HETATM    4  C   UNL     1       5.446  24.469  52.283  1.00  0.00     0.002 A 
HETATM    5  C   UNL     1       6.306  24.378  53.367  1.00  0.00     0.001 A 
HETATM    6  C   UNL     1       6.813  25.538  53.950  1.00  0.00     0.011 A 
ENDROOT
BRANCH   1   7
HETATM    7  C   UNL     1       7.133  28.057  54.009  1.00  0.00     0.275 C 
BRANCH   7   8
HETATM    8  N   UNL     1       6.978  28.279  55.513  1.00  0.00    -0.067 N 
HETATM    9  C   UNL     1       8.180  27.827  56.307  1.00  0.00     0.236 C 
HETATM   10  C   UNL     1       7.886  27.947  57.799  1.00  0.00     0.038 C 
HETATM   11  C   UNL     1       7.370  29.326  58.240  1.00  0.00     0.040 C 
HETATM   12  C   UNL     1       6.273  29.836  57.293  1.00  0.00     0.038 C 
HETATM   13  C   UNL     1       6.650  29.720  55.824  1.00  0.00     0.236 C 
HETATM   14  H   UNL     1       6.174  27.716  55.806  1.00  0.00     0.280 HD
BRANCH  11  15
HETATM   15  C   UNL     1       8.459  30.350  58.425  1.00  0.00     0.035 A 
HETATM   16  N   UNL     1       8.304  31.474  59.219  1.00  0.00    -0.278 N 
HETATM   17  C   UNL     1       7.174  31.844  60.042  1.00  0.00     0.179 C 
HETATM   18  N   UNL     1       9.366  32.294  59.185  1.00  0.00    -0.185 NA
HETATM   19  C   UNL     1      10.271  31.638  58.468  1.00  0.00     0.141 A 
HETATM   20  C   UNL     1       9.764  30.427  57.967  1.00  0.00     0.048 A 
ENDBRANCH  11  15
ENDBRANCH   7   8
ENDBRANCH   1   7
BRANCH   2  21
HETATM   21  N   UNL     1       5.006  28.166  52.007  1.00  0.00    -0.380 N 
HETATM   22  C   UNL     1       5.463  28.582  50.677  1.00  0.00     0.150 C 
BRANCH  21  23
HETATM   23  C   UNL     1       3.616  28.458  52.474  1.00  0.00     0.087 C 
HETATM   24  C   UNL     1       2.715  29.213  51.485  1.00  0.00     0.053 C 
HETATM   25  C   UNL     1       2.914  30.715  51.501  1.00  0.00     0.236 C 
HETATM   26  N   UNL     1       2.697  31.229  52.900  1.00  0.00    -0.075 N 
HETATM   27  H   UNL     1       1.739  30.978  53.187  1.00  0.00     0.279 HD
HETATM   28  C   UNL     1       2.736  32.740  52.944  1.00  0.00     0.269 C 
HETATM   29  C   UNL     1       3.656  30.620  53.885  1.00  0.00     0.236 C 
HETATM   30  C   UNL     1       3.551  29.099  53.871  1.00  0.00     0.053 C 
ENDBRANCH  21  23
ENDBRANCH   2  21
TORSDOF 5
ENDMDL
MODEL 7
REMARK VINA RESULT:      -7.8      3.177      7.720
REMARK  5 active torsions:
REMARK  status: ('A' for Active; 'I' for Inactive)
REMARK    1  A    between atoms: C_6  and  C_7 
REMARK    2  A    between atoms: N_10  and  C_12 
REMARK    3  A    between atoms: C_12  and  C_13 
REMARK    4  A    between atoms: C_14  and  N_15 
REMARK    5  A    between atoms: N_15  and  C_16 
ROOT
HETATM    1  C   UNL     1       5.034  26.962  50.660  1.00  0.00    -0.006 A 
HETATM    2  C   UNL     1       5.339  28.129  51.399  1.00  0.00     0.038 A 
HETATM    3  C   UNL     1       5.540  29.335  50.698  1.00  0.00     0.030 A 
HETATM    4  C   UNL     1       5.355  29.415  49.319  1.00  0.00     0.002 A 
HETATM    5  C   UNL     1       4.954  28.291  48.612  1.00  0.00     0.001 A 
HETATM    6  C   UNL     1       4.788  27.076  49.275  1.00  0.00     0.011 A 
ENDROOT
BRANCH   1   7
HETATM    7  C   UNL     1       4.973  25.611  51.341  1.00  0.00     0.275 C 
BRANCH   7   8
HETATM    8  N   UNL     1       6.014  25.359  52.429  1.00  0.00    -0.067 N 
HETATM    9  C   UNL     1       5.482  24.542  53.582  1.00  0.00     0.236 C 
HETATM   10  C   UNL     1       6.534  24.461  54.684  1.00  0.00     0.038 C 
HETATM   11  C   UNL     1       7.919  23.989  54.213  1.00  0.00     0.040 C 
HETATM   12  C   UNL     1       8.344  24.713  52.927  1.00  0.00     0.038 C 
HETATM   13  C   UNL     1       7.259  24.722  51.860  1.00  0.00     0.236 C 
HETATM   14  H   UNL     1       6.284  26.279  52.790  1.00  0.00     0.280 HD
BRANCH  11  15
HETATM   15  C   UNL     1       8.032  22.494  54.068  1.00  0.00     0.035 A 
HETATM   16  N   UNL     1       8.275  21.653  55.141  1.00  0.00    -0.278 N 
HETATM   17  C   UNL     1       8.390  21.994  56.542  1.00  0.00     0.179 C 
HETATM   18  N   UNL     1       8.415  20.367  54.782  1.00  0.00    -0.185 NA
HETATM   19  C   UNL     1       8.132  20.351  53.485  1.00  0.00     0.141 A 
HETATM   20  C   UNL     1       7.890  21.642  52.986  1.00  0.00     0.048 A 
ENDBRANCH  11  15
ENDBRANCH   7   8
ENDBRANCH   1   7
BRANCH   2  21
HETATM   21  N   UNL     1       5.405  28.100  52.812  1.00  0.00    -0.380 N 
HETATM   22  C   UNL     1       6.696  28.546  53.347  1.00  0.00     0.150 C 
BRANCH  21  23
HETATM   23  C   UNL     1       4.123  28.431  53.508  1.00  0.00     0.087 C 
HETATM   24  C   UNL     1       3.446  29.744  53.087  1.00  0.00     0.053 C 
HETATM   25  C   UNL     1       4.006  30.971  53.779  1.00  0.00     0.236 C 
HETATM   26  N   UNL     1       3.905  30.788  55.271  1.00  0.00    -0.075 N 
HETATM   27  H   UNL     1       2.912  30.648  55.509  1.00  0.00     0.279 HD
HETATM   28  C   UNL     1       4.313  32.043  56.009  1.00  0.00     0.269 C 
HETATM   29  C   UNL     1       4.676  29.588  55.749  1.00  0.00     0.236 C 
HETATM   30  C   UNL     1       4.202  28.324  55.040  1.00  0.00     0.053 C 
ENDBRANCH  21  23
ENDBRANCH   2  21
TORSDOF 5
ENDMDL
MODEL 8
REMARK VINA RESULT:      -7.8      4.701     10.566
REMARK  5 active torsions:
REMARK  status: ('A' for Active; 'I' for Inactive)
REMARK    1  A    between atoms: C_6  and  C_7 
REMARK    2  A    between atoms: N_10  and  C_12 
REMARK    3  A    between atoms: C_12  and  C_13 
REMARK    4  A    between atoms: C_14  and  N_15 
REMARK    5  A    between atoms: N_15  and  C_16 
ROOT
HETATM    1  C   UNL     1       7.284  32.416  60.378  1.00  0.00    -0.006 A 
HETATM    2  C   UNL     1       7.353  32.424  61.792  1.00  0.00     0.038 A 
HETATM    3  C   UNL     1       8.552  32.010  62.408  1.00  0.00     0.030 A 
HETATM    4  C   UNL     1       9.681  31.687  61.659  1.00  0.00     0.002 A 
HETATM    5  C   UNL     1       9.641  31.781  60.276  1.00  0.00     0.001 A 
HETATM    6  C   UNL     1       8.457  32.149  59.639  1.00  0.00     0.011 A 
ENDROOT
BRANCH   1   7
HETATM    7  C   UNL     1       5.975  32.689  59.668  1.00  0.00     0.275 C 
BRANCH   7   8
HETATM    8  N   UNL     1       5.346  31.503  58.939  1.00  0.00    -0.067 N 
HETATM    9  C   UNL     1       3.925  31.762  58.500  1.00  0.00     0.236 C 
HETATM   10  C   UNL     1       3.326  30.487  57.915  1.00  0.00     0.038 C 
HETATM   11  C   UNL     1       4.175  29.829  56.815  1.00  0.00     0.040 C 
HETATM   12  C   UNL     1       5.653  29.754  57.225  1.00  0.00     0.038 C 
HETATM   13  C   UNL     1       6.191  31.070  57.765  1.00  0.00     0.236 C 
HETATM   14  H   UNL     1       5.336  30.726  59.606  1.00  0.00     0.280 HD
BRANCH  11  15
HETATM   15  C   UNL     1       4.010  30.466  55.460  1.00  0.00     0.035 A 
HETATM   16  N   UNL     1       4.028  29.738  54.282  1.00  0.00    -0.278 N 
HETATM   17  C   UNL     1       4.125  28.304  54.114  1.00  0.00     0.179 C 
HETATM   18  N   UNL     1       3.941  30.506  53.185  1.00  0.00    -0.185 NA
HETATM   19  C   UNL     1       3.735  31.732  53.654  1.00  0.00     0.141 A 
HETATM   20  C   UNL     1       3.771  31.769  55.058  1.00  0.00     0.048 A 
ENDBRANCH  11  15
ENDBRANCH   7   8
ENDBRANCH   1   7
BRANCH   2  21
HETATM   21  N   UNL     1       6.261  32.871  62.572  1.00  0.00    -0.380 N 
HETATM   22  C   UNL     1       5.414  31.783  63.071  1.00  0.00     0.150 C 
BRANCH  21  23
HETATM   23  C   UNL     1       6.539  34.081  63.407  1.00  0.00     0.087 C 
HETATM   24  C   UNL     1       6.662  33.843  64.919  1.00  0.00     0.053 C 
HETATM   25  C   UNL     1       5.330  33.792  65.641  1.00  0.00     0.236 C 
HETATM   26  N   UNL     1       4.572  35.065  65.374  1.00  0.00    -0.075 N 
HETATM   27  H   UNL     1       5.145  35.854  65.707  1.00  0.00     0.279 HD
HETATM   28  C   UNL     1       3.300  35.131  66.189  1.00  0.00     0.269 C 
HETATM   29  C   UNL     1       4.302  35.269  63.908  1.00  0.00     0.236 C 
HETATM   30  C   UNL     1       5.604  35.266  63.114  1.00  0.00     0.053 C 
ENDBRANCH  21  23
ENDBRANCH   2  21
TORSDOF 5
ENDMDL
MODEL 9
REMARK VINA RESULT:      -7.8      2.890      8.781
REMARK  5 active torsions:
REMARK  status: ('A' for Active; 'I' for Inactive)
REMARK    1  A    between atoms: C_6  and  C_7 
REMARK    2  A    between atoms: N_10  and  C_12 
REMARK    3  A    between atoms: C_12  and  C_13 
REMARK    4  A    between atoms: C_14  and  N_15 
REMARK    5  A    between atoms: N_15  and  C_16 
ROOT
HETATM    1  C   UNL     1       7.033  30.054  57.759  1.00  0.00    -0.006 A 
HETATM    2  C   UNL     1       6.146  31.056  58.220  1.00  0.00     0.038 A 
HETATM    3  C   UNL     1       6.527  31.830  59.335  1.00  0.00     0.030 A 
HETATM    4  C   UNL     1       7.782  31.689  59.923  1.00  0.00     0.002 A 
HETATM    5  C   UNL     1       8.689  30.779  59.403  1.00  0.00     0.001 A 
HETATM    6  C   UNL     1       8.323  29.972  58.327  1.00  0.00     0.011 A 
ENDROOT
BRANCH   1   7
HETATM    7  C   UNL     1       6.608  29.085  56.676  1.00  0.00     0.275 C 
BRANCH   7   8
HETATM    8  N   UNL     1       6.632  27.605  57.052  1.00  0.00    -0.067 N 
HETATM    9  C   UNL     1       5.450  26.836  56.510  1.00  0.00     0.236 C 
HETATM   10  C   UNL     1       5.474  25.409  57.050  1.00  0.00     0.038 C 
HETATM   11  C   UNL     1       6.806  24.670  56.845  1.00  0.00     0.040 C 
HETATM   12  C   UNL     1       7.998  25.557  57.232  1.00  0.00     0.038 C 
HETATM   13  C   UNL     1       7.926  26.952  56.629  1.00  0.00     0.236 C 
HETATM   14  H   UNL     1       6.594  27.565  58.075  1.00  0.00     0.280 HD
BRANCH  11  15
HETATM   15  C   UNL     1       6.973  24.094  55.462  1.00  0.00     0.035 A 
HETATM   16  N   UNL     1       7.620  22.893  55.224  1.00  0.00    -0.278 N 
HETATM   17  C   UNL     1       8.168  21.961  56.185  1.00  0.00     0.179 C 
HETATM   18  N   UNL     1       7.726  22.602  53.918  1.00  0.00    -0.185 NA
HETATM   19  C   UNL     1       7.031  23.554  53.307  1.00  0.00     0.141 A 
HETATM   20  C   UNL     1       6.543  24.510  54.214  1.00  0.00     0.048 A 
ENDBRANCH  11  15
ENDBRANCH   7   8
ENDBRANCH   1   7
BRANCH   2  21
HETATM   21  N   UNL     1       4.920  31.304  57.557  1.00  0.00    -0.380 N 
HETATM   22  C   UNL     1       3.750  31.207  58.437  1.00  0.00     0.150 C 
BRANCH  21  23
HETATM   23  C   UNL     1       4.989  32.329  56.471  1.00  0.00     0.087 C 
HETATM   24  C   UNL     1       4.434  33.718  56.817  1.00  0.00     0.053 C 
HETATM   25  C   UNL     1       2.929  33.830  56.670  1.00  0.00     0.236 C 
HETATM   26  N   UNL     1       2.539  33.448  55.266  1.00  0.00    -0.075 N 
HETATM   27  H   UNL     1       3.024  34.083  54.616  1.00  0.00     0.279 HD
HETATM   28  C   UNL     1       1.066  33.683  55.020  1.00  0.00     0.269 C 
HETATM   29  C   UNL     1       2.939  32.037  54.929  1.00  0.00     0.236 C 
HETATM   30  C   UNL     1       4.439  31.841  55.121  1.00  0.00     0.053 C 
ENDBRANCH  21  23
ENDBRANCH   2  21
TORSDOF 5
ENDMDL
MODEL 10
REMARK VINA RESULT:      -7.7      2.984      9.807
REMARK  5 active torsions:
REMARK  status: ('A' for Active; 'I' for Inactive)
REMARK    1  A    between atoms: C_6  and  C_7 
REMARK    2  A    between atoms: N_10  and  C_12 
REMARK    3  A    between atoms: C_12  and  C_13 
REMARK    4  A    between atoms: C_14  and  N_15 
REMARK    5  A    between atoms: N_15  and  C_16 
ROOT
HETATM    1  C   UNL     1       7.621  31.871  59.912  1.00  0.00    -0.006 A 
HETATM    2  C   UNL     1       6.965  32.177  61.128  1.00  0.00     0.038 A 
HETATM    3  C   UNL     1       7.738  32.278  62.302  1.00  0.00     0.030 A 
HETATM    4  C   UNL     1       9.128  32.174  62.270  1.00  0.00     0.002 A 
HETATM    5  C   UNL     1       9.776  31.979  61.060  1.00  0.00     0.001 A 
HETATM    6  C   UNL     1       9.033  31.834  59.889  1.00  0.00     0.011 A 
ENDROOT
BRANCH   1   7
HETATM    7  C   UNL     1       6.826  31.586  58.656  1.00  0.00     0.275 C 
BRANCH   7   8
HETATM    8  N   UNL     1       6.536  30.115  58.363  1.00  0.00    -0.067 N 
HETATM    9  C   UNL     1       5.374  29.916  57.419  1.00  0.00     0.236 C 
HETATM   10  C   UNL     1       5.061  28.427  57.296  1.00  0.00     0.038 C 
HETATM   11  C   UNL     1       6.270  27.547  56.942  1.00  0.00     0.040 C 
HETATM   12  C   UNL     1       7.491  27.910  57.799  1.00  0.00     0.038 C 
HETATM   13  C   UNL     1       7.765  29.406  57.846  1.00  0.00     0.236 C 
HETATM   14  H   UNL     1       6.294  29.684  59.260  1.00  0.00     0.280 HD
BRANCH  11  15
HETATM   15  C   UNL     1       6.607  27.544  55.474  1.00  0.00     0.035 A 
HETATM   16  N   UNL     1       7.219  26.471  54.847  1.00  0.00    -0.278 N 
HETATM   17  C   UNL     1       7.572  25.185  55.409  1.00  0.00     0.179 C 
HETATM   18  N   UNL     1       7.500  26.704  53.556  1.00  0.00    -0.185 NA
HETATM   19  C   UNL     1       6.952  27.887  53.305  1.00  0.00     0.141 A 
HETATM   20  C   UNL     1       6.386  28.457  54.457  1.00  0.00     0.048 A 
ENDBRANCH  11  15
ENDBRANCH   7   8
ENDBRANCH   1   7
BRANCH   2  21
HETATM   21  N   UNL     1       5.570  32.413  61.163  1.00  0.00    -0.380 N 
HETATM   22  C   UNL     1       4.884  31.706  62.249  1.00  0.00     0.150 C 
BRANCH  21  23
HETATM   23  C   UNL     1       5.157  33.791  60.754  1.00  0.00     0.087 C 
HETATM   24  C   UNL     1       4.840  34.768  61.896  1.00  0.00     0.053 C 
HETATM   25  C   UNL     1       3.434  34.633  62.445  1.00  0.00     0.236 C 
HETATM   26  N   UNL     1       2.445  34.805  61.323  1.00  0.00    -0.075 N 
HETATM   27  H   UNL     1       2.593  35.737  60.907  1.00  0.00     0.279 HD
HETATM   28  C   UNL     1       1.024  34.827  61.840  1.00  0.00     0.269 C 
HETATM   29  C   UNL     1       2.627  33.775  60.242  1.00  0.00     0.236 C 
HETATM   30  C   UNL     1       4.047  33.817  59.690  1.00  0.00     0.053 C 
ENDBRANCH  21  23
ENDBRANCH   2  21
TORSDOF 5
ENDMDL
