MODEL 1
REMARK VINA RESULT:      -9.0      0.000      0.000
REMARK  2 active torsions:
REMARK  status: ('A' for Active; 'I' for Inactive)
REMARK    1  A    between atoms: C_5  and  O_6 
REMARK    2  A    between atoms: C_5  and  C_7 
ROOT
HETATM    1  C   UNL     1       5.369  30.422  57.794  1.00  0.00     0.050 C 
HETATM    2  C   UNL     1       6.523  29.506  57.543  1.00  0.00    -0.035 A 
HETATM    3  C   UNL     1       6.362  28.150  57.308  1.00  0.00     0.051 A 
HETATM    4  C   UNL     1       7.441  27.290  57.046  1.00  0.00     0.018 A 
HETATM    5  C   UNL     1       6.930  25.885  56.864  1.00  0.00     0.198 A 
HETATM    6  C   UNL     1       5.389  26.085  57.047  1.00  0.00     0.266 A 
HETATM    7  O   UNL     1       4.528  25.215  57.059  1.00  0.00    -0.269 OA
HETATM    8  N   UNL     1       5.168  27.437  57.287  1.00  0.00    -0.323 N 
HETATM    9  C   UNL     1       8.736  27.782  57.018  1.00  0.00     0.013 A 
HETATM   10  C   UNL     1       8.926  29.150  57.226  1.00  0.00     0.001 A 
HETATM   11  C   UNL     1       7.834  30.001  57.480  1.00  0.00     0.009 A 
HETATM   12  H   UNL     1       4.250  27.812  57.467  1.00  0.00     0.169 HD
ENDROOT
BRANCH   5  13
HETATM   13  O   UNL     1       7.463  25.066  57.901  1.00  0.00    -0.371 OA
HETATM   14  H   UNL     1       7.129  24.173  57.704  1.00  0.00     0.212 HD
ENDBRANCH   5  13
BRANCH   5  15
HETATM   15  C   UNL     1       7.267  25.372  55.484  1.00  0.00     0.018 A 
HETATM   16  C   UNL     1       7.525  24.022  55.026  1.00  0.00     0.002 A 
HETATM   17  C   UNL     1       7.830  24.088  53.663  1.00  0.00     0.043 A 
HETATM   18  C   UNL     1       7.530  22.744  55.630  1.00  0.00     0.014 A 
HETATM   19  C   UNL     1       8.125  22.962  52.886  1.00  0.00     0.030 A 
HETATM   20  N   UNL     1       7.779  25.409  53.297  1.00  0.00    -0.365 N 
HETATM   21  C   UNL     1       8.106  21.713  53.511  1.00  0.00     0.002 A 
HETATM   22  C   UNL     1       7.811  21.604  54.864  1.00  0.00     0.001 A 
HETATM   23  H   UNL     1       7.969  25.753  52.365  1.00  0.00     0.165 HD
HETATM   24  C   UNL     1       7.440  26.183  54.368  1.00  0.00     0.100 A 
ENDBRANCH   5  15
TORSDOF 2
ENDMDL
MODEL 2
REMARK VINA RESULT:      -8.7      1.239      1.993
REMARK  2 active torsions:
REMARK  status: ('A' for Active; 'I' for Inactive)
REMARK    1  A    between atoms: C_5  and  O_6 
REMARK    2  A    between atoms: C_5  and  C_7 
ROOT
HETATM    1  C   UNL     1       4.945  30.364  57.018  1.00  0.00     0.050 C 
HETATM    2  C   UNL     1       6.203  29.558  57.065  1.00  0.00    -0.035 A 
HETATM    3  C   UNL     1       6.201  28.174  57.135  1.00  0.00     0.051 A 
HETATM    4  C   UNL     1       7.379  27.411  57.152  1.00  0.00     0.018 A 
HETATM    5  C   UNL     1       7.030  25.950  57.261  1.00  0.00     0.198 A 
HETATM    6  C   UNL     1       5.467  26.002  57.284  1.00  0.00     0.266 A 
HETATM    7  O   UNL     1       4.699  25.060  57.432  1.00  0.00    -0.269 OA
HETATM    8  N   UNL     1       5.091  27.338  57.193  1.00  0.00    -0.323 N 
HETATM    9  C   UNL     1       8.617  28.034  57.105  1.00  0.00     0.013 A 
HETATM   10  C   UNL     1       8.649  29.427  57.008  1.00  0.00     0.001 A 
HETATM   11  C   UNL     1       7.459  30.178  56.983  1.00  0.00     0.009 A 
HETATM   12  H   UNL     1       4.128  27.633  57.217  1.00  0.00     0.169 HD
ENDROOT
BRANCH   5  13
HETATM   13  O   UNL     1       7.540  25.447  58.492  1.00  0.00    -0.371 OA
HETATM   14  H   UNL     1       7.373  26.157  59.136  1.00  0.00     0.212 HD
ENDBRANCH   5  13
BRANCH   5  15
HETATM   15  C   UNL     1       7.547  25.190  56.061  1.00  0.00     0.018 A 
HETATM   16  C   UNL     1       7.286  25.382  54.650  1.00  0.00     0.002 A 
HETATM   17  C   UNL     1       7.976  24.386  53.952  1.00  0.00     0.043 A 
HETATM   18  C   UNL     1       6.532  26.304  53.887  1.00  0.00     0.014 A 
HETATM   19  C   UNL     1       7.958  24.273  52.556  1.00  0.00     0.030 A 
HETATM   20  N   UNL     1       8.620  23.609  54.880  1.00  0.00    -0.365 N 
HETATM   21  C   UNL     1       7.216  25.209  51.834  1.00  0.00     0.002 A 
HETATM   22  C   UNL     1       6.513  26.212  52.489  1.00  0.00     0.001 A 
HETATM   23  H   UNL     1       9.188  22.803  54.657  1.00  0.00     0.165 HD
HETATM   24  C   UNL     1       8.378  24.079  56.138  1.00  0.00     0.100 A 
ENDBRANCH   5  15
TORSDOF 2
ENDMDL
MODEL 3
REMARK VINA RESULT:      -8.7      1.952      5.587
REMARK  2 active torsions:
REMARK  status: ('A' for Active; 'I' for Inactive)
REMARK    1  A    between atoms: C_5  and  O_6 
REMARK    2  A    between atoms: C_5  and  C_7 
ROOT
HETATM    1  C   UNL     1       8.304  21.183  56.390  1.00  0.00     0.050 C 
HETATM    2  C   UNL     1       8.003  22.090  55.241  1.00  0.00    -0.035 A 
HETATM    3  C   UNL     1       7.212  23.221  55.370  1.00  0.00     0.051 A 
HETATM    4  C   UNL     1       6.948  24.091  54.300  1.00  0.00     0.018 A 
HETATM    5  C   UNL     1       6.039  25.198  54.766  1.00  0.00     0.198 A 
HETATM    6  C   UNL     1       5.844  24.831  56.274  1.00  0.00     0.266 A 
HETATM    7  O   UNL     1       5.122  25.396  57.084  1.00  0.00    -0.269 OA
HETATM    8  N   UNL     1       6.577  23.675  56.521  1.00  0.00    -0.323 N 
HETATM    9  C   UNL     1       7.478  23.836  53.045  1.00  0.00     0.013 A 
HETATM   10  C   UNL     1       8.299  22.717  52.891  1.00  0.00     0.001 A 
HETATM   11  C   UNL     1       8.562  21.859  53.976  1.00  0.00     0.009 A 
HETATM   12  H   UNL     1       6.588  23.222  57.422  1.00  0.00     0.169 HD
ENDROOT
BRANCH   5  13
HETATM   13  O   UNL     1       4.807  25.109  54.057  1.00  0.00    -0.371 OA
HETATM   14  H   UNL     1       4.378  24.309  54.410  1.00  0.00     0.212 HD
ENDBRANCH   5  13
BRANCH   5  15
HETATM   15  C   UNL     1       6.712  26.541  54.600  1.00  0.00     0.018 A 
HETATM   16  C   UNL     1       7.592  27.262  55.495  1.00  0.00     0.002 A 
HETATM   17  C   UNL     1       7.908  28.482  54.887  1.00  0.00     0.043 A 
HETATM   18  C   UNL     1       8.158  27.006  56.765  1.00  0.00     0.014 A 
HETATM   19  C   UNL     1       8.752  29.435  55.470  1.00  0.00     0.030 A 
HETATM   20  N   UNL     1       7.248  28.522  53.686  1.00  0.00    -0.365 N 
HETATM   21  C   UNL     1       9.306  29.141  56.717  1.00  0.00     0.002 A 
HETATM   22  C   UNL     1       9.014  27.943  57.357  1.00  0.00     0.001 A 
HETATM   23  H   UNL     1       7.285  29.297  53.038  1.00  0.00     0.165 HD
HETATM   24  C   UNL     1       6.537  27.372  53.499  1.00  0.00     0.100 A 
ENDBRANCH   5  15
TORSDOF 2
ENDMDL
MODEL 4
REMARK VINA RESULT:      -8.5      3.743      5.716
REMARK  2 active torsions:
REMARK  status: ('A' for Active; 'I' for Inactive)
REMARK    1  A    between atoms: C_5  and  O_6 
REMARK    2  A    between atoms: C_5  and  C_7 
ROOT
HETATM    1  C   UNL     1       8.502  24.751  56.522  1.00  0.00     0.050 C 
HETATM    2  C   UNL     1       7.862  24.648  55.175  1.00  0.00    -0.035 A 
HETATM    3  C   UNL     1       6.792  25.444  54.795  1.00  0.00     0.051 A 
HETATM    4  C   UNL     1       6.205  25.370  53.522  1.00  0.00     0.018 A 
HETATM    5  C   UNL     1       5.057  26.342  53.442  1.00  0.00     0.198 A 
HETATM    6  C   UNL     1       5.098  26.994  54.863  1.00  0.00     0.266 A 
HETATM    7  O   UNL     1       4.312  27.811  55.324  1.00  0.00    -0.269 OA
HETATM    8  N   UNL     1       6.149  26.410  55.561  1.00  0.00    -0.323 N 
HETATM    9  C   UNL     1       6.682  24.470  52.582  1.00  0.00     0.013 A 
HETATM   10  C   UNL     1       7.774  23.672  52.930  1.00  0.00     0.001 A 
HETATM   11  C   UNL     1       8.359  23.764  54.207  1.00  0.00     0.009 A 
HETATM   12  H   UNL     1       6.362  26.645  56.518  1.00  0.00     0.169 HD
ENDROOT
BRANCH   5  13
HETATM   13  O   UNL     1       3.849  25.611  53.252  1.00  0.00    -0.371 OA
HETATM   14  H   UNL     1       4.075  24.696  53.494  1.00  0.00     0.212 HD
ENDBRANCH   5  13
BRANCH   5  15
HETATM   15  C   UNL     1       5.300  27.361  52.352  1.00  0.00     0.018 A 
HETATM   16  C   UNL     1       5.123  27.256  50.919  1.00  0.00     0.002 A 
HETATM   17  C   UNL     1       5.528  28.469  50.353  1.00  0.00     0.043 A 
HETATM   18  C   UNL     1       4.659  26.252  50.038  1.00  0.00     0.014 A 
HETATM   19  C   UNL     1       5.484  28.728  48.977  1.00  0.00     0.030 A 
HETATM   20  N   UNL     1       5.946  29.278  51.378  1.00  0.00    -0.365 N 
HETATM   21  C   UNL     1       5.005  27.720  48.138  1.00  0.00     0.002 A 
HETATM   22  C   UNL     1       4.597  26.498  48.660  1.00  0.00     0.001 A 
HETATM   23  H   UNL     1       6.305  30.216  51.257  1.00  0.00     0.165 HD
HETATM   24  C   UNL     1       5.811  28.634  52.573  1.00  0.00     0.100 A 
ENDBRANCH   5  15
TORSDOF 2
ENDMDL
MODEL 5
REMARK VINA RESULT:      -8.3     10.146     12.451
REMARK  2 active torsions:
REMARK  status: ('A' for Active; 'I' for Inactive)
REMARK    1  A    between atoms: C_5  and  O_6 
REMARK    2  A    between atoms: C_5  and  C_7 
ROOT
HETATM    1  C   UNL     1       2.752  37.729  60.420  1.00  0.00     0.050 C 
HETATM    2  C   UNL     1       3.580  37.734  61.665  1.00  0.00    -0.035 A 
HETATM    3  C   UNL     1       3.526  36.713  62.601  1.00  0.00     0.051 A 
HETATM    4  C   UNL     1       4.321  36.700  63.758  1.00  0.00     0.018 A 
HETATM    5  C   UNL     1       4.002  35.474  64.572  1.00  0.00     0.198 A 
HETATM    6  C   UNL     1       2.914  34.783  63.686  1.00  0.00     0.266 A 
HETATM    7  O   UNL     1       2.278  33.771  63.951  1.00  0.00    -0.269 OA
HETATM    8  N   UNL     1       2.723  35.579  62.561  1.00  0.00    -0.323 N 
HETATM    9  C   UNL     1       5.205  37.737  64.012  1.00  0.00     0.013 A 
HETATM   10  C   UNL     1       5.298  38.767  63.073  1.00  0.00     0.001 A 
HETATM   11  C   UNL     1       4.500  38.763  61.913  1.00  0.00     0.009 A 
HETATM   12  H   UNL     1       2.045  35.357  61.849  1.00  0.00     0.169 HD
ENDROOT
BRANCH   5  13
HETATM   13  O   UNL     1       3.455  35.883  65.822  1.00  0.00    -0.371 OA
HETATM   14  H   UNL     1       2.859  36.619  65.600  1.00  0.00     0.212 HD
ENDBRANCH   5  13
BRANCH   5  15
HETATM   15  C   UNL     1       5.229  34.606  64.728  1.00  0.00     0.018 A 
HETATM   16  C   UNL     1       6.052  33.962  63.726  1.00  0.00     0.002 A 
HETATM   17  C   UNL     1       7.046  33.239  64.394  1.00  0.00     0.043 A 
HETATM   18  C   UNL     1       6.059  33.918  62.313  1.00  0.00     0.014 A 
HETATM   19  C   UNL     1       8.031  32.495  63.733  1.00  0.00     0.030 A 
HETATM   20  N   UNL     1       6.842  33.412  65.739  1.00  0.00    -0.365 N 
HETATM   21  C   UNL     1       8.017  32.487  62.337  1.00  0.00     0.002 A 
HETATM   22  C   UNL     1       7.045  33.189  61.635  1.00  0.00     0.001 A 
HETATM   23  H   UNL     1       7.408  32.991  66.463  1.00  0.00     0.165 HD
HETATM   24  C   UNL     1       5.768  34.227  65.952  1.00  0.00     0.100 A 
ENDBRANCH   5  15
TORSDOF 2
ENDMDL
MODEL 6
REMARK VINA RESULT:      -8.3      2.252      3.336
REMARK  2 active torsions:
REMARK  status: ('A' for Active; 'I' for Inactive)
REMARK    1  A    between atoms: C_5  and  O_6 
REMARK    2  A    between atoms: C_5  and  C_7 
ROOT
HETATM    1  C   UNL     1       3.659  30.879  57.905  1.00  0.00     0.050 C 
HETATM    2  C   UNL     1       4.202  30.202  56.687  1.00  0.00    -0.035 A 
HETATM    3  C   UNL     1       5.392  29.493  56.696  1.00  0.00     0.051 A 
HETATM    4  C   UNL     1       5.893  28.834  55.562  1.00  0.00     0.018 A 
HETATM    5  C   UNL     1       7.210  28.186  55.899  1.00  0.00     0.198 A 
HETATM    6  C   UNL     1       7.370  28.564  57.408  1.00  0.00     0.266 A 
HETATM    7  O   UNL     1       8.327  28.325  58.133  1.00  0.00    -0.269 OA
HETATM    8  N   UNL     1       6.254  29.311  57.772  1.00  0.00    -0.323 N 
HETATM    9  C   UNL     1       5.199  28.878  54.363  1.00  0.00     0.013 A 
HETATM   10  C   UNL     1       3.984  29.566  54.331  1.00  0.00     0.001 A 
HETATM   11  C   UNL     1       3.490  30.215  55.479  1.00  0.00     0.009 A 
HETATM   12  H   UNL     1       6.139  29.698  58.695  1.00  0.00     0.169 HD
ENDROOT
BRANCH   5  13
HETATM   13  O   UNL     1       8.233  28.789  55.113  1.00  0.00    -0.371 OA
HETATM   14  H   UNL     1       8.263  29.713  55.416  1.00  0.00     0.212 HD
ENDBRANCH   5  13
BRANCH   5  15
HETATM   15  C   UNL     1       7.131  26.689  55.703  1.00  0.00     0.018 A 
HETATM   16  C   UNL     1       7.351  25.889  54.517  1.00  0.00     0.002 A 
HETATM   17  C   UNL     1       7.113  24.553  54.856  1.00  0.00     0.043 A 
HETATM   18  C   UNL     1       7.730  26.160  53.182  1.00  0.00     0.014 A 
HETATM   19  C   UNL     1       7.241  23.495  53.948  1.00  0.00     0.030 A 
HETATM   20  N   UNL     1       6.750  24.527  56.178  1.00  0.00    -0.365 N 
HETATM   21  C   UNL     1       7.633  23.798  52.643  1.00  0.00     0.002 A 
HETATM   22  C   UNL     1       7.876  25.112  52.263  1.00  0.00     0.001 A 
HETATM   23  H   UNL     1       6.507  23.689  56.688  1.00  0.00     0.165 HD
HETATM   24  C   UNL     1       6.762  25.789  56.696  1.00  0.00     0.100 A 
ENDBRANCH   5  15
TORSDOF 2
ENDMDL
MODEL 7
REMARK VINA RESULT:      -8.2      9.525     11.489
REMARK  2 active torsions:
REMARK  status: ('A' for Active; 'I' for Inactive)
REMARK    1  A    between atoms: C_5  and  O_6 
REMARK    2  A    between atoms: C_5  and  C_7 
ROOT
HETATM    1  C   UNL     1       6.734  33.956  66.221  1.00  0.00     0.050 C 
HETATM    2  C   UNL     1       6.626  33.438  64.824  1.00  0.00    -0.035 A 
HETATM    3  C   UNL     1       5.426  33.403  64.131  1.00  0.00     0.051 A 
HETATM    4  C   UNL     1       5.325  32.942  62.809  1.00  0.00     0.018 A 
HETATM    5  C   UNL     1       3.888  33.011  62.363  1.00  0.00     0.198 A 
HETATM    6  C   UNL     1       3.192  33.601  63.633  1.00  0.00     0.266 A 
HETATM    7  O   UNL     1       1.994  33.785  63.802  1.00  0.00    -0.269 OA
HETATM    8  N   UNL     1       4.178  33.803  64.594  1.00  0.00    -0.323 N 
HETATM    9  C   UNL     1       6.449  32.488  62.138  1.00  0.00     0.013 A 
HETATM   10  C   UNL     1       7.676  32.534  62.803  1.00  0.00     0.001 A 
HETATM   11  C   UNL     1       7.764  33.007  64.126  1.00  0.00     0.009 A 
HETATM   12  H   UNL     1       3.972  34.152  65.517  1.00  0.00     0.169 HD
ENDROOT
BRANCH   5  13
HETATM   13  O   UNL     1       3.426  31.689  62.098  1.00  0.00    -0.371 OA
HETATM   14  H   UNL     1       4.061  31.111  62.556  1.00  0.00     0.212 HD
ENDBRANCH   5  13
BRANCH   5  15
HETATM   15  C   UNL     1       3.745  33.928  61.170  1.00  0.00     0.018 A 
HETATM   16  C   UNL     1       4.141  35.310  61.002  1.00  0.00     0.002 A 
HETATM   17  C   UNL     1       3.747  35.711  59.721  1.00  0.00     0.043 A 
HETATM   18  C   UNL     1       4.797  36.269  61.808  1.00  0.00     0.014 A 
HETATM   19  C   UNL     1       3.980  36.995  59.212  1.00  0.00     0.030 A 
HETATM   20  N   UNL     1       3.128  34.639  59.131  1.00  0.00    -0.365 N 
HETATM   21  C   UNL     1       4.644  37.911  60.029  1.00  0.00     0.002 A 
HETATM   22  C   UNL     1       5.049  37.555  61.310  1.00  0.00     0.001 A 
HETATM   23  H   UNL     1       2.730  34.649  58.202  1.00  0.00     0.165 HD
HETATM   24  C   UNL     1       3.124  33.570  59.979  1.00  0.00     0.100 A 
ENDBRANCH   5  15
TORSDOF 2
ENDMDL
MODEL 8
REMARK VINA RESULT:      -7.9      6.274      7.989
REMARK  2 active torsions:
REMARK  status: ('A' for Active; 'I' for Inactive)
REMARK    1  A    between atoms: C_5  and  O_6 
REMARK    2  A    between atoms: C_5  and  C_7 
ROOT
HETATM    1  C   UNL     1       0.972  28.555  46.920  1.00  0.00     0.050 C 
HETATM    2  C   UNL     1       2.036  27.670  47.484  1.00  0.00    -0.035 A 
HETATM    3  C   UNL     1       2.948  28.108  48.432  1.00  0.00     0.051 A 
HETATM    4  C   UNL     1       3.932  27.273  48.983  1.00  0.00     0.018 A 
HETATM    5  C   UNL     1       4.771  28.061  49.956  1.00  0.00     0.198 A 
HETATM    6  C   UNL     1       4.095  29.470  49.883  1.00  0.00     0.266 A 
HETATM    7  O   UNL     1       4.458  30.493  50.448  1.00  0.00    -0.269 OA
HETATM    8  N   UNL     1       3.041  29.383  48.980  1.00  0.00    -0.323 N 
HETATM    9  C   UNL     1       4.032  25.950  48.583  1.00  0.00     0.013 A 
HETATM   10  C   UNL     1       3.111  25.474  47.647  1.00  0.00     0.001 A 
HETATM   11  C   UNL     1       2.124  26.321  47.109  1.00  0.00     0.009 A 
HETATM   12  H   UNL     1       2.467  30.175  48.739  1.00  0.00     0.169 HD
ENDROOT
BRANCH   5  13
HETATM   13  O   UNL     1       6.109  28.113  49.470  1.00  0.00    -0.371 OA
HETATM   14  H   UNL     1       6.589  28.643  50.130  1.00  0.00     0.212 HD
ENDBRANCH   5  13
BRANCH   5  15
HETATM   15  C   UNL     1       4.676  27.466  51.342  1.00  0.00     0.018 A 
HETATM   16  C   UNL     1       5.439  26.399  51.954  1.00  0.00     0.002 A 
HETATM   17  C   UNL     1       4.932  26.202  53.243  1.00  0.00     0.043 A 
HETATM   18  C   UNL     1       6.514  25.575  51.548  1.00  0.00     0.014 A 
HETATM   19  C   UNL     1       5.442  25.247  54.131  1.00  0.00     0.030 A 
HETATM   20  N   UNL     1       3.901  27.089  53.416  1.00  0.00    -0.365 N 
HETATM   21  C   UNL     1       6.514  24.462  53.702  1.00  0.00     0.002 A 
HETATM   22  C   UNL     1       7.044  24.623  52.428  1.00  0.00     0.001 A 
HETATM   23  H   UNL     1       3.342  27.160  54.255  1.00  0.00     0.165 HD
HETATM   24  C   UNL     1       3.741  27.851  52.295  1.00  0.00     0.100 A 
ENDBRANCH   5  15
TORSDOF 2
ENDMDL
MODEL 9
REMARK VINA RESULT:      -7.8      2.415      3.851
REMARK  2 active torsions:
REMARK  status: ('A' for Active; 'I' for Inactive)
REMARK    1  A    between atoms: C_5  and  O_6 
REMARK    2  A    between atoms: C_5  and  C_7 
ROOT
HETATM    1  C   UNL     1       7.803  32.245  59.974  1.00  0.00     0.050 C 
HETATM    2  C   UNL     1       7.101  31.431  58.935  1.00  0.00    -0.035 A 
HETATM    3  C   UNL     1       7.762  30.516  58.131  1.00  0.00     0.051 A 
HETATM    4  C   UNL     1       7.102  29.731  57.172  1.00  0.00     0.018 A 
HETATM    5  C   UNL     1       8.106  28.867  56.455  1.00  0.00     0.198 A 
HETATM    6  C   UNL     1       9.437  29.272  57.170  1.00  0.00     0.266 A 
HETATM    7  O   UNL     1      10.568  28.892  56.896  1.00  0.00    -0.269 OA
HETATM    8  N   UNL     1       9.121  30.225  58.132  1.00  0.00    -0.323 N 
HETATM    9  C   UNL     1       5.734  29.852  56.990  1.00  0.00     0.013 A 
HETATM   10  C   UNL     1       5.037  30.748  57.803  1.00  0.00     0.001 A 
HETATM   11  C   UNL     1       5.711  31.523  58.767  1.00  0.00     0.009 A 
HETATM   12  H   UNL     1       9.821  30.664  58.710  1.00  0.00     0.169 HD
ENDROOT
BRANCH   5  13
HETATM   13  O   UNL     1       8.133  29.240  55.080  1.00  0.00    -0.371 OA
HETATM   14  H   UNL     1       8.515  28.470  54.624  1.00  0.00     0.212 HD
ENDBRANCH   5  13
BRANCH   5  15
HETATM   15  C   UNL     1       7.786  27.403  56.655  1.00  0.00     0.018 A 
HETATM   16  C   UNL     1       7.488  26.371  55.685  1.00  0.00     0.002 A 
HETATM   17  C   UNL     1       7.224  25.191  56.389  1.00  0.00     0.043 A 
HETATM   18  C   UNL     1       7.416  26.313  54.274  1.00  0.00     0.014 A 
HETATM   19  C   UNL     1       6.906  23.979  55.766  1.00  0.00     0.030 A 
HETATM   20  N   UNL     1       7.337  25.480  57.725  1.00  0.00    -0.365 N 
HETATM   21  C   UNL     1       6.859  23.954  54.370  1.00  0.00     0.002 A 
HETATM   22  C   UNL     1       7.111  25.105  53.633  1.00  0.00     0.001 A 
HETATM   23  H   UNL     1       7.186  24.813  58.469  1.00  0.00     0.165 HD
HETATM   24  C   UNL     1       7.677  26.790  57.898  1.00  0.00     0.100 A 
ENDBRANCH   5  15
TORSDOF 2
ENDMDL
MODEL 10
REMARK VINA RESULT:      -7.8      8.032     10.211
REMARK  2 active torsions:
REMARK  status: ('A' for Active; 'I' for Inactive)
REMARK    1  A    between atoms: C_5  and  O_6 
REMARK    2  A    between atoms: C_5  and  C_7 
ROOT
HETATM    1  C   UNL     1       6.386  34.169  66.352  1.00  0.00     0.050 C 
HETATM    2  C   UNL     1       6.439  33.559  64.988  1.00  0.00    -0.035 A 
HETATM    3  C   UNL     1       5.321  33.446  64.177  1.00  0.00     0.051 A 
HETATM    4  C   UNL     1       5.371  32.898  62.885  1.00  0.00     0.018 A 
HETATM    5  C   UNL     1       3.989  32.896  62.287  1.00  0.00     0.198 A 
HETATM    6  C   UNL     1       3.149  33.546  63.435  1.00  0.00     0.266 A 
HETATM    7  O   UNL     1       1.936  33.706  63.463  1.00  0.00    -0.269 OA
HETATM    8  N   UNL     1       4.021  33.838  64.478  1.00  0.00    -0.323 N 
HETATM    9  C   UNL     1       6.571  32.435  62.368  1.00  0.00     0.013 A 
HETATM   10  C   UNL     1       7.718  32.559  63.153  1.00  0.00     0.001 A 
HETATM   11  C   UNL     1       7.654  33.118  64.444  1.00  0.00     0.009 A 
HETATM   12  H   UNL     1       3.710  34.239  65.349  1.00  0.00     0.169 HD
ENDROOT
BRANCH   5  13
HETATM   13  O   UNL     1       3.588  31.548  62.064  1.00  0.00    -0.371 OA
HETATM   14  H   UNL     1       4.209  31.016  62.591  1.00  0.00     0.212 HD
ENDBRANCH   5  13
BRANCH   5  15
HETATM   15  C   UNL     1       3.954  33.731  61.027  1.00  0.00     0.018 A 
HETATM   16  C   UNL     1       4.343  33.396  59.674  1.00  0.00     0.002 A 
HETATM   17  C   UNL     1       4.153  34.535  58.884  1.00  0.00     0.043 A 
HETATM   18  C   UNL     1       4.839  32.238  59.031  1.00  0.00     0.014 A 
HETATM   19  C   UNL     1       4.420  34.571  57.510  1.00  0.00     0.030 A 
HETATM   20  N   UNL     1       3.685  35.527  59.706  1.00  0.00    -0.365 N 
HETATM   21  C   UNL     1       4.893  33.404  56.906  1.00  0.00     0.002 A 
HETATM   22  C   UNL     1       5.099  32.252  57.655  1.00  0.00     0.001 A 
HETATM   23  H   UNL     1       3.471  36.468  59.403  1.00  0.00     0.165 HD
HETATM   24  C   UNL     1       3.557  35.062  60.982  1.00  0.00     0.100 A 
ENDBRANCH   5  15
TORSDOF 2
ENDMDL
