MODEL 1
REMARK VINA RESULT:      -9.7      0.000      0.000
REMARK  3 active torsions:
REMARK  status: ('A' for Active; 'I' for Inactive)
REMARK    1  A    between atoms: C_2  and  C_3 
REMARK       I    between atoms: C_3  and  N_4 
REMARK    2  A    between atoms: N_4  and  N_5 
REMARK    3  A    between atoms: C_21  and  C_22 
ROOT
HETATM    1  C   UNL     1       8.006  27.655  56.897  1.00  0.00     0.288 C 
HETATM    2  N   UNL     1       7.768  26.559  57.702  1.00  0.00    -0.251 N 
HETATM    3  O   UNL     1       7.782  27.663  55.689  1.00  0.00    -0.264 OA
HETATM    4  H   UNL     1       8.186  26.518  58.623  1.00  0.00     0.191 HD
ENDROOT
BRANCH   2   5
HETATM    5  N   UNL     1       7.619  25.329  57.079  1.00  0.00    -0.167 N 
HETATM    6  C   UNL     1       6.417  24.900  56.588  1.00  0.00     0.345 C 
HETATM    7  O   UNL     1       5.346  25.480  56.643  1.00  0.00    -0.245 OA
HETATM    8  N   UNL     1       6.630  23.702  55.940  1.00  0.00    -0.323 N 
HETATM    9  C   UNL     1       8.024  23.289  55.990  1.00  0.00     0.117 C 
HETATM   10  H   UNL     1       5.868  23.197  55.507  1.00  0.00     0.165 HD
HETATM   11  C   UNL     1       8.609  23.102  54.588  1.00  0.00     0.041 C 
HETATM   12  C   UNL     1       8.193  22.039  56.859  1.00  0.00     0.041 C 
HETATM   13  C   UNL     1       8.657  24.519  56.684  1.00  0.00     0.275 C 
HETATM   14  C   UNL     1       8.078  21.842  53.906  1.00  0.00     0.003 C 
HETATM   15  C   UNL     1       8.271  20.604  54.777  1.00  0.00     0.000 C 
HETATM   16  C   UNL     1       7.661  20.785  56.166  1.00  0.00     0.003 C 
HETATM   17  O   UNL     1       9.856  24.714  56.824  1.00  0.00    -0.268 OA
ENDBRANCH   2   5
BRANCH   1  18
HETATM   18  C   UNL     1       8.578  28.792  57.574  1.00  0.00     0.121 A 
HETATM   19  C   UNL     1       8.141  29.615  58.595  1.00  0.00     0.066 A 
HETATM   20  C   UNL     1       9.222  30.488  58.877  1.00  0.00     0.061 A 
HETATM   21  N   UNL     1      10.243  30.267  58.038  1.00  0.00    -0.178 NA
HETATM   22  N   UNL     1       9.833  29.245  57.273  1.00  0.00    -0.272 N 
HETATM   23  H   UNL     1      10.459  28.880  56.561  1.00  0.00     0.189 HD
BRANCH  20  24
HETATM   24  C   UNL     1       9.366  31.548  59.942  1.00  0.00     0.039 C 
HETATM   25  C   UNL     1       8.105  32.413  60.093  1.00  0.00     0.011 C 
HETATM   26  C   UNL     1       7.030  31.776  60.968  1.00  0.00     0.001 C 
HETATM   27  C   UNL     1       7.585  31.389  62.334  1.00  0.00     0.000 C 
HETATM   28  C   UNL     1       8.776  30.449  62.208  1.00  0.00     0.001 C 
HETATM   29  C   UNL     1       9.867  31.010  61.295  1.00  0.00     0.011 C 
ENDBRANCH  20  24
ENDBRANCH   1  18
TORSDOF 3
ENDMDL
MODEL 2
REMARK VINA RESULT:      -9.6      1.344      1.376
REMARK  3 active torsions:
REMARK  status: ('A' for Active; 'I' for Inactive)
REMARK    1  A    between atoms: C_2  and  C_3 
REMARK       I    between atoms: C_3  and  N_4 
REMARK    2  A    between atoms: N_4  and  N_5 
REMARK    3  A    between atoms: C_21  and  C_22 
ROOT
HETATM    1  C   UNL     1       7.335  27.622  56.808  1.00  0.00     0.288 C 
HETATM    2  N   UNL     1       6.769  26.517  57.412  1.00  0.00    -0.251 N 
HETATM    3  O   UNL     1       7.814  27.598  55.676  1.00  0.00    -0.264 OA
HETATM    4  H   UNL     1       6.612  26.522  58.412  1.00  0.00     0.191 HD
ENDROOT
BRANCH   2   5
HETATM    5  N   UNL     1       7.073  25.272  56.881  1.00  0.00    -0.167 N 
HETATM    6  C   UNL     1       6.335  24.706  55.879  1.00  0.00     0.345 C 
HETATM    7  O   UNL     1       5.336  25.162  55.347  1.00  0.00    -0.245 OA
HETATM    8  N   UNL     1       6.957  23.534  55.507  1.00  0.00    -0.323 N 
HETATM    9  C   UNL     1       8.162  23.281  56.282  1.00  0.00     0.117 C 
HETATM   10  H   UNL     1       6.573  22.942  54.781  1.00  0.00     0.165 HD
HETATM   11  C   UNL     1       9.395  23.149  55.383  1.00  0.00     0.041 C 
HETATM   12  C   UNL     1       7.980  22.066  57.196  1.00  0.00     0.041 C 
HETATM   13  C   UNL     1       8.236  24.581  57.119  1.00  0.00     0.275 C 
HETATM   14  C   UNL     1       9.404  21.830  54.610  1.00  0.00     0.003 C 
HETATM   15  C   UNL     1       9.240  20.630  55.538  1.00  0.00     0.000 C 
HETATM   16  C   UNL     1       7.994  20.754  56.413  1.00  0.00     0.003 C 
HETATM   17  O   UNL     1       9.173  24.911  57.833  1.00  0.00    -0.268 OA
ENDBRANCH   2   5
BRANCH   1  18
HETATM   18  C   UNL     1       7.360  28.811  57.621  1.00  0.00     0.121 A 
HETATM   19  C   UNL     1       8.357  29.479  58.307  1.00  0.00     0.066 A 
HETATM   20  C   UNL     1       7.751  30.651  58.826  1.00  0.00     0.061 A 
HETATM   21  N   UNL     1       6.443  30.676  58.540  1.00  0.00    -0.178 NA
HETATM   22  N   UNL     1       6.237  29.568  57.815  1.00  0.00    -0.272 N 
HETATM   23  H   UNL     1       5.304  29.378  57.460  1.00  0.00     0.189 HD
BRANCH  20  24
HETATM   24  C   UNL     1       8.357  31.803  59.591  1.00  0.00     0.039 C 
HETATM   25  C   UNL     1       7.332  32.532  60.474  1.00  0.00     0.011 C 
HETATM   26  C   UNL     1       7.097  31.853  61.820  1.00  0.00     0.001 C 
HETATM   27  C   UNL     1       8.405  31.644  62.573  1.00  0.00     0.000 C 
HETATM   28  C   UNL     1       9.400  30.834  61.750  1.00  0.00     0.001 C 
HETATM   29  C   UNL     1       9.636  31.437  60.365  1.00  0.00     0.011 C 
ENDBRANCH  20  24
ENDBRANCH   1  18
TORSDOF 3
ENDMDL
MODEL 3
REMARK VINA RESULT:      -9.4      1.395      2.184
REMARK  3 active torsions:
REMARK  status: ('A' for Active; 'I' for Inactive)
REMARK    1  A    between atoms: C_2  and  C_3 
REMARK       I    between atoms: C_3  and  N_4 
REMARK    2  A    between atoms: N_4  and  N_5 
REMARK    3  A    between atoms: C_21  and  C_22 
ROOT
HETATM    1  C   UNL     1       7.475  27.578  56.701  1.00  0.00     0.288 C 
HETATM    2  N   UNL     1       7.227  26.391  57.360  1.00  0.00    -0.251 N 
HETATM    3  O   UNL     1       7.769  27.636  55.509  1.00  0.00    -0.264 OA
HETATM    4  H   UNL     1       7.228  26.374  58.373  1.00  0.00     0.191 HD
ENDROOT
BRANCH   2   5
HETATM    5  N   UNL     1       7.673  25.222  56.762  1.00  0.00    -0.167 N 
HETATM    6  C   UNL     1       8.828  24.599  57.147  1.00  0.00     0.345 C 
HETATM    7  O   UNL     1       9.615  24.965  58.004  1.00  0.00    -0.245 OA
HETATM    8  N   UNL     1       8.927  23.421  56.440  1.00  0.00    -0.323 N 
HETATM    9  C   UNL     1       7.806  23.226  55.533  1.00  0.00     0.117 C 
HETATM   10  H   UNL     1       9.717  22.800  56.562  1.00  0.00     0.165 HD
HETATM   11  C   UNL     1       7.060  21.921  55.827  1.00  0.00     0.041 C 
HETATM   12  C   UNL     1       8.261  23.317  54.073  1.00  0.00     0.041 C 
HETATM   13  C   UNL     1       6.931  24.448  55.903  1.00  0.00     0.275 C 
HETATM   14  C   UNL     1       7.856  20.693  55.387  1.00  0.00     0.003 C 
HETATM   15  C   UNL     1       8.286  20.791  53.926  1.00  0.00     0.000 C 
HETATM   16  C   UNL     1       9.053  22.082  53.644  1.00  0.00     0.003 C 
HETATM   17  O   UNL     1       5.791  24.649  55.505  1.00  0.00    -0.268 OA
ENDBRANCH   2   5
BRANCH   1  18
HETATM   18  C   UNL     1       7.401  28.757  57.527  1.00  0.00     0.121 A 
HETATM   19  C   UNL     1       8.337  29.490  58.232  1.00  0.00     0.066 A 
HETATM   20  C   UNL     1       7.639  30.607  58.755  1.00  0.00     0.061 A 
HETATM   21  N   UNL     1       6.336  30.538  58.453  1.00  0.00    -0.178 NA
HETATM   22  N   UNL     1       6.222  29.425  57.715  1.00  0.00    -0.272 N 
HETATM   23  H   UNL     1       5.311  29.169  57.346  1.00  0.00     0.189 HD
BRANCH  20  24
HETATM   24  C   UNL     1       8.148  31.793  59.539  1.00  0.00     0.039 C 
HETATM   25  C   UNL     1       7.097  32.359  60.507  1.00  0.00     0.011 C 
HETATM   26  C   UNL     1       7.019  31.605  61.830  1.00  0.00     0.001 C 
HETATM   27  C   UNL     1       8.384  31.524  62.504  1.00  0.00     0.000 C 
HETATM   28  C   UNL     1       9.418  30.873  61.596  1.00  0.00     0.001 C 
HETATM   29  C   UNL     1       9.503  31.553  60.229  1.00  0.00     0.011 C 
ENDBRANCH  20  24
ENDBRANCH   1  18
TORSDOF 3
ENDMDL
MODEL 4
REMARK VINA RESULT:      -9.4      6.336      9.668
REMARK  3 active torsions:
REMARK  status: ('A' for Active; 'I' for Inactive)
REMARK    1  A    between atoms: C_2  and  C_3 
REMARK       I    between atoms: C_3  and  N_4 
REMARK    2  A    between atoms: N_4  and  N_5 
REMARK    3  A    between atoms: C_21  and  C_22 
ROOT
HETATM    1  C   UNL     1       5.378  25.654  52.258  1.00  0.00     0.288 C 
HETATM    2  N   UNL     1       5.841  26.127  51.047  1.00  0.00    -0.251 N 
HETATM    3  O   UNL     1       4.222  25.812  52.644  1.00  0.00    -0.264 OA
HETATM    4  H   UNL     1       6.838  26.186  50.883  1.00  0.00     0.191 HD
ENDROOT
BRANCH   2   5
HETATM    5  N   UNL     1       5.093  27.112  50.417  1.00  0.00    -0.167 N 
HETATM    6  C   UNL     1       5.280  28.443  50.668  1.00  0.00     0.345 C 
HETATM    7  O   UNL     1       6.062  28.944  51.458  1.00  0.00    -0.245 OA
HETATM    8  N   UNL     1       4.466  29.151  49.810  1.00  0.00    -0.323 N 
HETATM    9  C   UNL     1       3.690  28.280  48.942  1.00  0.00     0.117 C 
HETATM   10  H   UNL     1       4.437  30.163  49.829  1.00  0.00     0.165 HD
HETATM   11  C   UNL     1       3.958  28.570  47.462  1.00  0.00     0.041 C 
HETATM   12  C   UNL     1       2.199  28.353  49.285  1.00  0.00     0.041 C 
HETATM   13  C   UNL     1       4.268  26.900  49.339  1.00  0.00     0.275 C 
HETATM   14  C   UNL     1       3.320  29.882  47.009  1.00  0.00     0.003 C 
HETATM   15  C   UNL     1       1.831  29.932  47.342  1.00  0.00     0.000 C 
HETATM   16  C   UNL     1       1.571  29.668  48.824  1.00  0.00     0.003 C 
HETATM   17  O   UNL     1       4.031  25.843  48.771  1.00  0.00    -0.268 OA
ENDBRANCH   2   5
BRANCH   1  18
HETATM   18  C   UNL     1       6.367  24.987  53.067  1.00  0.00     0.121 A 
HETATM   19  C   UNL     1       7.028  23.778  52.963  1.00  0.00     0.066 A 
HETATM   20  C   UNL     1       7.961  23.754  54.029  1.00  0.00     0.061 A 
HETATM   21  N   UNL     1       7.840  24.850  54.791  1.00  0.00    -0.178 NA
HETATM   22  N   UNL     1       6.883  25.571  54.190  1.00  0.00    -0.272 N 
HETATM   23  H   UNL     1       6.627  26.473  54.582  1.00  0.00     0.189 HD
BRANCH  20  24
HETATM   24  C   UNL     1       9.014  22.731  54.380  1.00  0.00     0.039 C 
HETATM   25  C   UNL     1       9.023  22.377  55.875  1.00  0.00     0.011 C 
HETATM   26  C   UNL     1       7.979  21.334  56.260  1.00  0.00     0.001 C 
HETATM   27  C   UNL     1       8.111  20.077  55.409  1.00  0.00     0.000 C 
HETATM   28  C   UNL     1       8.003  20.394  53.923  1.00  0.00     0.001 C 
HETATM   29  C   UNL     1       8.990  21.477  53.486  1.00  0.00     0.011 C 
ENDBRANCH  20  24
ENDBRANCH   1  18
TORSDOF 3
ENDMDL
MODEL 5
REMARK VINA RESULT:      -9.1      2.332      2.940
REMARK  3 active torsions:
REMARK  status: ('A' for Active; 'I' for Inactive)
REMARK    1  A    between atoms: C_2  and  C_3 
REMARK       I    between atoms: C_3  and  N_4 
REMARK    2  A    between atoms: N_4  and  N_5 
REMARK    3  A    between atoms: C_21  and  C_22 
ROOT
HETATM    1  C   UNL     1       7.556  28.984  57.612  1.00  0.00     0.288 C 
HETATM    2  N   UNL     1       6.711  28.885  56.526  1.00  0.00    -0.251 N 
HETATM    3  O   UNL     1       8.445  28.168  57.849  1.00  0.00    -0.264 OA
HETATM    4  H   UNL     1       5.858  29.431  56.506  1.00  0.00     0.191 HD
ENDROOT
BRANCH   2   5
HETATM    5  N   UNL     1       6.621  27.652  55.896  1.00  0.00    -0.167 N 
HETATM    6  C   UNL     1       5.654  26.738  56.212  1.00  0.00     0.345 C 
HETATM    7  O   UNL     1       4.790  26.842  57.066  1.00  0.00    -0.245 OA
HETATM    8  N   UNL     1       5.774  25.679  55.340  1.00  0.00    -0.323 N 
HETATM    9  C   UNL     1       6.863  25.865  54.392  1.00  0.00     0.117 C 
HETATM   10  H   UNL     1       5.160  24.877  55.400  1.00  0.00     0.165 HD
HETATM   11  C   UNL     1       6.367  25.816  52.944  1.00  0.00     0.041 C 
HETATM   12  C   UNL     1       7.992  24.863  54.653  1.00  0.00     0.041 C 
HETATM   13  C   UNL     1       7.316  27.297  54.764  1.00  0.00     0.275 C 
HETATM   14  C   UNL     1       6.000  24.398  52.510  1.00  0.00     0.003 C 
HETATM   15  C   UNL     1       7.141  23.416  52.759  1.00  0.00     0.000 C 
HETATM   16  C   UNL     1       7.613  23.449  54.211  1.00  0.00     0.003 C 
HETATM   17  O   UNL     1       8.126  27.968  54.140  1.00  0.00    -0.268 OA
ENDBRANCH   2   5
BRANCH   1  18
HETATM   18  C   UNL     1       7.298  30.104  58.481  1.00  0.00     0.121 A 
HETATM   19  C   UNL     1       8.031  30.737  59.468  1.00  0.00     0.066 A 
HETATM   20  C   UNL     1       7.252  31.848  59.876  1.00  0.00     0.061 A 
HETATM   21  N   UNL     1       6.077  31.867  59.233  1.00  0.00    -0.178 NA
HETATM   22  N   UNL     1       6.133  30.816  58.402  1.00  0.00    -0.272 N 
HETATM   23  H   UNL     1       5.348  30.634  57.784  1.00  0.00     0.189 HD
BRANCH  20  24
HETATM   24  C   UNL     1       7.565  32.949  60.861  1.00  0.00     0.039 C 
HETATM   25  C   UNL     1       6.310  33.494  61.561  1.00  0.00     0.011 C 
HETATM   26  C   UNL     1       5.862  32.650  62.750  1.00  0.00     0.001 C 
HETATM   27  C   UNL     1       6.995  32.456  63.751  1.00  0.00     0.000 C 
HETATM   28  C   UNL     1       8.216  31.822  63.096  1.00  0.00     0.001 C 
HETATM   29  C   UNL     1       8.680  32.594  61.861  1.00  0.00     0.011 C 
ENDBRANCH  20  24
ENDBRANCH   1  18
TORSDOF 3
ENDMDL
MODEL 6
REMARK VINA RESULT:      -9.1      7.216     10.460
REMARK  3 active torsions:
REMARK  status: ('A' for Active; 'I' for Inactive)
REMARK    1  A    between atoms: C_2  and  C_3 
REMARK       I    between atoms: C_3  and  N_4 
REMARK    2  A    between atoms: N_4  and  N_5 
REMARK    3  A    between atoms: C_21  and  C_22 
ROOT
HETATM    1  C   UNL     1       5.481  26.716  51.239  1.00  0.00     0.288 C 
HETATM    2  N   UNL     1       4.461  26.341  50.388  1.00  0.00    -0.251 N 
HETATM    3  O   UNL     1       5.857  27.880  51.364  1.00  0.00    -0.264 OA
HETATM    4  H   UNL     1       4.352  25.365  50.142  1.00  0.00     0.191 HD
ENDROOT
BRANCH   2   5
HETATM    5  N   UNL     1       4.099  27.233  49.390  1.00  0.00    -0.167 N 
HETATM    6  C   UNL     1       4.391  27.012  48.072  1.00  0.00     0.345 C 
HETATM    7  O   UNL     1       5.005  26.070  47.598  1.00  0.00    -0.245 OA
HETATM    8  N   UNL     1       3.806  28.019  47.336  1.00  0.00    -0.323 N 
HETATM    9  C   UNL     1       3.089  28.968  48.174  1.00  0.00     0.117 C 
HETATM   10  H   UNL     1       3.903  28.059  46.330  1.00  0.00     0.165 HD
HETATM   11  C   UNL     1       1.612  29.069  47.780  1.00  0.00     0.041 C 
HETATM   12  C   UNL     1       3.783  30.334  48.171  1.00  0.00     0.041 C 
HETATM   13  C   UNL     1       3.238  28.291  49.557  1.00  0.00     0.275 C 
HETATM   14  C   UNL     1       1.419  29.818  46.462  1.00  0.00     0.003 C 
HETATM   15  C   UNL     1       2.101  31.183  46.482  1.00  0.00     0.000 C 
HETATM   16  C   UNL     1       3.579  31.075  46.849  1.00  0.00     0.003 C 
HETATM   17  O   UNL     1       2.670  28.640  50.582  1.00  0.00    -0.268 OA
ENDBRANCH   2   5
BRANCH   1  18
HETATM   18  C   UNL     1       6.109  25.632  51.950  1.00  0.00     0.121 A 
HETATM   19  C   UNL     1       7.359  25.046  51.889  1.00  0.00     0.066 A 
HETATM   20  C   UNL     1       7.389  24.087  52.932  1.00  0.00     0.061 A 
HETATM   21  N   UNL     1       6.206  24.031  53.559  1.00  0.00    -0.178 NA
HETATM   22  N   UNL     1       5.461  24.967  52.955  1.00  0.00    -0.272 N 
HETATM   23  H   UNL     1       4.512  25.126  53.279  1.00  0.00     0.189 HD
BRANCH  20  24
HETATM   24  C   UNL     1       8.512  23.198  53.407  1.00  0.00     0.039 C 
HETATM   25  C   UNL     1       8.599  23.117  54.939  1.00  0.00     0.011 C 
HETATM   26  C   UNL     1       7.633  22.108  55.551  1.00  0.00     0.001 C 
HETATM   27  C   UNL     1       7.805  20.727  54.929  1.00  0.00     0.000 C 
HETATM   28  C   UNL     1       7.623  20.769  53.417  1.00  0.00     0.001 C 
HETATM   29  C   UNL     1       8.527  21.805  52.750  1.00  0.00     0.011 C 
ENDBRANCH  20  24
ENDBRANCH   1  18
TORSDOF 3
ENDMDL
MODEL 7
REMARK VINA RESULT:      -9.0      3.372      8.884
REMARK  3 active torsions:
REMARK  status: ('A' for Active; 'I' for Inactive)
REMARK    1  A    between atoms: C_2  and  C_3 
REMARK       I    between atoms: C_3  and  N_4 
REMARK    2  A    between atoms: N_4  and  N_5 
REMARK    3  A    between atoms: C_21  and  C_22 
ROOT
HETATM    1  C   UNL     1       5.397  29.263  56.638  1.00  0.00     0.288 C 
HETATM    2  N   UNL     1       6.578  29.973  56.718  1.00  0.00    -0.251 N 
HETATM    3  O   UNL     1       4.617  29.148  57.581  1.00  0.00    -0.264 OA
HETATM    4  H   UNL     1       7.288  29.839  56.009  1.00  0.00     0.191 HD
ENDROOT
BRANCH   2   5
HETATM    5  N   UNL     1       7.070  30.255  57.984  1.00  0.00    -0.167 N 
HETATM    6  C   UNL     1       7.872  29.382  58.666  1.00  0.00     0.345 C 
HETATM    7  O   UNL     1       8.235  28.275  58.306  1.00  0.00    -0.245 OA
HETATM    8  N   UNL     1       8.274  30.001  59.830  1.00  0.00    -0.323 N 
HETATM    9  C   UNL     1       7.727  31.343  59.957  1.00  0.00     0.117 C 
HETATM   10  H   UNL     1       8.871  29.529  60.497  1.00  0.00     0.165 HD
HETATM   11  C   UNL     1       8.832  32.394  60.096  1.00  0.00     0.041 C 
HETATM   12  C   UNL     1       6.713  31.414  61.103  1.00  0.00     0.041 C 
HETATM   13  C   UNL     1       7.011  31.485  58.593  1.00  0.00     0.275 C 
HETATM   14  C   UNL     1       9.500  32.347  61.470  1.00  0.00     0.003 C 
HETATM   15  C   UNL     1       8.478  32.437  62.599  1.00  0.00     0.000 C 
HETATM   16  C   UNL     1       7.393  31.370  62.471  1.00  0.00     0.003 C 
HETATM   17  O   UNL     1       6.512  32.514  58.157  1.00  0.00    -0.268 OA
ENDBRANCH   2   5
BRANCH   1  18
HETATM   18  C   UNL     1       5.157  28.625  55.368  1.00  0.00     0.121 A 
HETATM   19  C   UNL     1       5.626  27.467  54.777  1.00  0.00     0.066 A 
HETATM   20  C   UNL     1       4.920  27.344  53.554  1.00  0.00     0.061 A 
HETATM   21  N   UNL     1       4.113  28.396  53.363  1.00  0.00    -0.178 NA
HETATM   22  N   UNL     1       4.271  29.144  54.465  1.00  0.00    -0.272 N 
HETATM   23  H   UNL     1       3.734  30.001  54.560  1.00  0.00     0.189 HD
BRANCH  20  24
HETATM   24  C   UNL     1       4.946  26.244  52.520  1.00  0.00     0.039 C 
HETATM   25  C   UNL     1       6.156  26.344  51.578  1.00  0.00     0.011 C 
HETATM   26  C   UNL     1       7.430  25.738  52.156  1.00  0.00     0.001 C 
HETATM   27  C   UNL     1       7.208  24.295  52.596  1.00  0.00     0.000 C 
HETATM   28  C   UNL     1       6.076  24.188  53.609  1.00  0.00     0.001 C 
HETATM   29  C   UNL     1       4.783  24.830  53.107  1.00  0.00     0.011 C 
ENDBRANCH  20  24
ENDBRANCH   1  18
TORSDOF 3
ENDMDL
MODEL 8
REMARK VINA RESULT:      -9.0      6.368      9.633
REMARK  3 active torsions:
REMARK  status: ('A' for Active; 'I' for Inactive)
REMARK    1  A    between atoms: C_2  and  C_3 
REMARK       I    between atoms: C_3  and  N_4 
REMARK    2  A    between atoms: N_4  and  N_5 
REMARK    3  A    between atoms: C_21  and  C_22 
ROOT
HETATM    1  C   UNL     1       5.281  25.762  52.411  1.00  0.00     0.288 C 
HETATM    2  N   UNL     1       5.833  26.068  51.183  1.00  0.00    -0.251 N 
HETATM    3  O   UNL     1       4.186  26.180  52.779  1.00  0.00    -0.264 OA
HETATM    4  H   UNL     1       6.819  25.905  51.025  1.00  0.00     0.191 HD
ENDROOT
BRANCH   2   5
HETATM    5  N   UNL     1       5.311  27.159  50.502  1.00  0.00    -0.167 N 
HETATM    6  C   UNL     1       4.409  27.020  49.484  1.00  0.00     0.345 C 
HETATM    7  O   UNL     1       3.970  25.981  49.021  1.00  0.00    -0.245 OA
HETATM    8  N   UNL     1       4.011  28.282  49.099  1.00  0.00    -0.323 N 
HETATM    9  C   UNL     1       4.663  29.326  49.875  1.00  0.00     0.117 C 
HETATM   10  H   UNL     1       3.347  28.417  48.347  1.00  0.00     0.165 HD
HETATM   11  C   UNL     1       3.645  30.219  50.591  1.00  0.00     0.041 C 
HETATM   12  C   UNL     1       5.629  30.133  49.002  1.00  0.00     0.041 C 
HETATM   13  C   UNL     1       5.448  28.468  50.896  1.00  0.00     0.275 C 
HETATM   14  C   UNL     1       2.917  31.150  49.623  1.00  0.00     0.003 C 
HETATM   15  C   UNL     1       3.892  31.960  48.774  1.00  0.00     0.000 C 
HETATM   16  C   UNL     1       4.888  31.063  48.041  1.00  0.00     0.003 C 
HETATM   17  O   UNL     1       6.050  28.899  51.870  1.00  0.00    -0.268 OA
ENDBRANCH   2   5
BRANCH   1  18
HETATM   18  C   UNL     1       6.107  24.938  53.257  1.00  0.00     0.121 A 
HETATM   19  C   UNL     1       7.190  24.111  53.024  1.00  0.00     0.066 A 
HETATM   20  C   UNL     1       7.619  23.666  54.299  1.00  0.00     0.061 A 
HETATM   21  N   UNL     1       6.811  24.131  55.262  1.00  0.00    -0.178 NA
HETATM   22  N   UNL     1       5.919  24.892  54.611  1.00  0.00    -0.272 N 
HETATM   23  H   UNL     1       5.202  25.376  55.145  1.00  0.00     0.189 HD
BRANCH  20  24
HETATM   24  C   UNL     1       8.801  22.810  54.685  1.00  0.00     0.039 C 
HETATM   25  C   UNL     1       8.634  22.156  56.066  1.00  0.00     0.011 C 
HETATM   26  C   UNL     1       7.804  20.876  56.037  1.00  0.00     0.001 C 
HETATM   27  C   UNL     1       8.361  19.876  55.031  1.00  0.00     0.000 C 
HETATM   28  C   UNL     1       8.440  20.475  53.632  1.00  0.00     0.001 C 
HETATM   29  C   UNL     1       9.215  21.793  53.607  1.00  0.00     0.011 C 
ENDBRANCH  20  24
ENDBRANCH   1  18
TORSDOF 3
ENDMDL
MODEL 9
REMARK VINA RESULT:      -8.7      2.917      4.040
REMARK  3 active torsions:
REMARK  status: ('A' for Active; 'I' for Inactive)
REMARK    1  A    between atoms: C_2  and  C_3 
REMARK       I    between atoms: C_3  and  N_4 
REMARK    2  A    between atoms: N_4  and  N_5 
REMARK    3  A    between atoms: C_21  and  C_22 
ROOT
HETATM    1  C   UNL     1       7.786  29.320  57.613  1.00  0.00     0.288 C 
HETATM    2  N   UNL     1       7.189  29.675  56.420  1.00  0.00    -0.251 N 
HETATM    3  O   UNL     1       8.394  28.264  57.771  1.00  0.00    -0.264 OA
HETATM    4  H   UNL     1       6.507  30.423  56.407  1.00  0.00     0.191 HD
ENDROOT
BRANCH   2   5
HETATM    5  N   UNL     1       6.957  28.666  55.496  1.00  0.00    -0.167 N 
HETATM    6  C   UNL     1       7.877  28.321  54.545  1.00  0.00     0.345 C 
HETATM    7  O   UNL     1       8.967  28.832  54.351  1.00  0.00    -0.245 OA
HETATM    8  N   UNL     1       7.390  27.225  53.867  1.00  0.00    -0.323 N 
HETATM    9  C   UNL     1       6.089  26.802  54.362  1.00  0.00     0.117 C 
HETATM   10  H   UNL     1       7.910  26.804  53.106  1.00  0.00     0.165 HD
HETATM   11  C   UNL     1       6.111  25.349  54.843  1.00  0.00     0.041 C 
HETATM   12  C   UNL     1       4.999  27.050  53.315  1.00  0.00     0.041 C 
HETATM   13  C   UNL     1       5.918  27.769  55.559  1.00  0.00     0.275 C 
HETATM   14  C   UNL     1       6.184  24.360  53.680  1.00  0.00     0.003 C 
HETATM   15  C   UNL     1       5.081  24.608  52.656  1.00  0.00     0.000 C 
HETATM   16  C   UNL     1       5.080  26.052  52.160  1.00  0.00     0.003 C 
HETATM   17  O   UNL     1       5.028  27.709  56.396  1.00  0.00    -0.268 OA
ENDBRANCH   2   5
BRANCH   1  18
HETATM   18  C   UNL     1       7.611  30.268  58.684  1.00  0.00     0.121 A 
HETATM   19  C   UNL     1       6.914  31.455  58.805  1.00  0.00     0.066 A 
HETATM   20  C   UNL     1       7.060  31.853  60.158  1.00  0.00     0.061 A 
HETATM   21  N   UNL     1       7.855  31.002  60.820  1.00  0.00    -0.178 NA
HETATM   22  N   UNL     1       8.167  30.062  59.917  1.00  0.00    -0.272 N 
HETATM   23  H   UNL     1       8.756  29.284  60.198  1.00  0.00     0.189 HD
BRANCH  20  24
HETATM   24  C   UNL     1       6.457  33.021  60.899  1.00  0.00     0.039 C 
HETATM   25  C   UNL     1       4.944  32.867  61.121  1.00  0.00     0.011 C 
HETATM   26  C   UNL     1       4.591  32.006  62.330  1.00  0.00     0.001 C 
HETATM   27  C   UNL     1       5.271  32.518  63.594  1.00  0.00     0.000 C 
HETATM   28  C   UNL     1       6.784  32.583  63.428  1.00  0.00     0.001 C 
HETATM   29  C   UNL     1       7.200  33.389  62.197  1.00  0.00     0.011 C 
ENDBRANCH  20  24
ENDBRANCH   1  18
TORSDOF 3
ENDMDL
MODEL 10
REMARK VINA RESULT:      -8.6      4.095      9.817
REMARK  3 active torsions:
REMARK  status: ('A' for Active; 'I' for Inactive)
REMARK    1  A    between atoms: C_2  and  C_3 
REMARK       I    between atoms: C_3  and  N_4 
REMARK    2  A    between atoms: N_4  and  N_5 
REMARK    3  A    between atoms: C_21  and  C_22 
ROOT
HETATM    1  C   UNL     1       8.090  31.488  59.848  1.00  0.00     0.288 C 
HETATM    2  N   UNL     1       7.313  31.128  60.931  1.00  0.00    -0.251 N 
HETATM    3  O   UNL     1       8.565  32.613  59.705  1.00  0.00    -0.264 OA
HETATM    4  H   UNL     1       6.756  30.285  60.886  1.00  0.00     0.191 HD
ENDROOT
BRANCH   2   5
HETATM    5  N   UNL     1       6.755  32.151  61.685  1.00  0.00    -0.167 N 
HETATM    6  C   UNL     1       7.394  32.694  62.764  1.00  0.00     0.345 C 
HETATM    7  O   UNL     1       8.474  32.367  63.227  1.00  0.00    -0.245 OA
HETATM    8  N   UNL     1       6.631  33.748  63.219  1.00  0.00    -0.323 N 
HETATM    9  C   UNL     1       5.424  33.935  62.429  1.00  0.00     0.117 C 
HETATM   10  H   UNL     1       6.913  34.292  64.024  1.00  0.00     0.165 HD
HETATM   11  C   UNL     1       5.356  35.339  61.823  1.00  0.00     0.041 C 
HETATM   12  C   UNL     1       4.175  33.597  63.250  1.00  0.00     0.041 C 
HETATM   13  C   UNL     1       5.644  32.875  61.323  1.00  0.00     0.275 C 
HETATM   14  C   UNL     1       5.044  36.404  62.874  1.00  0.00     0.003 C 
HETATM   15  C   UNL     1       3.788  36.062  63.670  1.00  0.00     0.000 C 
HETATM   16  C   UNL     1       3.871  34.671  64.295  1.00  0.00     0.003 C 
HETATM   17  O   UNL     1       4.957  32.743  60.320  1.00  0.00    -0.268 OA
ENDBRANCH   2   5
BRANCH   1  18
HETATM   18  C   UNL     1       8.277  30.451  58.865  1.00  0.00     0.121 A 
HETATM   19  C   UNL     1       7.422  29.567  58.234  1.00  0.00     0.066 A 
HETATM   20  C   UNL     1       8.215  28.870  57.288  1.00  0.00     0.061 A 
HETATM   21  N   UNL     1       9.497  29.248  57.372  1.00  0.00    -0.178 NA
HETATM   22  N   UNL     1       9.505  30.197  58.319  1.00  0.00    -0.272 N 
HETATM   23  H   UNL     1      10.382  30.656  58.549  1.00  0.00     0.189 HD
BRANCH  20  24
HETATM   24  C   UNL     1       7.821  27.842  56.255  1.00  0.00     0.039 C 
HETATM   25  C   UNL     1       8.153  26.406  56.690  1.00  0.00     0.011 C 
HETATM   26  C   UNL     1       7.101  25.789  57.606  1.00  0.00     0.001 C 
HETATM   27  C   UNL     1       5.713  25.854  56.981  1.00  0.00     0.000 C 
HETATM   28  C   UNL     1       5.323  27.285  56.634  1.00  0.00     0.001 C 
HETATM   29  C   UNL     1       6.369  27.978  55.760  1.00  0.00     0.011 C 
ENDBRANCH  20  24
ENDBRANCH   1  18
TORSDOF 3
ENDMDL
