MODEL 1
REMARK VINA RESULT:      -9.3      0.000      0.000
REMARK  5 active torsions:
REMARK  status: ('A' for Active; 'I' for Inactive)
REMARK    1  A    between atoms: O_2  and  C_3 
REMARK    2  A    between atoms: C_7  and  C_8 
REMARK    3  A    between atoms: C_8  and  N_9 
REMARK       I    between atoms: N_9  and  C_10 
REMARK    4  A    between atoms: C_10  and  C_11 
REMARK    5  A    between atoms: C_13  and  C_14 
ROOT
HETATM    1  N   UNL     1       6.487  27.364  55.912  1.00  0.00    -0.353 N 
HETATM    2  C   UNL     1       6.128  26.050  55.714  1.00  0.00     0.251 C 
HETATM    3  O   UNL     1       5.334  25.452  56.432  1.00  0.00    -0.268 OA
HETATM    4  H   UNL     1       7.179  27.807  55.326  1.00  0.00     0.163 HD
ENDROOT
BRANCH   2   5
HETATM    5  C   UNL     1       6.787  25.340  54.583  1.00  0.00     0.032 A 
HETATM    6  C   UNL     1       7.158  24.002  54.773  1.00  0.00     0.029 A 
HETATM    7  C   UNL     1       7.772  23.275  53.743  1.00  0.00    -0.023 A 
HETATM    8  C   UNL     1       8.003  23.912  52.516  1.00  0.00     0.012 A 
HETATM    9  C   UNL     1       7.621  25.241  52.318  1.00  0.00     0.002 A 
HETATM   10  C   UNL     1       7.010  25.958  53.348  1.00  0.00     0.017 A 
BRANCH   7  11
HETATM   11  C   UNL     1       8.164  21.892  53.964  1.00  0.00    -0.002 A 
HETATM   12  C   UNL     1       8.242  20.931  52.975  1.00  0.00     0.153 A 
HETATM   13  O   UNL     1       8.625  19.734  53.491  1.00  0.00    -0.334 OA
HETATM   14  C   UNL     1       8.788  19.916  54.825  1.00  0.00     0.142 A 
HETATM   15  C   UNL     1       8.514  21.218  55.168  1.00  0.00     0.038 A 
ENDBRANCH   7  11
ENDBRANCH   2   5
BRANCH   1  16
HETATM   16  C   UNL     1       5.884  28.151  56.964  1.00  0.00     0.161 C 
BRANCH  16  17
HETATM   17  C   UNL     1       6.854  29.162  57.515  1.00  0.00    -0.037 A 
HETATM   18  C   UNL     1       8.237  28.955  57.432  1.00  0.00     0.054 A 
HETATM   19  C   UNL     1       9.127  29.913  57.921  1.00  0.00     0.150 A 
HETATM   20  C   UNL     1       8.666  31.096  58.502  1.00  0.00     0.106 A 
HETATM   21  F   UNL     1      10.437  29.650  57.811  1.00  0.00    -0.203 F 
HETATM   22  C   UNL     1       7.285  31.299  58.594  1.00  0.00     0.040 A 
HETATM   23  C   UNL     1       6.388  30.346  58.101  1.00  0.00     0.012 A 
BRANCH  20  24
HETATM   24  O   UNL     1       9.416  32.118  59.015  1.00  0.00    -0.353 OA
HETATM   25  C   UNL     1       9.321  32.350  60.415  1.00  0.00     0.210 C 
ENDBRANCH  20  24
ENDBRANCH  16  17
ENDBRANCH   1  16
TORSDOF 5
ENDMDL
MODEL 2
REMARK VINA RESULT:      -8.9      2.231      8.916
REMARK  5 active torsions:
REMARK  status: ('A' for Active; 'I' for Inactive)
REMARK    1  A    between atoms: O_2  and  C_3 
REMARK    2  A    between atoms: C_7  and  C_8 
REMARK    3  A    between atoms: C_8  and  N_9 
REMARK       I    between atoms: N_9  and  C_10 
REMARK    4  A    between atoms: C_10  and  C_11 
REMARK    5  A    between atoms: C_13  and  C_14 
ROOT
HETATM    1  N   UNL     1       7.251  27.515  55.233  1.00  0.00    -0.353 N 
HETATM    2  C   UNL     1       7.125  27.845  56.562  1.00  0.00     0.251 C 
HETATM    3  O   UNL     1       6.217  27.434  57.276  1.00  0.00    -0.268 OA
HETATM    4  H   UNL     1       7.987  27.910  54.667  1.00  0.00     0.163 HD
ENDROOT
BRANCH   2   5
HETATM    5  C   UNL     1       8.139  28.783  57.118  1.00  0.00     0.032 A 
HETATM    6  C   UNL     1       7.890  29.354  58.374  1.00  0.00     0.029 A 
HETATM    7  C   UNL     1       8.811  30.235  58.956  1.00  0.00    -0.023 A 
HETATM    8  C   UNL     1       9.991  30.532  58.259  1.00  0.00     0.012 A 
HETATM    9  C   UNL     1      10.250  29.954  57.014  1.00  0.00     0.002 A 
HETATM   10  C   UNL     1       9.328  29.077  56.441  1.00  0.00     0.017 A 
BRANCH   7  11
HETATM   11  C   UNL     1       8.528  30.829  60.253  1.00  0.00    -0.002 A 
HETATM   12  C   UNL     1       7.450  31.648  60.523  1.00  0.00     0.153 A 
HETATM   13  O   UNL     1       7.461  32.055  61.820  1.00  0.00    -0.334 OA
HETATM   14  C   UNL     1       8.560  31.504  62.394  1.00  0.00     0.142 A 
HETATM   15  C   UNL     1       9.251  30.747  61.477  1.00  0.00     0.038 A 
ENDBRANCH   7  11
ENDBRANCH   2   5
BRANCH   1  16
HETATM   16  C   UNL     1       6.336  26.589  54.604  1.00  0.00     0.161 C 
BRANCH  16  17
HETATM   17  C   UNL     1       6.993  25.256  54.355  1.00  0.00    -0.037 A 
HETATM   18  C   UNL     1       7.020  24.268  55.346  1.00  0.00     0.054 A 
HETATM   19  C   UNL     1       7.607  23.027  55.094  1.00  0.00     0.150 A 
HETATM   20  C   UNL     1       8.179  22.739  53.853  1.00  0.00     0.106 A 
HETATM   21  F   UNL     1       7.599  22.127  56.088  1.00  0.00    -0.203 F 
HETATM   22  C   UNL     1       8.161  23.729  52.865  1.00  0.00     0.040 A 
HETATM   23  C   UNL     1       7.570  24.973  53.110  1.00  0.00     0.012 A 
BRANCH  20  24
HETATM   24  O   UNL     1       8.779  21.573  53.465  1.00  0.00    -0.353 OA
HETATM   25  C   UNL     1       7.930  20.535  52.992  1.00  0.00     0.210 C 
ENDBRANCH  20  24
ENDBRANCH  16  17
ENDBRANCH   1  16
TORSDOF 5
ENDMDL
MODEL 3
REMARK VINA RESULT:      -8.8      4.348      7.327
REMARK  5 active torsions:
REMARK  status: ('A' for Active; 'I' for Inactive)
REMARK    1  A    between atoms: O_2  and  C_3 
REMARK    2  A    between atoms: C_7  and  C_8 
REMARK    3  A    between atoms: C_8  and  N_9 
REMARK       I    between atoms: N_9  and  C_10 
REMARK    4  A    between atoms: C_10  and  C_11 
REMARK    5  A    between atoms: C_13  and  C_14 
ROOT
HETATM    1  N   UNL     1       6.133  27.069  53.016  1.00  0.00    -0.353 N 
HETATM    2  C   UNL     1       7.222  27.047  53.856  1.00  0.00     0.251 C 
HETATM    3  O   UNL     1       8.076  27.926  53.877  1.00  0.00    -0.268 OA
HETATM    4  H   UNL     1       5.476  26.303  52.998  1.00  0.00     0.163 HD
ENDROOT
BRANCH   2   5
HETATM    5  C   UNL     1       7.357  25.860  54.745  1.00  0.00     0.032 A 
HETATM    6  C   UNL     1       7.595  24.614  54.148  1.00  0.00     0.029 A 
HETATM    7  C   UNL     1       7.742  23.460  54.930  1.00  0.00    -0.023 A 
HETATM    8  C   UNL     1       7.652  23.577  56.324  1.00  0.00     0.012 A 
HETATM    9  C   UNL     1       7.429  24.819  56.924  1.00  0.00     0.002 A 
HETATM   10  C   UNL     1       7.284  25.963  56.138  1.00  0.00     0.017 A 
BRANCH   7  11
HETATM   11  C   UNL     1       7.974  22.174  54.291  1.00  0.00    -0.002 A 
HETATM   12  C   UNL     1       8.312  21.015  54.961  1.00  0.00     0.153 A 
HETATM   13  O   UNL     1       8.472  19.982  54.093  1.00  0.00    -0.334 OA
HETATM   14  C   UNL     1       8.245  20.475  52.850  1.00  0.00     0.142 A 
HETATM   15  C   UNL     1       7.941  21.815  52.914  1.00  0.00     0.038 A 
ENDBRANCH   7  11
ENDBRANCH   2   5
BRANCH   1  16
HETATM   16  C   UNL     1       5.893  28.190  52.136  1.00  0.00     0.161 C 
BRANCH  16  17
HETATM   17  C   UNL     1       5.405  27.731  50.786  1.00  0.00    -0.037 A 
HETATM   18  C   UNL     1       5.466  28.575  49.671  1.00  0.00     0.054 A 
HETATM   19  C   UNL     1       5.037  28.128  48.420  1.00  0.00     0.150 A 
HETATM   20  C   UNL     1       4.539  26.835  48.248  1.00  0.00     0.106 A 
HETATM   21  F   UNL     1       5.122  28.989  47.395  1.00  0.00    -0.203 F 
HETATM   22  C   UNL     1       4.468  25.994  49.364  1.00  0.00     0.040 A 
HETATM   23  C   UNL     1       4.901  26.434  50.619  1.00  0.00     0.012 A 
BRANCH  20  24
HETATM   24  O   UNL     1       4.091  26.264  47.089  1.00  0.00    -0.353 OA
HETATM   25  C   UNL     1       2.765  25.750  47.092  1.00  0.00     0.210 C 
ENDBRANCH  20  24
ENDBRANCH  16  17
ENDBRANCH   1  16
TORSDOF 5
ENDMDL
MODEL 4
REMARK VINA RESULT:      -8.6      3.251     10.250
REMARK  5 active torsions:
REMARK  status: ('A' for Active; 'I' for Inactive)
REMARK    1  A    between atoms: O_2  and  C_3 
REMARK    2  A    between atoms: C_7  and  C_8 
REMARK    3  A    between atoms: C_8  and  N_9 
REMARK       I    between atoms: N_9  and  C_10 
REMARK    4  A    between atoms: C_10  and  C_11 
REMARK    5  A    between atoms: C_13  and  C_14 
ROOT
HETATM    1  N   UNL     1       6.757  30.164  58.530  1.00  0.00    -0.353 N 
HETATM    2  C   UNL     1       6.843  31.486  58.901  1.00  0.00     0.251 C 
HETATM    3  O   UNL     1       6.381  32.406  58.234  1.00  0.00    -0.268 OA
HETATM    4  H   UNL     1       7.190  29.441  59.084  1.00  0.00     0.163 HD
ENDROOT
BRANCH   2   5
HETATM    5  C   UNL     1       7.573  31.780  60.165  1.00  0.00     0.032 A 
HETATM    6  C   UNL     1       6.823  32.164  61.285  1.00  0.00     0.029 A 
HETATM    7  C   UNL     1       7.450  32.444  62.507  1.00  0.00    -0.023 A 
HETATM    8  C   UNL     1       8.844  32.327  62.589  1.00  0.00     0.012 A 
HETATM    9  C   UNL     1       9.595  31.930  61.479  1.00  0.00     0.002 A 
HETATM   10  C   UNL     1       8.963  31.654  60.266  1.00  0.00     0.017 A 
BRANCH   7  11
HETATM   11  C   UNL     1       6.656  32.855  63.654  1.00  0.00    -0.002 A 
HETATM   12  C   UNL     1       5.307  32.600  63.808  1.00  0.00     0.153 A 
HETATM   13  O   UNL     1       4.845  33.118  64.976  1.00  0.00    -0.334 OA
HETATM   14  C   UNL     1       5.898  33.721  65.581  1.00  0.00     0.142 A 
HETATM   15  C   UNL     1       7.031  33.594  64.812  1.00  0.00     0.038 A 
ENDBRANCH   7  11
ENDBRANCH   2   5
BRANCH   1  16
HETATM   16  C   UNL     1       6.043  29.770  57.337  1.00  0.00     0.161 C 
BRANCH  16  17
HETATM   17  C   UNL     1       6.210  28.298  57.062  1.00  0.00    -0.037 A 
HETATM   18  C   UNL     1       7.302  27.587  57.576  1.00  0.00     0.054 A 
HETATM   19  C   UNL     1       7.431  26.218  57.337  1.00  0.00     0.150 A 
HETATM   20  C   UNL     1       6.480  25.524  56.585  1.00  0.00     0.106 A 
HETATM   21  F   UNL     1       8.500  25.599  57.858  1.00  0.00    -0.203 F 
HETATM   22  C   UNL     1       5.395  26.236  56.063  1.00  0.00     0.040 A 
HETATM   23  C   UNL     1       5.257  27.607  56.302  1.00  0.00     0.012 A 
BRANCH  20  24
HETATM   24  O   UNL     1       6.475  24.192  56.278  1.00  0.00    -0.353 OA
HETATM   25  C   UNL     1       7.405  23.750  55.297  1.00  0.00     0.210 C 
ENDBRANCH  20  24
ENDBRANCH  16  17
ENDBRANCH   1  16
TORSDOF 5
ENDMDL
MODEL 5
REMARK VINA RESULT:      -8.5      2.698      8.295
REMARK  5 active torsions:
REMARK  status: ('A' for Active; 'I' for Inactive)
REMARK    1  A    between atoms: O_2  and  C_3 
REMARK    2  A    between atoms: C_7  and  C_8 
REMARK    3  A    between atoms: C_8  and  N_9 
REMARK       I    between atoms: N_9  and  C_10 
REMARK    4  A    between atoms: C_10  and  C_11 
REMARK    5  A    between atoms: C_13  and  C_14 
ROOT
HETATM    1  N   UNL     1       7.243  26.264  53.959  1.00  0.00    -0.353 N 
HETATM    2  C   UNL     1       6.074  26.800  54.449  1.00  0.00     0.251 C 
HETATM    3  O   UNL     1       4.966  26.510  54.015  1.00  0.00    -0.268 OA
HETATM    4  H   UNL     1       8.140  26.563  54.314  1.00  0.00     0.163 HD
ENDROOT
BRANCH   2   5
HETATM    5  C   UNL     1       6.205  27.807  55.538  1.00  0.00     0.032 A 
HETATM    6  C   UNL     1       7.478  28.334  55.798  1.00  0.00     0.029 A 
HETATM    7  C   UNL     1       7.665  29.294  56.803  1.00  0.00    -0.023 A 
HETATM    8  C   UNL     1       6.552  29.722  57.540  1.00  0.00     0.012 A 
HETATM    9  C   UNL     1       5.279  29.211  57.273  1.00  0.00     0.002 A 
HETATM   10  C   UNL     1       5.101  28.255  56.272  1.00  0.00     0.017 A 
BRANCH   7  11
HETATM   11  C   UNL     1       8.996  29.817  57.068  1.00  0.00    -0.002 A 
HETATM   12  C   UNL     1      10.105  29.580  56.280  1.00  0.00     0.153 A 
HETATM   13  O   UNL     1      11.204  30.194  56.791  1.00  0.00    -0.334 OA
HETATM   14  C   UNL     1      10.809  30.826  57.924  1.00  0.00     0.142 A 
HETATM   15  C   UNL     1       9.467  30.624  58.143  1.00  0.00     0.038 A 
ENDBRANCH   7  11
ENDBRANCH   2   5
BRANCH   1  16
HETATM   16  C   UNL     1       7.226  25.256  52.924  1.00  0.00     0.161 C 
BRANCH  16  17
HETATM   17  C   UNL     1       7.481  23.885  53.492  1.00  0.00    -0.037 A 
HETATM   18  C   UNL     1       7.783  22.803  52.656  1.00  0.00     0.054 A 
HETATM   19  C   UNL     1       8.046  21.542  53.197  1.00  0.00     0.150 A 
HETATM   20  C   UNL     1       8.015  21.329  54.576  1.00  0.00     0.106 A 
HETATM   21  F   UNL     1       8.326  20.550  52.339  1.00  0.00    -0.203 F 
HETATM   22  C   UNL     1       7.705  22.407  55.411  1.00  0.00     0.040 A 
HETATM   23  C   UNL     1       7.445  23.673  54.877  1.00  0.00     0.012 A 
BRANCH  20  24
HETATM   24  O   UNL     1       8.256  20.158  55.241  1.00  0.00    -0.353 OA
HETATM   25  C   UNL     1       8.718  20.261  56.583  1.00  0.00     0.210 C 
ENDBRANCH  20  24
ENDBRANCH  16  17
ENDBRANCH   1  16
TORSDOF 5
ENDMDL
MODEL 6
REMARK VINA RESULT:      -8.3      2.647      8.811
REMARK  5 active torsions:
REMARK  status: ('A' for Active; 'I' for Inactive)
REMARK    1  A    between atoms: O_2  and  C_3 
REMARK    2  A    between atoms: C_7  and  C_8 
REMARK    3  A    between atoms: C_8  and  N_9 
REMARK       I    between atoms: N_9  and  C_10 
REMARK    4  A    between atoms: C_10  and  C_11 
REMARK    5  A    between atoms: C_13  and  C_14 
ROOT
HETATM    1  N   UNL     1       6.666  26.458  54.226  1.00  0.00    -0.353 N 
HETATM    2  C   UNL     1       7.184  27.705  54.490  1.00  0.00     0.251 C 
HETATM    3  O   UNL     1       8.177  28.155  53.929  1.00  0.00    -0.268 OA
HETATM    4  H   UNL     1       5.872  26.107  54.742  1.00  0.00     0.163 HD
ENDROOT
BRANCH   2   5
HETATM    5  C   UNL     1       6.499  28.506  55.542  1.00  0.00     0.032 A 
HETATM    6  C   UNL     1       7.291  29.293  56.390  1.00  0.00     0.029 A 
HETATM    7  C   UNL     1       6.706  30.078  57.393  1.00  0.00    -0.023 A 
HETATM    8  C   UNL     1       5.311  30.064  57.530  1.00  0.00     0.012 A 
HETATM    9  C   UNL     1       4.517  29.293  56.677  1.00  0.00     0.002 A 
HETATM   10  C   UNL     1       5.107  28.515  55.681  1.00  0.00     0.017 A 
BRANCH   7  11
HETATM   11  C   UNL     1       7.545  30.876  58.273  1.00  0.00    -0.002 A 
HETATM   12  C   UNL     1       7.084  31.886  59.095  1.00  0.00     0.153 A 
HETATM   13  O   UNL     1       8.106  32.453  59.787  1.00  0.00    -0.334 OA
HETATM   14  C   UNL     1       9.240  31.814  59.406  1.00  0.00     0.142 A 
HETATM   15  C   UNL     1       8.954  30.842  58.477  1.00  0.00     0.038 A 
ENDBRANCH   7  11
ENDBRANCH   2   5
BRANCH   1  16
HETATM   16  C   UNL     1       7.238  25.614  53.202  1.00  0.00     0.161 C 
BRANCH  16  17
HETATM   17  C   UNL     1       7.436  24.207  53.702  1.00  0.00    -0.037 A 
HETATM   18  C   UNL     1       7.779  23.171  52.824  1.00  0.00     0.054 A 
HETATM   19  C   UNL     1       7.987  21.876  53.304  1.00  0.00     0.150 A 
HETATM   20  C   UNL     1       7.860  21.582  54.663  1.00  0.00     0.106 A 
HETATM   21  F   UNL     1       8.312  20.932  52.408  1.00  0.00    -0.203 F 
HETATM   22  C   UNL     1       7.508  22.614  55.538  1.00  0.00     0.040 A 
HETATM   23  C   UNL     1       7.303  23.914  55.066  1.00  0.00     0.012 A 
BRANCH  20  24
HETATM   24  O   UNL     1       8.039  20.369  55.270  1.00  0.00    -0.353 OA
HETATM   25  C   UNL     1       9.059  20.286  56.258  1.00  0.00     0.210 C 
ENDBRANCH  20  24
ENDBRANCH  16  17
ENDBRANCH   1  16
TORSDOF 5
ENDMDL
MODEL 7
REMARK VINA RESULT:      -8.3      3.329      5.334
REMARK  5 active torsions:
REMARK  status: ('A' for Active; 'I' for Inactive)
REMARK    1  A    between atoms: O_2  and  C_3 
REMARK    2  A    between atoms: C_7  and  C_8 
REMARK    3  A    between atoms: C_8  and  N_9 
REMARK       I    between atoms: N_9  and  C_10 
REMARK    4  A    between atoms: C_10  and  C_11 
REMARK    5  A    between atoms: C_13  and  C_14 
ROOT
HETATM    1  N   UNL     1       8.116  30.083  59.786  1.00  0.00    -0.353 N 
HETATM    2  C   UNL     1       8.393  29.783  58.472  1.00  0.00     0.251 C 
HETATM    3  O   UNL     1       9.331  30.271  57.851  1.00  0.00    -0.268 OA
HETATM    4  H   UNL     1       7.307  29.694  60.247  1.00  0.00     0.163 HD
ENDROOT
BRANCH   2   5
HETATM    5  C   UNL     1       7.461  28.843  57.790  1.00  0.00     0.032 A 
HETATM    6  C   UNL     1       7.949  27.580  57.426  1.00  0.00     0.029 A 
HETATM    7  C   UNL     1       7.119  26.646  56.791  1.00  0.00    -0.023 A 
HETATM    8  C   UNL     1       5.787  26.997  56.531  1.00  0.00     0.012 A 
HETATM    9  C   UNL     1       5.292  28.249  56.905  1.00  0.00     0.002 A 
HETATM   10  C   UNL     1       6.125  29.173  57.537  1.00  0.00     0.017 A 
BRANCH   7  11
HETATM   11  C   UNL     1       7.648  25.346  56.408  1.00  0.00    -0.002 A 
HETATM   12  C   UNL     1       7.347  24.693  55.229  1.00  0.00     0.153 A 
HETATM   13  O   UNL     1       7.985  23.495  55.161  1.00  0.00    -0.334 OA
HETATM   14  C   UNL     1       8.698  23.365  56.308  1.00  0.00     0.142 A 
HETATM   15  C   UNL     1       8.523  24.469  57.109  1.00  0.00     0.038 A 
ENDBRANCH   7  11
ENDBRANCH   2   5
BRANCH   1  16
HETATM   16  C   UNL     1       8.976  30.960  60.547  1.00  0.00     0.161 C 
BRANCH  16  17
HETATM   17  C   UNL     1       8.175  31.857  61.454  1.00  0.00    -0.037 A 
HETATM   18  C   UNL     1       7.083  32.587  60.968  1.00  0.00     0.054 A 
HETATM   19  C   UNL     1       6.332  33.394  61.825  1.00  0.00     0.150 A 
HETATM   20  C   UNL     1       6.647  33.493  63.182  1.00  0.00     0.106 A 
HETATM   21  F   UNL     1       5.301  34.066  61.292  1.00  0.00    -0.203 F 
HETATM   22  C   UNL     1       7.743  32.772  63.666  1.00  0.00     0.040 A 
HETATM   23  C   UNL     1       8.497  31.958  62.814  1.00  0.00     0.012 A 
BRANCH  20  24
HETATM   24  O   UNL     1       6.000  34.234  64.132  1.00  0.00    -0.353 OA
HETATM   25  C   UNL     1       4.969  33.585  64.866  1.00  0.00     0.210 C 
ENDBRANCH  20  24
ENDBRANCH  16  17
ENDBRANCH   1  16
TORSDOF 5
ENDMDL
MODEL 8
REMARK VINA RESULT:      -8.2      4.470      7.987
REMARK  5 active torsions:
REMARK  status: ('A' for Active; 'I' for Inactive)
REMARK    1  A    between atoms: O_2  and  C_3 
REMARK    2  A    between atoms: C_7  and  C_8 
REMARK    3  A    between atoms: C_8  and  N_9 
REMARK       I    between atoms: N_9  and  C_10 
REMARK    4  A    between atoms: C_10  and  C_11 
REMARK    5  A    between atoms: C_13  and  C_14 
ROOT
HETATM    1  N   UNL     1       6.975  26.918  53.263  1.00  0.00    -0.353 N 
HETATM    2  C   UNL     1       5.666  27.283  53.045  1.00  0.00     0.251 C 
HETATM    3  O   UNL     1       4.771  27.104  53.863  1.00  0.00    -0.268 OA
HETATM    4  H   UNL     1       7.674  27.042  52.546  1.00  0.00     0.163 HD
ENDROOT
BRANCH   2   5
HETATM    5  C   UNL     1       5.352  27.891  51.723  1.00  0.00     0.032 A 
HETATM    6  C   UNL     1       4.748  27.079  50.752  1.00  0.00     0.029 A 
HETATM    7  C   UNL     1       4.417  27.594  49.491  1.00  0.00    -0.023 A 
HETATM    8  C   UNL     1       4.698  28.940  49.220  1.00  0.00     0.012 A 
HETATM    9  C   UNL     1       5.287  29.757  50.189  1.00  0.00     0.002 A 
HETATM   10  C   UNL     1       5.613  29.236  51.442  1.00  0.00     0.017 A 
BRANCH   7  11
HETATM   11  C   UNL     1       3.804  26.733  48.492  1.00  0.00    -0.002 A 
HETATM   12  C   UNL     1       3.313  27.166  47.277  1.00  0.00     0.153 A 
HETATM   13  O   UNL     1       2.793  26.131  46.566  1.00  0.00    -0.334 OA
HETATM   14  C   UNL     1       2.940  25.019  47.329  1.00  0.00     0.142 A 
HETATM   15  C   UNL     1       3.549  25.332  48.521  1.00  0.00     0.038 A 
ENDBRANCH   7  11
ENDBRANCH   2   5
BRANCH   1  16
HETATM   16  C   UNL     1       7.390  26.348  54.524  1.00  0.00     0.161 C 
BRANCH  16  17
HETATM   17  C   UNL     1       7.525  24.851  54.430  1.00  0.00    -0.037 A 
HETATM   18  C   UNL     1       7.654  24.064  55.581  1.00  0.00     0.054 A 
HETATM   19  C   UNL     1       7.751  22.675  55.482  1.00  0.00     0.150 A 
HETATM   20  C   UNL     1       7.719  22.036  54.240  1.00  0.00     0.106 A 
HETATM   21  F   UNL     1       7.874  21.982  56.623  1.00  0.00    -0.203 F 
HETATM   22  C   UNL     1       7.600  22.823  53.089  1.00  0.00     0.040 A 
HETATM   23  C   UNL     1       7.498  24.214  53.182  1.00  0.00     0.012 A 
BRANCH  20  24
HETATM   24  O   UNL     1       7.797  20.693  53.994  1.00  0.00    -0.353 OA
HETATM   25  C   UNL     1       8.601  20.283  52.895  1.00  0.00     0.210 C 
ENDBRANCH  20  24
ENDBRANCH  16  17
ENDBRANCH   1  16
TORSDOF 5
ENDMDL
MODEL 9
REMARK VINA RESULT:      -8.2      3.987      5.793
REMARK  5 active torsions:
REMARK  status: ('A' for Active; 'I' for Inactive)
REMARK    1  A    between atoms: O_2  and  C_3 
REMARK    2  A    between atoms: C_7  and  C_8 
REMARK    3  A    between atoms: C_8  and  N_9 
REMARK       I    between atoms: N_9  and  C_10 
REMARK    4  A    between atoms: C_10  and  C_11 
REMARK    5  A    between atoms: C_13  and  C_14 
ROOT
HETATM    1  N   UNL     1       5.836  27.045  55.287  1.00  0.00    -0.353 N 
HETATM    2  C   UNL     1       5.685  26.006  56.175  1.00  0.00     0.251 C 
HETATM    3  O   UNL     1       4.676  25.836  56.850  1.00  0.00    -0.268 OA
HETATM    4  H   UNL     1       6.700  27.176  54.783  1.00  0.00     0.163 HD
ENDROOT
BRANCH   2   5
HETATM    5  C   UNL     1       6.842  25.081  56.325  1.00  0.00     0.032 A 
HETATM    6  C   UNL     1       6.943  24.003  55.434  1.00  0.00     0.029 A 
HETATM    7  C   UNL     1       8.015  23.103  55.515  1.00  0.00    -0.023 A 
HETATM    8  C   UNL     1       8.989  23.304  56.503  1.00  0.00     0.012 A 
HETATM    9  C   UNL     1       8.900  24.386  57.383  1.00  0.00     0.002 A 
HETATM   10  C   UNL     1       7.830  25.277  57.296  1.00  0.00     0.017 A 
BRANCH   7  11
HETATM   11  C   UNL     1       8.094  21.982  54.591  1.00  0.00    -0.002 A 
HETATM   12  C   UNL     1       8.425  20.690  54.951  1.00  0.00     0.153 A 
HETATM   13  O   UNL     1       8.425  19.870  53.868  1.00  0.00    -0.334 OA
HETATM   14  C   UNL     1       8.102  20.636  52.796  1.00  0.00     0.142 A 
HETATM   15  C   UNL     1       7.893  21.938  53.182  1.00  0.00     0.038 A 
ENDBRANCH   7  11
ENDBRANCH   2   5
BRANCH   1  16
HETATM   16  C   UNL     1       4.761  27.981  55.045  1.00  0.00     0.161 C 
BRANCH  16  17
HETATM   17  C   UNL     1       4.461  28.101  53.574  1.00  0.00    -0.037 A 
HETATM   18  C   UNL     1       5.220  27.407  52.624  1.00  0.00     0.054 A 
HETATM   19  C   UNL     1       4.915  27.505  51.265  1.00  0.00     0.150 A 
HETATM   20  C   UNL     1       3.851  28.292  50.820  1.00  0.00     0.106 A 
HETATM   21  F   UNL     1       5.683  26.814  50.410  1.00  0.00    -0.203 F 
HETATM   22  C   UNL     1       3.099  28.993  51.768  1.00  0.00     0.040 A 
HETATM   23  C   UNL     1       3.396  28.896  53.131  1.00  0.00     0.012 A 
BRANCH  20  24
HETATM   24  O   UNL     1       3.436  28.475  49.530  1.00  0.00    -0.353 OA
HETATM   25  C   UNL     1       3.492  29.800  49.015  1.00  0.00     0.210 C 
ENDBRANCH  20  24
ENDBRANCH  16  17
ENDBRANCH   1  16
TORSDOF 5
ENDMDL
MODEL 10
REMARK VINA RESULT:      -8.0      4.020      7.795
REMARK  5 active torsions:
REMARK  status: ('A' for Active; 'I' for Inactive)
REMARK    1  A    between atoms: O_2  and  C_3 
REMARK    2  A    between atoms: C_7  and  C_8 
REMARK    3  A    between atoms: C_8  and  N_9 
REMARK       I    between atoms: N_9  and  C_10 
REMARK    4  A    between atoms: C_10  and  C_11 
REMARK    5  A    between atoms: C_13  and  C_14 
ROOT
HETATM    1  N   UNL     1       6.324  26.409  54.979  1.00  0.00    -0.353 N 
HETATM    2  C   UNL     1       6.641  27.398  54.077  1.00  0.00     0.251 C 
HETATM    3  O   UNL     1       7.742  27.934  54.022  1.00  0.00    -0.268 OA
HETATM    4  H   UNL     1       5.392  26.025  55.022  1.00  0.00     0.163 HD
ENDROOT
BRANCH   2   5
HETATM    5  C   UNL     1       5.554  27.841  53.161  1.00  0.00     0.032 A 
HETATM    6  C   UNL     1       5.709  27.598  51.789  1.00  0.00     0.029 A 
HETATM    7  C   UNL     1       4.717  27.980  50.875  1.00  0.00    -0.023 A 
HETATM    8  C   UNL     1       3.561  28.607  51.362  1.00  0.00     0.012 A 
HETATM    9  C   UNL     1       3.395  28.838  52.730  1.00  0.00     0.002 A 
HETATM   10  C   UNL     1       4.388  28.454  53.632  1.00  0.00     0.017 A 
BRANCH   7  11
HETATM   11  C   UNL     1       4.903  27.733  49.454  1.00  0.00    -0.002 A 
HETATM   12  C   UNL     1       4.567  26.557  48.811  1.00  0.00     0.153 A 
HETATM   13  O   UNL     1       4.869  26.624  47.488  1.00  0.00    -0.334 OA
HETATM   14  C   UNL     1       5.412  27.848  47.272  1.00  0.00     0.142 A 
HETATM   15  C   UNL     1       5.461  28.565  48.443  1.00  0.00     0.038 A 
ENDBRANCH   7  11
ENDBRANCH   2   5
BRANCH   1  16
HETATM   16  C   UNL     1       7.315  25.887  55.892  1.00  0.00     0.161 C 
BRANCH  16  17
HETATM   17  C   UNL     1       7.744  24.498  55.497  1.00  0.00    -0.037 A 
HETATM   18  C   UNL     1       7.992  23.517  56.465  1.00  0.00     0.054 A 
HETATM   19  C   UNL     1       8.362  22.225  56.085  1.00  0.00     0.150 A 
HETATM   20  C   UNL     1       8.494  21.880  54.738  1.00  0.00     0.106 A 
HETATM   21  F   UNL     1       8.584  21.335  57.063  1.00  0.00    -0.203 F 
HETATM   22  C   UNL     1       8.256  22.862  53.772  1.00  0.00     0.040 A 
HETATM   23  C   UNL     1       7.880  24.156  54.145  1.00  0.00     0.012 A 
BRANCH  20  24
HETATM   24  O   UNL     1       8.841  20.661  54.224  1.00  0.00    -0.353 OA
HETATM   25  C   UNL     1       8.359  20.348  52.922  1.00  0.00     0.210 C 
ENDBRANCH  20  24
ENDBRANCH  16  17
ENDBRANCH   1  16
TORSDOF 5
ENDMDL
