MODEL 1
REMARK VINA RESULT:      -9.6      0.000      0.000
REMARK  5 active torsions:
REMARK  status: ('A' for Active; 'I' for Inactive)
REMARK    1  A    between atoms: C_7  and  S_8 
REMARK    2  A    between atoms: S_8  and  C_9 
REMARK    3  A    between atoms: C_9  and  C_10 
REMARK       I    between atoms: C_10  and  N_11 
REMARK    4  A    between atoms: N_11  and  N_12 
REMARK       I    between atoms: N_12  and  C_13 
REMARK       I    between atoms: C_13  and  N_14 
REMARK    5  A    between atoms: N_14  and  C_15 
ROOT
HETATM    1  C   UNL     1       8.038  27.150  57.132  1.00  0.00     0.245 C 
HETATM    2  N   UNL     1       8.470  28.430  56.869  1.00  0.00    -0.265 N 
HETATM    3  O   UNL     1       7.905  26.743  58.290  1.00  0.00    -0.271 OA
HETATM    4  H   UNL     1       8.516  28.835  55.933  1.00  0.00     0.190 HD
ENDROOT
BRANCH   1   5
HETATM    5  C   UNL     1       7.613  26.307  55.948  1.00  0.00     0.184 C 
BRANCH   5   6
HETATM    6  S   UNL     1       6.526  24.923  56.393  1.00  0.00    -0.118 SA
BRANCH   6   7
HETATM    7  C   UNL     1       6.928  23.827  55.086  1.00  0.00     0.035 A 
HETATM    8  C   UNL     1       6.674  24.051  53.749  1.00  0.00     0.023 A 
HETATM    9  C   UNL     1       6.004  25.177  53.049  1.00  0.00     0.069 C 
HETATM   10  N   UNL     1       7.185  22.978  53.060  1.00  0.00    -0.358 N 
HETATM   11  H   UNL     1       7.153  22.862  52.057  1.00  0.00     0.166 HD
HETATM   12  C   UNL     1       7.759  22.073  53.924  1.00  0.00     0.044 A 
HETATM   13  C   UNL     1       7.593  22.573  55.217  1.00  0.00     0.009 A 
HETATM   14  C   UNL     1       8.404  20.859  53.657  1.00  0.00     0.030 A 
HETATM   15  C   UNL     1       8.084  21.809  56.297  1.00  0.00     0.015 A 
HETATM   16  C   UNL     1       8.731  20.592  56.048  1.00  0.00     0.001 A 
HETATM   17  C   UNL     1       8.890  20.129  54.745  1.00  0.00     0.002 A 
ENDBRANCH   6   7
ENDBRANCH   5   6
ENDBRANCH   1   5
BRANCH   2  18
HETATM   18  N   UNL     1       8.695  29.284  57.962  1.00  0.00    -0.249 N 
HETATM   19  C   UNL     1       9.747  30.155  57.886  1.00  0.00     0.339 C 
HETATM   20  N   UNL     1       9.840  31.121  58.846  1.00  0.00    -0.308 N 
HETATM   21  O   UNL     1      10.566  30.122  56.966  1.00  0.00    -0.245 OA
HETATM   22  H   UNL     1      10.522  31.825  58.592  1.00  0.00     0.170 HD
HETATM   23  H   UNL     1       7.836  29.636  58.380  1.00  0.00     0.192 HD
BRANCH  20  24
HETATM   24  C   UNL     1       9.152  31.319  60.060  1.00  0.00     0.036 A 
HETATM   25  C   UNL     1       9.376  30.581  61.226  1.00  0.00     0.029 A 
HETATM   26  C   UNL     1       8.618  30.823  62.377  1.00  0.00     0.002 A 
HETATM   27  C   UNL     1       7.648  31.820  62.380  1.00  0.00     0.000 A 
HETATM   28  C   UNL     1       7.447  32.592  61.239  1.00  0.00     0.002 A 
HETATM   29  C   UNL     1       8.204  32.349  60.090  1.00  0.00     0.029 A 
ENDBRANCH  20  24
ENDBRANCH   2  18
TORSDOF 5
ENDMDL
MODEL 2
REMARK VINA RESULT:      -9.5      5.210      8.901
REMARK  5 active torsions:
REMARK  status: ('A' for Active; 'I' for Inactive)
REMARK    1  A    between atoms: C_7  and  S_8 
REMARK    2  A    between atoms: S_8  and  C_9 
REMARK    3  A    between atoms: C_9  and  C_10 
REMARK       I    between atoms: C_10  and  N_11 
REMARK    4  A    between atoms: N_11  and  N_12 
REMARK       I    between atoms: N_12  and  C_13 
REMARK       I    between atoms: C_13  and  N_14 
REMARK    5  A    between atoms: N_14  and  C_15 
ROOT
HETATM    1  C   UNL     1       4.875  25.449  52.979  1.00  0.00     0.245 C 
HETATM    2  N   UNL     1       4.602  26.765  52.684  1.00  0.00    -0.265 N 
HETATM    3  O   UNL     1       4.685  24.553  52.150  1.00  0.00    -0.271 OA
HETATM    4  H   UNL     1       4.819  27.545  53.305  1.00  0.00     0.190 HD
ENDROOT
BRANCH   1   5
HETATM    5  C   UNL     1       5.536  25.162  54.310  1.00  0.00     0.184 C 
BRANCH   5   6
HETATM    6  S   UNL     1       7.300  25.588  54.355  1.00  0.00    -0.118 SA
BRANCH   6   7
HETATM    7  C   UNL     1       7.911  24.143  55.137  1.00  0.00     0.035 A 
HETATM    8  C   UNL     1       8.310  24.056  56.454  1.00  0.00     0.023 A 
HETATM    9  C   UNL     1       8.377  25.076  57.532  1.00  0.00     0.069 C 
HETATM   10  N   UNL     1       8.673  22.750  56.676  1.00  0.00    -0.358 N 
HETATM   11  H   UNL     1       9.006  22.380  57.555  1.00  0.00     0.166 HD
HETATM   12  C   UNL     1       8.518  22.000  55.532  1.00  0.00     0.044 A 
HETATM   13  C   UNL     1       8.056  22.860  54.533  1.00  0.00     0.009 A 
HETATM   14  C   UNL     1       8.752  20.637  55.311  1.00  0.00     0.030 A 
HETATM   15  C   UNL     1       7.835  22.330  53.244  1.00  0.00     0.015 A 
HETATM   16  C   UNL     1       8.065  20.969  53.006  1.00  0.00     0.001 A 
HETATM   17  C   UNL     1       8.513  20.137  54.028  1.00  0.00     0.002 A 
ENDBRANCH   6   7
ENDBRANCH   5   6
ENDBRANCH   1   5
BRANCH   2  18
HETATM   18  N   UNL     1       4.157  27.068  51.386  1.00  0.00    -0.249 N 
HETATM   19  C   UNL     1       4.800  28.066  50.706  1.00  0.00     0.339 C 
HETATM   20  N   UNL     1       4.512  28.218  49.380  1.00  0.00    -0.308 N 
HETATM   21  O   UNL     1       5.650  28.783  51.237  1.00  0.00    -0.245 OA
HETATM   22  H   UNL     1       5.175  28.837  48.931  1.00  0.00     0.170 HD
HETATM   23  H   UNL     1       3.894  26.243  50.849  1.00  0.00     0.192 HD
BRANCH  20  24
HETATM   24  C   UNL     1       3.516  27.655  48.557  1.00  0.00     0.036 A 
HETATM   25  C   UNL     1       3.692  26.513  47.770  1.00  0.00     0.029 A 
HETATM   26  C   UNL     1       2.657  26.046  46.954  1.00  0.00     0.002 A 
HETATM   27  C   UNL     1       1.429  26.702  46.935  1.00  0.00     0.000 A 
HETATM   28  C   UNL     1       1.228  27.814  47.748  1.00  0.00     0.002 A 
HETATM   29  C   UNL     1       2.263  28.279  48.562  1.00  0.00     0.029 A 
ENDBRANCH  20  24
ENDBRANCH   2  18
TORSDOF 5
ENDMDL
MODEL 3
REMARK VINA RESULT:      -9.3      1.697      2.407
REMARK  5 active torsions:
REMARK  status: ('A' for Active; 'I' for Inactive)
REMARK    1  A    between atoms: C_7  and  S_8 
REMARK    2  A    between atoms: S_8  and  C_9 
REMARK    3  A    between atoms: C_9  and  C_10 
REMARK       I    between atoms: C_10  and  N_11 
REMARK    4  A    between atoms: N_11  and  N_12 
REMARK       I    between atoms: N_12  and  C_13 
REMARK       I    between atoms: C_13  and  N_14 
REMARK    5  A    between atoms: N_14  and  C_15 
ROOT
HETATM    1  C   UNL     1       8.003  28.983  55.778  1.00  0.00     0.245 C 
HETATM    2  N   UNL     1       9.086  28.833  56.613  1.00  0.00    -0.265 N 
HETATM    3  O   UNL     1       7.063  29.728  56.072  1.00  0.00    -0.271 OA
HETATM    4  H   UNL     1       9.919  28.293  56.375  1.00  0.00     0.190 HD
ENDROOT
BRANCH   1   5
HETATM    5  C   UNL     1       8.070  28.298  54.429  1.00  0.00     0.184 C 
BRANCH   5   6
HETATM    6  S   UNL     1       6.491  27.575  53.899  1.00  0.00    -0.118 SA
BRANCH   6   7
HETATM    7  C   UNL     1       6.600  26.037  54.733  1.00  0.00     0.035 A 
HETATM    8  C   UNL     1       6.121  25.781  56.001  1.00  0.00     0.023 A 
HETATM    9  C   UNL     1       5.450  26.656  56.996  1.00  0.00     0.069 C 
HETATM   10  N   UNL     1       6.365  24.453  56.258  1.00  0.00    -0.358 N 
HETATM   11  H   UNL     1       6.119  23.971  57.112  1.00  0.00     0.166 HD
HETATM   12  C   UNL     1       6.987  23.855  55.186  1.00  0.00     0.044 A 
HETATM   13  C   UNL     1       7.169  24.838  54.212  1.00  0.00     0.009 A 
HETATM   14  C   UNL     1       7.401  22.529  55.011  1.00  0.00     0.030 A 
HETATM   15  C   UNL     1       7.814  24.477  53.010  1.00  0.00     0.015 A 
HETATM   16  C   UNL     1       8.234  23.155  52.819  1.00  0.00     0.001 A 
HETATM   17  C   UNL     1       8.025  22.197  53.806  1.00  0.00     0.002 A 
ENDBRANCH   6   7
ENDBRANCH   5   6
ENDBRANCH   1   5
BRANCH   2  18
HETATM   18  N   UNL     1       9.120  29.604  57.787  1.00  0.00    -0.249 N 
HETATM   19  C   UNL     1      10.063  30.590  57.877  1.00  0.00     0.339 C 
HETATM   20  N   UNL     1       9.963  31.470  58.916  1.00  0.00    -0.308 N 
HETATM   21  O   UNL     1      10.951  30.732  57.035  1.00  0.00    -0.245 OA
HETATM   22  H   UNL     1      10.575  32.266  58.781  1.00  0.00     0.170 HD
HETATM   23  H   UNL     1       8.194  29.818  58.153  1.00  0.00     0.192 HD
BRANCH  20  24
HETATM   24  C   UNL     1       9.162  31.479  60.075  1.00  0.00     0.036 A 
HETATM   25  C   UNL     1       9.442  30.755  61.237  1.00  0.00     0.029 A 
HETATM   26  C   UNL     1       8.568  30.796  62.329  1.00  0.00     0.002 A 
HETATM   27  C   UNL     1       7.420  31.580  62.278  1.00  0.00     0.000 A 
HETATM   28  C   UNL     1       7.153  32.341  61.143  1.00  0.00     0.002 A 
HETATM   29  C   UNL     1       8.027  32.299  60.053  1.00  0.00     0.029 A 
ENDBRANCH  20  24
ENDBRANCH   2  18
TORSDOF 5
ENDMDL
MODEL 4
REMARK VINA RESULT:      -9.0      2.292      9.655
REMARK  5 active torsions:
REMARK  status: ('A' for Active; 'I' for Inactive)
REMARK    1  A    between atoms: C_7  and  S_8 
REMARK    2  A    between atoms: S_8  and  C_9 
REMARK    3  A    between atoms: C_9  and  C_10 
REMARK       I    between atoms: C_10  and  N_11 
REMARK    4  A    between atoms: N_11  and  N_12 
REMARK       I    between atoms: N_12  and  C_13 
REMARK       I    between atoms: C_13  and  N_14 
REMARK    5  A    between atoms: N_14  and  C_15 
ROOT
HETATM    1  C   UNL     1       7.356  26.996  57.098  1.00  0.00     0.245 C 
HETATM    2  N   UNL     1       6.571  26.457  56.105  1.00  0.00    -0.265 N 
HETATM    3  O   UNL     1       8.418  26.463  57.438  1.00  0.00    -0.271 OA
HETATM    4  H   UNL     1       5.731  26.905  55.737  1.00  0.00     0.190 HD
ENDROOT
BRANCH   1   5
HETATM    5  C   UNL     1       6.932  28.333  57.666  1.00  0.00     0.184 C 
BRANCH   5   6
HETATM    6  S   UNL     1       8.164  29.647  57.438  1.00  0.00    -0.118 SA
BRANCH   6   7
HETATM    7  C   UNL     1       7.525  30.823  58.569  1.00  0.00     0.035 A 
HETATM    8  C   UNL     1       6.403  31.599  58.365  1.00  0.00     0.023 A 
HETATM    9  C   UNL     1       5.476  31.707  57.210  1.00  0.00     0.069 C 
HETATM   10  N   UNL     1       6.223  32.347  59.504  1.00  0.00    -0.358 N 
HETATM   11  H   UNL     1       5.475  33.009  59.653  1.00  0.00     0.166 HD
HETATM   12  C   UNL     1       7.202  32.067  60.431  1.00  0.00     0.044 A 
HETATM   13  C   UNL     1       8.054  31.121  59.859  1.00  0.00     0.009 A 
HETATM   14  C   UNL     1       7.394  32.580  61.719  1.00  0.00     0.030 A 
HETATM   15  C   UNL     1       9.165  30.680  60.610  1.00  0.00     0.015 A 
HETATM   16  C   UNL     1       9.372  31.184  61.900  1.00  0.00     0.001 A 
HETATM   17  C   UNL     1       8.495  32.117  62.445  1.00  0.00     0.002 A 
ENDBRANCH   6   7
ENDBRANCH   5   6
ENDBRANCH   1   5
BRANCH   2  18
HETATM   18  N   UNL     1       7.045  25.312  55.444  1.00  0.00    -0.249 N 
HETATM   19  C   UNL     1       7.547  25.465  54.181  1.00  0.00     0.339 C 
HETATM   20  N   UNL     1       8.196  24.401  53.623  1.00  0.00    -0.308 N 
HETATM   21  O   UNL     1       7.474  26.531  53.567  1.00  0.00    -0.245 OA
HETATM   22  H   UNL     1       8.697  24.676  52.787  1.00  0.00     0.170 HD
HETATM   23  H   UNL     1       7.538  24.668  56.059  1.00  0.00     0.192 HD
BRANCH  20  24
HETATM   24  C   UNL     1       8.314  23.053  54.015  1.00  0.00     0.036 A 
HETATM   25  C   UNL     1       8.920  22.623  55.200  1.00  0.00     0.029 A 
HETATM   26  C   UNL     1       9.025  21.259  55.489  1.00  0.00     0.002 A 
HETATM   27  C   UNL     1       8.505  20.313  54.611  1.00  0.00     0.000 A 
HETATM   28  C   UNL     1       7.860  20.731  53.450  1.00  0.00     0.002 A 
HETATM   29  C   UNL     1       7.756  22.094  53.161  1.00  0.00     0.029 A 
ENDBRANCH  20  24
ENDBRANCH   2  18
TORSDOF 5
ENDMDL
MODEL 5
REMARK VINA RESULT:      -8.9      1.888      2.288
REMARK  5 active torsions:
REMARK  status: ('A' for Active; 'I' for Inactive)
REMARK    1  A    between atoms: C_7  and  S_8 
REMARK    2  A    between atoms: S_8  and  C_9 
REMARK    3  A    between atoms: C_9  and  C_10 
REMARK       I    between atoms: C_10  and  N_11 
REMARK    4  A    between atoms: N_11  and  N_12 
REMARK       I    between atoms: N_12  and  C_13 
REMARK       I    between atoms: C_13  and  N_14 
REMARK    5  A    between atoms: N_14  and  C_15 
ROOT
HETATM    1  C   UNL     1       7.736  28.872  56.455  1.00  0.00     0.245 C 
HETATM    2  N   UNL     1       6.721  29.109  57.354  1.00  0.00    -0.265 N 
HETATM    3  O   UNL     1       8.777  29.535  56.473  1.00  0.00    -0.271 OA
HETATM    4  H   UNL     1       5.881  28.535  57.428  1.00  0.00     0.190 HD
ENDROOT
BRANCH   1   5
HETATM    5  C   UNL     1       7.576  27.685  55.529  1.00  0.00     0.184 C 
BRANCH   5   6
HETATM    6  S   UNL     1       6.567  26.347  56.226  1.00  0.00    -0.118 SA
BRANCH   6   7
HETATM    7  C   UNL     1       6.606  25.238  54.870  1.00  0.00     0.035 A 
HETATM    8  C   UNL     1       5.826  25.334  53.736  1.00  0.00     0.023 A 
HETATM    9  C   UNL     1       4.769  26.303  53.347  1.00  0.00     0.069 C 
HETATM   10  N   UNL     1       6.198  24.303  52.907  1.00  0.00    -0.358 N 
HETATM   11  H   UNL     1       5.802  24.118  51.996  1.00  0.00     0.166 HD
HETATM   12  C   UNL     1       7.196  23.550  53.484  1.00  0.00     0.044 A 
HETATM   13  C   UNL     1       7.461  24.105  54.737  1.00  0.00     0.009 A 
HETATM   14  C   UNL     1       7.874  22.428  52.992  1.00  0.00     0.030 A 
HETATM   15  C   UNL     1       8.444  23.493  55.544  1.00  0.00     0.015 A 
HETATM   16  C   UNL     1       9.131  22.369  55.068  1.00  0.00     0.001 A 
HETATM   17  C   UNL     1       8.850  21.850  53.807  1.00  0.00     0.002 A 
ENDBRANCH   6   7
ENDBRANCH   5   6
ENDBRANCH   1   5
BRANCH   2  18
HETATM   18  N   UNL     1       6.931  30.090  58.337  1.00  0.00    -0.249 N 
HETATM   19  C   UNL     1       6.319  31.301  58.173  1.00  0.00     0.339 C 
HETATM   20  N   UNL     1       6.350  32.175  59.222  1.00  0.00    -0.308 N 
HETATM   21  O   UNL     1       5.710  31.598  57.144  1.00  0.00    -0.245 OA
HETATM   22  H   UNL     1       5.708  32.944  59.076  1.00  0.00     0.170 HD
HETATM   23  H   UNL     1       6.956  29.711  59.282  1.00  0.00     0.192 HD
BRANCH  20  24
HETATM   24  C   UNL     1       7.063  32.170  60.437  1.00  0.00     0.036 A 
HETATM   25  C   UNL     1       8.457  32.144  60.537  1.00  0.00     0.029 A 
HETATM   26  C   UNL     1       9.079  32.104  61.789  1.00  0.00     0.002 A 
HETATM   27  C   UNL     1       8.315  32.113  62.952  1.00  0.00     0.000 A 
HETATM   28  C   UNL     1       6.928  32.184  62.866  1.00  0.00     0.002 A 
HETATM   29  C   UNL     1       6.307  32.224  61.615  1.00  0.00     0.029 A 
ENDBRANCH  20  24
ENDBRANCH   2  18
TORSDOF 5
ENDMDL
MODEL 6
REMARK VINA RESULT:      -8.8      2.161      9.596
REMARK  5 active torsions:
REMARK  status: ('A' for Active; 'I' for Inactive)
REMARK    1  A    between atoms: C_7  and  S_8 
REMARK    2  A    between atoms: S_8  and  C_9 
REMARK    3  A    between atoms: C_9  and  C_10 
REMARK       I    between atoms: C_10  and  N_11 
REMARK    4  A    between atoms: N_11  and  N_12 
REMARK       I    between atoms: N_12  and  C_13 
REMARK       I    between atoms: C_13  and  N_14 
REMARK    5  A    between atoms: N_14  and  C_15 
ROOT
HETATM    1  C   UNL     1       6.893  27.287  56.729  1.00  0.00     0.245 C 
HETATM    2  N   UNL     1       6.706  26.030  57.256  1.00  0.00    -0.265 N 
HETATM    3  O   UNL     1       7.597  27.465  55.729  1.00  0.00    -0.271 OA
HETATM    4  H   UNL     1       6.071  25.825  58.028  1.00  0.00     0.190 HD
ENDROOT
BRANCH   1   5
HETATM    5  C   UNL     1       6.102  28.420  57.346  1.00  0.00     0.184 C 
BRANCH   5   6
HETATM    6  S   UNL     1       6.565  30.059  56.717  1.00  0.00    -0.118 SA
BRANCH   6   7
HETATM    7  C   UNL     1       7.663  30.543  57.995  1.00  0.00     0.035 A 
HETATM    8  C   UNL     1       9.004  30.227  58.057  1.00  0.00     0.023 A 
HETATM    9  C   UNL     1       9.868  29.417  57.161  1.00  0.00     0.069 C 
HETATM   10  N   UNL     1       9.505  30.833  59.184  1.00  0.00    -0.358 N 
HETATM   11  H   UNL     1      10.466  30.786  59.492  1.00  0.00     0.166 HD
HETATM   12  C   UNL     1       8.517  31.529  59.843  1.00  0.00     0.044 A 
HETATM   13  C   UNL     1       7.334  31.346  59.126  1.00  0.00     0.009 A 
HETATM   14  C   UNL     1       8.584  32.296  61.012  1.00  0.00     0.030 A 
HETATM   15  C   UNL     1       6.155  31.949  59.615  1.00  0.00     0.015 A 
HETATM   16  C   UNL     1       6.204  32.720  60.783  1.00  0.00     0.001 A 
HETATM   17  C   UNL     1       7.405  32.892  61.467  1.00  0.00     0.002 A 
ENDBRANCH   6   7
ENDBRANCH   5   6
ENDBRANCH   1   5
BRANCH   2  18
HETATM   18  N   UNL     1       7.290  24.943  56.585  1.00  0.00    -0.249 N 
HETATM   19  C   UNL     1       8.369  24.336  57.167  1.00  0.00     0.339 C 
HETATM   20  N   UNL     1       8.803  23.160  56.627  1.00  0.00    -0.308 N 
HETATM   21  O   UNL     1       8.916  24.789  58.174  1.00  0.00    -0.245 OA
HETATM   22  H   UNL     1       9.464  22.698  57.240  1.00  0.00     0.170 HD
HETATM   23  H   UNL     1       6.608  24.334  56.136  1.00  0.00     0.192 HD
BRANCH  20  24
HETATM   24  C   UNL     1       8.475  22.489  55.432  1.00  0.00     0.036 A 
HETATM   25  C   UNL     1       8.333  23.110  54.188  1.00  0.00     0.029 A 
HETATM   26  C   UNL     1       7.969  22.367  53.061  1.00  0.00     0.002 A 
HETATM   27  C   UNL     1       7.766  20.994  53.161  1.00  0.00     0.000 A 
HETATM   28  C   UNL     1       7.948  20.357  54.386  1.00  0.00     0.002 A 
HETATM   29  C   UNL     1       8.312  21.100  55.511  1.00  0.00     0.029 A 
ENDBRANCH  20  24
ENDBRANCH   2  18
TORSDOF 5
ENDMDL
MODEL 7
REMARK VINA RESULT:      -8.7      2.936      8.673
REMARK  5 active torsions:
REMARK  status: ('A' for Active; 'I' for Inactive)
REMARK    1  A    between atoms: C_7  and  S_8 
REMARK    2  A    between atoms: S_8  and  C_9 
REMARK    3  A    between atoms: C_9  and  C_10 
REMARK       I    between atoms: C_10  and  N_11 
REMARK    4  A    between atoms: N_11  and  N_12 
REMARK       I    between atoms: N_12  and  C_13 
REMARK       I    between atoms: C_13  and  N_14 
REMARK    5  A    between atoms: N_14  and  C_15 
ROOT
HETATM    1  C   UNL     1       5.241  27.163  55.222  1.00  0.00     0.245 C 
HETATM    2  N   UNL     1       5.351  26.100  56.089  1.00  0.00    -0.265 N 
HETATM    3  O   UNL     1       5.928  27.230  54.197  1.00  0.00    -0.271 OA
HETATM    4  H   UNL     1       4.748  25.963  56.901  1.00  0.00     0.190 HD
ENDROOT
BRANCH   1   5
HETATM    5  C   UNL     1       4.155  28.179  55.508  1.00  0.00     0.184 C 
BRANCH   5   6
HETATM    6  S   UNL     1       4.656  29.893  55.179  1.00  0.00    -0.118 SA
BRANCH   6   7
HETATM    7  C   UNL     1       5.583  30.193  56.636  1.00  0.00     0.035 A 
HETATM    8  C   UNL     1       5.082  30.724  57.805  1.00  0.00     0.023 A 
HETATM    9  C   UNL     1       3.723  31.205  58.166  1.00  0.00     0.069 C 
HETATM   10  N   UNL     1       6.118  30.751  58.708  1.00  0.00    -0.358 N 
HETATM   11  H   UNL     1       6.052  31.085  59.659  1.00  0.00     0.166 HD
HETATM   12  C   UNL     1       7.269  30.250  58.143  1.00  0.00     0.044 A 
HETATM   13  C   UNL     1       6.967  29.907  56.824  1.00  0.00     0.009 A 
HETATM   14  C   UNL     1       8.542  30.079  58.699  1.00  0.00     0.030 A 
HETATM   15  C   UNL     1       7.999  29.384  56.016  1.00  0.00     0.015 A 
HETATM   16  C   UNL     1       9.279  29.207  56.556  1.00  0.00     0.001 A 
HETATM   17  C   UNL     1       9.542  29.547  57.880  1.00  0.00     0.002 A 
ENDBRANCH   6   7
ENDBRANCH   5   6
ENDBRANCH   1   5
BRANCH   2  18
HETATM   18  N   UNL     1       6.227  25.058  55.741  1.00  0.00    -0.249 N 
HETATM   19  C   UNL     1       7.452  25.024  56.347  1.00  0.00     0.339 C 
HETATM   20  N   UNL     1       8.215  23.906  56.171  1.00  0.00    -0.308 N 
HETATM   21  O   UNL     1       7.855  25.936  57.072  1.00  0.00    -0.245 OA
HETATM   22  H   UNL     1       9.000  23.895  56.812  1.00  0.00     0.170 HD
HETATM   23  H   UNL     1       5.755  24.165  55.608  1.00  0.00     0.192 HD
BRANCH  20  24
HETATM   24  C   UNL     1       8.084  22.795  55.315  1.00  0.00     0.036 A 
HETATM   25  C   UNL     1       7.887  21.481  55.748  1.00  0.00     0.029 A 
HETATM   26  C   UNL     1       7.805  20.433  54.825  1.00  0.00     0.002 A 
HETATM   27  C   UNL     1       7.894  20.692  53.460  1.00  0.00     0.000 A 
HETATM   28  C   UNL     1       8.046  22.003  53.015  1.00  0.00     0.002 A 
HETATM   29  C   UNL     1       8.128  23.048  53.938  1.00  0.00     0.029 A 
ENDBRANCH  20  24
ENDBRANCH   2  18
TORSDOF 5
ENDMDL
MODEL 8
REMARK VINA RESULT:      -8.7      5.629      9.473
REMARK  5 active torsions:
REMARK  status: ('A' for Active; 'I' for Inactive)
REMARK    1  A    between atoms: C_7  and  S_8 
REMARK    2  A    between atoms: S_8  and  C_9 
REMARK    3  A    between atoms: C_9  and  C_10 
REMARK       I    between atoms: C_10  and  N_11 
REMARK    4  A    between atoms: N_11  and  N_12 
REMARK       I    between atoms: N_12  and  C_13 
REMARK       I    between atoms: C_13  and  N_14 
REMARK    5  A    between atoms: N_14  and  C_15 
ROOT
HETATM    1  C   UNL     1       5.356  26.194  51.170  1.00  0.00     0.245 C 
HETATM    2  N   UNL     1       4.416  25.729  50.279  1.00  0.00    -0.265 N 
HETATM    3  O   UNL     1       5.687  27.384  51.192  1.00  0.00    -0.271 OA
HETATM    4  H   UNL     1       4.052  24.776  50.280  1.00  0.00     0.190 HD
ENDROOT
BRANCH   1   5
HETATM    5  C   UNL     1       5.870  25.216  52.205  1.00  0.00     0.184 C 
BRANCH   5   6
HETATM    6  S   UNL     1       7.570  25.553  52.744  1.00  0.00    -0.118 SA
BRANCH   6   7
HETATM    7  C   UNL     1       7.643  24.466  54.117  1.00  0.00     0.035 A 
HETATM    8  C   UNL     1       7.541  24.842  55.440  1.00  0.00     0.023 A 
HETATM    9  C   UNL     1       7.385  26.176  56.076  1.00  0.00     0.069 C 
HETATM   10  N   UNL     1       7.601  23.692  56.189  1.00  0.00    -0.358 N 
HETATM   11  H   UNL     1       7.546  23.650  57.197  1.00  0.00     0.166 HD
HETATM   12  C   UNL     1       7.739  22.589  55.376  1.00  0.00     0.044 A 
HETATM   13  C   UNL     1       7.791  23.049  54.059  1.00  0.00     0.009 A 
HETATM   14  C   UNL     1       7.824  21.232  55.709  1.00  0.00     0.030 A 
HETATM   15  C   UNL     1       7.953  22.102  53.026  1.00  0.00     0.015 A 
HETATM   16  C   UNL     1       8.040  20.740  53.341  1.00  0.00     0.001 A 
HETATM   17  C   UNL     1       7.972  20.315  54.665  1.00  0.00     0.002 A 
ENDBRANCH   6   7
ENDBRANCH   5   6
ENDBRANCH   1   5
BRANCH   2  18
HETATM   18  N   UNL     1       3.796  26.664  49.433  1.00  0.00    -0.249 N 
HETATM   19  C   UNL     1       3.129  26.191  48.337  1.00  0.00     0.339 C 
HETATM   20  N   UNL     1       2.355  27.071  47.636  1.00  0.00    -0.308 N 
HETATM   21  O   UNL     1       3.168  25.005  48.002  1.00  0.00    -0.245 OA
HETATM   22  H   UNL     1       1.756  26.588  46.978  1.00  0.00     0.170 HD
HETATM   23  H   UNL     1       3.363  27.436  49.936  1.00  0.00     0.192 HD
BRANCH  20  24
HETATM   24  C   UNL     1       2.226  28.473  47.696  1.00  0.00     0.036 A 
HETATM   25  C   UNL     1       1.240  29.147  48.422  1.00  0.00     0.029 A 
HETATM   26  C   UNL     1       1.165  30.543  48.393  1.00  0.00     0.002 A 
HETATM   27  C   UNL     1       2.089  31.279  47.657  1.00  0.00     0.000 A 
HETATM   28  C   UNL     1       3.102  30.621  46.966  1.00  0.00     0.002 A 
HETATM   29  C   UNL     1       3.175  29.227  46.995  1.00  0.00     0.029 A 
ENDBRANCH  20  24
ENDBRANCH   2  18
TORSDOF 5
ENDMDL
MODEL 9
REMARK VINA RESULT:      -8.6      6.213      9.176
REMARK  5 active torsions:
REMARK  status: ('A' for Active; 'I' for Inactive)
REMARK    1  A    between atoms: C_7  and  S_8 
REMARK    2  A    between atoms: S_8  and  C_9 
REMARK    3  A    between atoms: C_9  and  C_10 
REMARK       I    between atoms: C_10  and  N_11 
REMARK    4  A    between atoms: N_11  and  N_12 
REMARK       I    between atoms: N_12  and  C_13 
REMARK       I    between atoms: C_13  and  N_14 
REMARK    5  A    between atoms: N_14  and  C_15 
ROOT
HETATM    1  C   UNL     1       5.167  26.495  53.440  1.00  0.00     0.245 C 
HETATM    2  N   UNL     1       5.226  25.295  52.768  1.00  0.00    -0.265 N 
HETATM    3  O   UNL     1       5.849  26.699  54.450  1.00  0.00    -0.271 OA
HETATM    4  H   UNL     1       4.745  25.112  51.887  1.00  0.00     0.190 HD
ENDROOT
BRANCH   1   5
HETATM    5  C   UNL     1       4.334  27.595  52.818  1.00  0.00     0.184 C 
BRANCH   5   6
HETATM    6  S   UNL     1       5.128  28.397  51.397  1.00  0.00    -0.118 SA
BRANCH   6   7
HETATM    7  C   UNL     1       3.761  28.430  50.300  1.00  0.00     0.035 A 
HETATM    8  C   UNL     1       2.781  29.399  50.275  1.00  0.00     0.023 A 
HETATM    9  C   UNL     1       2.564  30.603  51.117  1.00  0.00     0.069 C 
HETATM   10  N   UNL     1       1.929  29.079  49.245  1.00  0.00    -0.358 N 
HETATM   11  H   UNL     1       1.113  29.611  48.978  1.00  0.00     0.166 HD
HETATM   12  C   UNL     1       2.342  27.928  48.612  1.00  0.00     0.044 A 
HETATM   13  C   UNL     1       3.488  27.481  49.271  1.00  0.00     0.009 A 
HETATM   14  C   UNL     1       1.787  27.256  47.516  1.00  0.00     0.030 A 
HETATM   15  C   UNL     1       4.099  26.291  48.820  1.00  0.00     0.015 A 
HETATM   16  C   UNL     1       3.556  25.607  47.725  1.00  0.00     0.001 A 
HETATM   17  C   UNL     1       2.419  26.088  47.083  1.00  0.00     0.002 A 
ENDBRANCH   6   7
ENDBRANCH   5   6
ENDBRANCH   1   5
BRANCH   2  18
HETATM   18  N   UNL     1       6.134  24.328  53.231  1.00  0.00    -0.249 N 
HETATM   19  C   UNL     1       7.361  24.263  52.631  1.00  0.00     0.339 C 
HETATM   20  N   UNL     1       8.311  23.475  53.213  1.00  0.00    -0.308 N 
HETATM   21  O   UNL     1       7.639  24.922  51.628  1.00  0.00    -0.245 OA
HETATM   22  H   UNL     1       9.226  23.651  52.816  1.00  0.00     0.170 HD
HETATM   23  H   UNL     1       6.110  24.207  54.242  1.00  0.00     0.192 HD
BRANCH  20  24
HETATM   24  C   UNL     1       8.247  22.527  54.254  1.00  0.00     0.036 A 
HETATM   25  C   UNL     1       7.990  21.165  54.070  1.00  0.00     0.029 A 
HETATM   26  C   UNL     1       7.908  20.303  55.168  1.00  0.00     0.002 A 
HETATM   27  C   UNL     1       8.107  20.788  56.457  1.00  0.00     0.000 A 
HETATM   28  C   UNL     1       8.408  22.134  56.649  1.00  0.00     0.002 A 
HETATM   29  C   UNL     1       8.489  22.995  55.552  1.00  0.00     0.029 A 
ENDBRANCH  20  24
ENDBRANCH   2  18
TORSDOF 5
ENDMDL
MODEL 10
REMARK VINA RESULT:      -8.3      2.520      3.281
REMARK  5 active torsions:
REMARK  status: ('A' for Active; 'I' for Inactive)
REMARK    1  A    between atoms: C_7  and  S_8 
REMARK    2  A    between atoms: S_8  and  C_9 
REMARK    3  A    between atoms: C_9  and  C_10 
REMARK       I    between atoms: C_10  and  N_11 
REMARK    4  A    between atoms: N_11  and  N_12 
REMARK       I    between atoms: N_12  and  C_13 
REMARK       I    between atoms: C_13  and  N_14 
REMARK    5  A    between atoms: N_14  and  C_15 
ROOT
HETATM    1  C   UNL     1       6.546  29.170  57.698  1.00  0.00     0.245 C 
HETATM    2  N   UNL     1       7.615  29.078  58.559  1.00  0.00    -0.265 N 
HETATM    3  O   UNL     1       5.739  30.102  57.774  1.00  0.00    -0.271 OA
HETATM    4  H   UNL     1       8.350  28.374  58.481  1.00  0.00     0.190 HD
ENDROOT
BRANCH   1   5
HETATM    5  C   UNL     1       6.472  28.157  56.576  1.00  0.00     0.184 C 
BRANCH   5   6
HETATM    6  S   UNL     1       6.267  28.902  54.933  1.00  0.00    -0.118 SA
BRANCH   6   7
HETATM    7  C   UNL     1       5.636  27.509  54.076  1.00  0.00     0.035 A 
HETATM    8  C   UNL     1       4.423  27.456  53.422  1.00  0.00     0.023 A 
HETATM    9  C   UNL     1       3.339  28.461  53.275  1.00  0.00     0.069 C 
HETATM   10  N   UNL     1       4.333  26.212  52.848  1.00  0.00    -0.358 N 
HETATM   11  H   UNL     1       3.554  25.880  52.296  1.00  0.00     0.166 HD
HETATM   12  C   UNL     1       5.460  25.467  53.119  1.00  0.00     0.044 A 
HETATM   13  C   UNL     1       6.294  26.255  53.913  1.00  0.00     0.009 A 
HETATM   14  C   UNL     1       5.795  24.167  52.724  1.00  0.00     0.030 A 
HETATM   15  C   UNL     1       7.519  25.704  54.348  1.00  0.00     0.015 A 
HETATM   16  C   UNL     1       7.869  24.404  53.962  1.00  0.00     0.001 A 
HETATM   17  C   UNL     1       7.018  23.651  53.159  1.00  0.00     0.002 A 
ENDBRANCH   6   7
ENDBRANCH   5   6
ENDBRANCH   1   5
BRANCH   2  18
HETATM   18  N   UNL     1       7.798  30.112  59.491  1.00  0.00    -0.249 N 
HETATM   19  C   UNL     1       8.749  31.057  59.221  1.00  0.00     0.339 C 
HETATM   20  N   UNL     1       8.783  32.168  60.012  1.00  0.00    -0.308 N 
HETATM   21  O   UNL     1       9.527  30.955  58.270  1.00  0.00    -0.245 OA
HETATM   22  H   UNL     1       9.377  32.885  59.612  1.00  0.00     0.170 HD
HETATM   23  H   UNL     1       6.925  30.443  59.900  1.00  0.00     0.192 HD
BRANCH  20  24
HETATM   24  C   UNL     1       8.131  32.491  61.219  1.00  0.00     0.036 A 
HETATM   25  C   UNL     1       8.652  32.242  62.492  1.00  0.00     0.029 A 
HETATM   26  C   UNL     1       7.917  32.565  63.637  1.00  0.00     0.002 A 
HETATM   27  C   UNL     1       6.664  33.159  63.521  1.00  0.00     0.000 A 
HETATM   28  C   UNL     1       6.153  33.453  62.259  1.00  0.00     0.002 A 
HETATM   29  C   UNL     1       6.889  33.131  61.116  1.00  0.00     0.029 A 
ENDBRANCH  20  24
ENDBRANCH   2  18
TORSDOF 5
ENDMDL
