MODEL 1
REMARK VINA RESULT:      -9.8      0.000      0.000
REMARK  3 active torsions:
REMARK  status: ('A' for Active; 'I' for Inactive)
REMARK    1  A    between atoms: O_2  and  C_3 
REMARK    2  A    between atoms: C_4  and  N_5 
REMARK       I    between atoms: N_5  and  C_6 
REMARK       I    between atoms: C_6  and  N_7 
REMARK    3  A    between atoms: C_8  and  C_9 
ROOT
HETATM    1  N   UNL     1       7.419  28.973  55.118  1.00  0.00    -0.306 N 
HETATM    2  C   UNL     1       7.427  27.718  54.542  1.00  0.00     0.323 C 
HETATM    3  N   UNL     1       6.336  27.457  53.676  1.00  0.00    -0.324 N 
HETATM    4  C   UNL     1       6.542  26.462  52.593  1.00  0.00     0.139 C 
HETATM    5  C   UNL     1       5.276  26.163  51.750  1.00  0.00     0.032 C 
HETATM    6  C   UNL     1       4.471  27.397  51.401  1.00  0.00     0.004 C 
HETATM    7  C   UNL     1       4.103  28.104  52.688  1.00  0.00     0.020 C 
HETATM    8  C   UNL     1       5.365  28.530  53.418  1.00  0.00     0.128 C 
HETATM    9  O   UNL     1       8.325  26.912  54.768  1.00  0.00    -0.247 OA
HETATM   10  H   UNL     1       7.075  29.734  54.551  1.00  0.00     0.171 HD
ENDROOT
BRANCH   4  11
HETATM   11  C   UNL     1       7.038  25.125  53.074  1.00  0.00     0.033 A 
HETATM   12  N   UNL     1       6.775  24.630  54.330  1.00  0.00    -0.357 N 
HETATM   13  H   UNL     1       6.310  25.149  55.062  1.00  0.00     0.166 HD
HETATM   14  C   UNL     1       7.267  23.351  54.460  1.00  0.00     0.042 A 
HETATM   15  C   UNL     1       7.901  23.032  53.261  1.00  0.00    -0.007 A 
HETATM   16  C   UNL     1       7.211  22.464  55.542  1.00  0.00     0.030 A 
HETATM   17  C   UNL     1       7.761  24.155  52.403  1.00  0.00     0.041 A 
HETATM   18  C   UNL     1       8.508  21.768  53.127  1.00  0.00     0.014 A 
HETATM   19  C   UNL     1       8.457  20.868  54.196  1.00  0.00     0.001 A 
HETATM   20  C   UNL     1       7.816  21.213  55.385  1.00  0.00     0.002 A 
ENDBRANCH   4  11
BRANCH   1  21
HETATM   21  C   UNL     1       8.233  29.403  56.189  1.00  0.00     0.072 A 
HETATM   22  C   UNL     1       7.607  29.656  57.423  1.00  0.00     0.095 A 
HETATM   23  C   UNL     1       8.349  29.987  58.558  1.00  0.00     0.042 A 
HETATM   24  C   UNL     1       9.733  30.102  58.453  1.00  0.00     0.045 A 
HETATM   25  C   UNL     1      10.351  29.880  57.225  1.00  0.00     0.118 A 
HETATM   26  C   UNL     1       9.618  29.532  56.093  1.00  0.00     0.074 A 
HETATM   27  F   UNL     1      11.684  29.983  57.139  1.00  0.00    -0.206 F 
BRANCH  22  28
HETATM   28  O   UNL     1       6.240  29.551  57.523  1.00  0.00    -0.354 OA
HETATM   29  C   UNL     1       5.681  30.839  57.804  1.00  0.00     0.210 C 
ENDBRANCH  22  28
ENDBRANCH   1  21
TORSDOF 3
ENDMDL
MODEL 2
REMARK VINA RESULT:      -9.8      2.356      6.915
REMARK  3 active torsions:
REMARK  status: ('A' for Active; 'I' for Inactive)
REMARK    1  A    between atoms: O_2  and  C_3 
REMARK    2  A    between atoms: C_4  and  N_5 
REMARK       I    between atoms: N_5  and  C_6 
REMARK       I    between atoms: C_6  and  N_7 
REMARK    3  A    between atoms: C_8  and  C_9 
ROOT
HETATM    1  N   UNL     1       6.956  23.654  54.446  1.00  0.00    -0.306 N 
HETATM    2  C   UNL     1       7.070  24.999  54.737  1.00  0.00     0.323 C 
HETATM    3  N   UNL     1       6.587  25.866  53.725  1.00  0.00    -0.324 N 
HETATM    4  C   UNL     1       6.111  27.210  54.142  1.00  0.00     0.139 C 
HETATM    5  C   UNL     1       5.689  28.132  52.970  1.00  0.00     0.032 C 
HETATM    6  C   UNL     1       4.885  27.424  51.898  1.00  0.00     0.004 C 
HETATM    7  C   UNL     1       5.699  26.251  51.392  1.00  0.00     0.020 C 
HETATM    8  C   UNL     1       5.962  25.281  52.530  1.00  0.00     0.128 C 
HETATM    9  O   UNL     1       7.546  25.390  55.798  1.00  0.00    -0.247 OA
HETATM   10  H   UNL     1       6.138  23.366  53.929  1.00  0.00     0.171 HD
ENDROOT
BRANCH   4  11
HETATM   11  C   UNL     1       7.117  27.997  54.938  1.00  0.00     0.033 A 
HETATM   12  N   UNL     1       6.954  28.303  56.270  1.00  0.00    -0.357 N 
HETATM   13  H   UNL     1       6.117  28.108  56.801  1.00  0.00     0.166 HD
HETATM   14  C   UNL     1       8.069  28.942  56.762  1.00  0.00     0.042 A 
HETATM   15  C   UNL     1       8.960  29.086  55.699  1.00  0.00    -0.007 A 
HETATM   16  C   UNL     1       8.351  29.411  58.050  1.00  0.00     0.030 A 
HETATM   17  C   UNL     1       8.349  28.500  54.560  1.00  0.00     0.041 A 
HETATM   18  C   UNL     1      10.194  29.724  55.929  1.00  0.00     0.014 A 
HETATM   19  C   UNL     1      10.494  30.194  57.212  1.00  0.00     0.001 A 
HETATM   20  C   UNL     1       9.584  30.037  58.255  1.00  0.00     0.002 A 
ENDBRANCH   4  11
BRANCH   1  21
HETATM   21  C   UNL     1       7.569  22.594  55.151  1.00  0.00     0.072 A 
HETATM   22  C   UNL     1       8.245  21.617  54.400  1.00  0.00     0.095 A 
HETATM   23  C   UNL     1       8.962  20.593  55.020  1.00  0.00     0.042 A 
HETATM   24  C   UNL     1       8.975  20.522  56.412  1.00  0.00     0.045 A 
HETATM   25  C   UNL     1       8.282  21.473  57.156  1.00  0.00     0.118 A 
HETATM   26  C   UNL     1       7.580  22.508  56.542  1.00  0.00     0.074 A 
HETATM   27  F   UNL     1       8.312  21.401  58.493  1.00  0.00    -0.206 F 
BRANCH  22  28
HETATM   28  O   UNL     1       8.224  21.682  53.026  1.00  0.00    -0.354 OA
HETATM   29  C   UNL     1       8.334  20.362  52.484  1.00  0.00     0.210 C 
ENDBRANCH  22  28
ENDBRANCH   1  21
TORSDOF 3
ENDMDL
MODEL 3
REMARK VINA RESULT:      -9.4      2.950      5.570
REMARK  3 active torsions:
REMARK  status: ('A' for Active; 'I' for Inactive)
REMARK    1  A    between atoms: O_2  and  C_3 
REMARK    2  A    between atoms: C_4  and  N_5 
REMARK       I    between atoms: N_5  and  C_6 
REMARK       I    between atoms: C_6  and  N_7 
REMARK    3  A    between atoms: C_8  and  C_9 
ROOT
HETATM    1  N   UNL     1       5.677  28.006  53.150  1.00  0.00    -0.306 N 
HETATM    2  C   UNL     1       6.133  26.901  53.841  1.00  0.00     0.323 C 
HETATM    3  N   UNL     1       7.087  27.187  54.850  1.00  0.00    -0.324 N 
HETATM    4  C   UNL     1       7.179  26.244  55.995  1.00  0.00     0.139 C 
HETATM    5  C   UNL     1       8.307  26.573  57.005  1.00  0.00     0.032 C 
HETATM    6  C   UNL     1       8.430  28.049  57.323  1.00  0.00     0.004 C 
HETATM    7  C   UNL     1       8.638  28.799  56.024  1.00  0.00     0.020 C 
HETATM    8  C   UNL     1       7.441  28.589  55.114  1.00  0.00     0.128 C 
HETATM    9  O   UNL     1       5.723  25.771  53.593  1.00  0.00    -0.247 OA
HETATM   10  H   UNL     1       5.565  28.861  53.675  1.00  0.00     0.171 HD
ENDROOT
BRANCH   4  11
HETATM   11  C   UNL     1       7.395  24.811  55.593  1.00  0.00     0.033 A 
HETATM   12  N   UNL     1       8.037  24.440  54.434  1.00  0.00    -0.357 N 
HETATM   13  H   UNL     1       8.337  25.085  53.717  1.00  0.00     0.166 HD
HETATM   14  C   UNL     1       8.177  23.072  54.373  1.00  0.00     0.042 A 
HETATM   15  C   UNL     1       7.569  22.547  55.512  1.00  0.00    -0.007 A 
HETATM   16  C   UNL     1       8.780  22.265  53.401  1.00  0.00     0.030 A 
HETATM   17  C   UNL     1       7.072  23.644  56.263  1.00  0.00     0.041 A 
HETATM   18  C   UNL     1       7.560  21.151  55.695  1.00  0.00     0.014 A 
HETATM   19  C   UNL     1       8.162  20.330  54.736  1.00  0.00     0.001 A 
HETATM   20  C   UNL     1       8.763  20.882  53.607  1.00  0.00     0.002 A 
ENDBRANCH   4  11
BRANCH   1  21
HETATM   21  C   UNL     1       4.925  27.988  51.954  1.00  0.00     0.072 A 
HETATM   22  C   UNL     1       3.736  28.738  51.920  1.00  0.00     0.095 A 
HETATM   23  C   UNL     1       2.987  28.857  50.748  1.00  0.00     0.042 A 
HETATM   24  C   UNL     1       3.411  28.189  49.602  1.00  0.00     0.045 A 
HETATM   25  C   UNL     1       4.574  27.423  49.642  1.00  0.00     0.118 A 
HETATM   26  C   UNL     1       5.335  27.315  50.804  1.00  0.00     0.074 A 
HETATM   27  F   UNL     1       4.978  26.795  48.530  1.00  0.00    -0.206 F 
BRANCH  22  28
HETATM   28  O   UNL     1       3.313  29.390  53.055  1.00  0.00    -0.354 OA
HETATM   29  C   UNL     1       3.340  30.804  52.831  1.00  0.00     0.210 C 
ENDBRANCH  22  28
ENDBRANCH   1  21
TORSDOF 3
ENDMDL
MODEL 4
REMARK VINA RESULT:      -9.3      3.187      5.934
REMARK  3 active torsions:
REMARK  status: ('A' for Active; 'I' for Inactive)
REMARK    1  A    between atoms: O_2  and  C_3 
REMARK    2  A    between atoms: C_4  and  N_5 
REMARK       I    between atoms: N_5  and  C_6 
REMARK       I    between atoms: C_6  and  N_7 
REMARK    3  A    between atoms: C_8  and  C_9 
ROOT
HETATM    1  N   UNL     1       5.989  27.765  52.371  1.00  0.00    -0.306 N 
HETATM    2  C   UNL     1       6.344  26.719  53.200  1.00  0.00     0.323 C 
HETATM    3  N   UNL     1       7.155  27.087  54.302  1.00  0.00    -0.324 N 
HETATM    4  C   UNL     1       7.089  26.236  55.518  1.00  0.00     0.139 C 
HETATM    5  C   UNL     1       8.074  26.648  56.642  1.00  0.00     0.032 C 
HETATM    6  C   UNL     1       8.160  28.145  56.858  1.00  0.00     0.004 C 
HETATM    7  C   UNL     1       8.543  28.793  55.545  1.00  0.00     0.020 C 
HETATM    8  C   UNL     1       7.477  28.507  54.502  1.00  0.00     0.128 C 
HETATM    9  O   UNL     1       5.966  25.571  52.987  1.00  0.00    -0.247 OA
HETATM   10  H   UNL     1       5.812  28.657  52.809  1.00  0.00     0.171 HD
ENDROOT
BRANCH   4  11
HETATM   11  C   UNL     1       7.350  24.777  55.261  1.00  0.00     0.033 A 
HETATM   12  N   UNL     1       8.111  24.320  54.209  1.00  0.00    -0.357 N 
HETATM   13  H   UNL     1       8.481  24.908  53.476  1.00  0.00     0.166 HD
HETATM   14  C   UNL     1       8.261  22.953  54.276  1.00  0.00     0.042 A 
HETATM   15  C   UNL     1       7.539  22.516  55.385  1.00  0.00    -0.007 A 
HETATM   16  C   UNL     1       8.964  22.077  53.441  1.00  0.00     0.030 A 
HETATM   17  C   UNL     1       6.963  23.666  55.988  1.00  0.00     0.041 A 
HETATM   18  C   UNL     1       7.516  21.140  55.682  1.00  0.00     0.014 A 
HETATM   19  C   UNL     1       8.217  20.250  54.861  1.00  0.00     0.001 A 
HETATM   20  C   UNL     1       8.930  20.715  53.758  1.00  0.00     0.002 A 
ENDBRANCH   4  11
BRANCH   1  21
HETATM   21  C   UNL     1       5.405  27.651  51.090  1.00  0.00     0.072 A 
HETATM   22  C   UNL     1       5.490  28.762  50.233  1.00  0.00     0.095 A 
HETATM   23  C   UNL     1       5.029  28.701  48.917  1.00  0.00     0.042 A 
HETATM   24  C   UNL     1       4.441  27.523  48.460  1.00  0.00     0.045 A 
HETATM   25  C   UNL     1       4.330  26.431  49.316  1.00  0.00     0.118 A 
HETATM   26  C   UNL     1       4.805  26.481  50.625  1.00  0.00     0.074 A 
HETATM   27  F   UNL     1       3.774  25.301  48.861  1.00  0.00    -0.206 F 
BRANCH  22  28
HETATM   28  O   UNL     1       6.062  29.927  50.689  1.00  0.00    -0.354 OA
HETATM   29  C   UNL     1       5.073  30.963  50.722  1.00  0.00     0.210 C 
ENDBRANCH  22  28
ENDBRANCH   1  21
TORSDOF 3
ENDMDL
MODEL 5
REMARK VINA RESULT:      -8.9      2.274      6.929
REMARK  3 active torsions:
REMARK  status: ('A' for Active; 'I' for Inactive)
REMARK    1  A    between atoms: O_2  and  C_3 
REMARK    2  A    between atoms: C_4  and  N_5 
REMARK       I    between atoms: N_5  and  C_6 
REMARK       I    between atoms: C_6  and  N_7 
REMARK    3  A    between atoms: C_8  and  C_9 
ROOT
HETATM    1  N   UNL     1       6.075  25.063  54.385  1.00  0.00    -0.306 N 
HETATM    2  C   UNL     1       6.363  26.229  55.067  1.00  0.00     0.323 C 
HETATM    3  N   UNL     1       5.665  27.372  54.603  1.00  0.00    -0.324 N 
HETATM    4  C   UNL     1       5.427  28.472  55.574  1.00  0.00     0.139 C 
HETATM    5  C   UNL     1       4.744  29.724  54.967  1.00  0.00     0.032 C 
HETATM    6  C   UNL     1       3.615  29.399  54.011  1.00  0.00     0.004 C 
HETATM    7  C   UNL     1       4.161  28.504  52.919  1.00  0.00     0.020 C 
HETATM    8  C   UNL     1       4.679  27.212  53.526  1.00  0.00     0.128 C 
HETATM    9  O   UNL     1       7.155  26.249  56.004  1.00  0.00    -0.247 OA
HETATM   10  H   UNL     1       5.124  24.939  54.071  1.00  0.00     0.171 HD
ENDROOT
BRANCH   4  11
HETATM   11  C   UNL     1       6.674  28.973  56.250  1.00  0.00     0.033 A 
HETATM   12  N   UNL     1       7.912  28.970  55.650  1.00  0.00    -0.357 N 
HETATM   13  H   UNL     1       8.109  28.554  54.751  1.00  0.00     0.166 HD
HETATM   14  C   UNL     1       8.846  29.574  56.461  1.00  0.00     0.042 A 
HETATM   15  C   UNL     1       8.192  29.941  57.636  1.00  0.00    -0.007 A 
HETATM   16  C   UNL     1      10.210  29.811  56.252  1.00  0.00     0.030 A 
HETATM   17  C   UNL     1       6.835  29.550  57.498  1.00  0.00     0.041 A 
HETATM   18  C   UNL     1       8.929  30.578  58.654  1.00  0.00     0.014 A 
HETATM   19  C   UNL     1      10.291  30.827  58.459  1.00  0.00     0.001 A 
HETATM   20  C   UNL     1      10.920  30.449  57.275  1.00  0.00     0.002 A 
ENDBRANCH   4  11
BRANCH   1  21
HETATM   21  C   UNL     1       6.793  23.849  54.471  1.00  0.00     0.072 A 
HETATM   22  C   UNL     1       7.367  23.346  53.290  1.00  0.00     0.095 A 
HETATM   23  C   UNL     1       8.176  22.209  53.304  1.00  0.00     0.042 A 
HETATM   24  C   UNL     1       8.386  21.541  54.508  1.00  0.00     0.045 A 
HETATM   25  C   UNL     1       7.795  22.023  55.674  1.00  0.00     0.118 A 
HETATM   26  C   UNL     1       7.001  23.168  55.669  1.00  0.00     0.074 A 
HETATM   27  F   UNL     1       8.014  21.379  56.828  1.00  0.00    -0.206 F 
BRANCH  22  28
HETATM   28  O   UNL     1       7.151  24.000  52.099  1.00  0.00    -0.354 OA
HETATM   29  C   UNL     1       8.145  25.016  51.926  1.00  0.00     0.210 C 
ENDBRANCH  22  28
ENDBRANCH   1  21
TORSDOF 3
ENDMDL
MODEL 6
REMARK VINA RESULT:      -8.9      3.657      6.653
REMARK  3 active torsions:
REMARK  status: ('A' for Active; 'I' for Inactive)
REMARK    1  A    between atoms: O_2  and  C_3 
REMARK    2  A    between atoms: C_4  and  N_5 
REMARK       I    between atoms: N_5  and  C_6 
REMARK       I    between atoms: C_6  and  N_7 
REMARK    3  A    between atoms: C_8  and  C_9 
ROOT
HETATM    1  N   UNL     1       7.001  25.099  54.624  1.00  0.00    -0.306 N 
HETATM    2  C   UNL     1       6.584  25.946  53.617  1.00  0.00     0.323 C 
HETATM    3  N   UNL     1       5.712  26.982  54.038  1.00  0.00    -0.324 N 
HETATM    4  C   UNL     1       5.694  28.233  53.237  1.00  0.00     0.139 C 
HETATM    5  C   UNL     1       4.648  29.277  53.705  1.00  0.00     0.032 C 
HETATM    6  C   UNL     1       4.569  29.427  55.210  1.00  0.00     0.004 C 
HETATM    7  C   UNL     1       4.274  28.067  55.808  1.00  0.00     0.020 C 
HETATM    8  C   UNL     1       5.397  27.104  55.469  1.00  0.00     0.128 C 
HETATM    9  O   UNL     1       6.959  25.803  52.457  1.00  0.00    -0.247 OA
HETATM   10  H   UNL     1       7.163  25.511  55.531  1.00  0.00     0.171 HD
ENDROOT
BRANCH   4  11
HETATM   11  C   UNL     1       5.430  28.019  51.771  1.00  0.00     0.033 A 
HETATM   12  N   UNL     1       4.695  26.964  51.283  1.00  0.00    -0.357 N 
HETATM   13  H   UNL     1       4.348  26.201  51.847  1.00  0.00     0.166 HD
HETATM   14  C   UNL     1       4.534  27.074  49.920  1.00  0.00     0.042 A 
HETATM   15  C   UNL     1       5.224  28.216  49.517  1.00  0.00    -0.007 A 
HETATM   16  C   UNL     1       3.848  26.251  49.018  1.00  0.00     0.030 A 
HETATM   17  C   UNL     1       5.791  28.794  50.684  1.00  0.00     0.041 A 
HETATM   18  C   UNL     1       5.230  28.561  48.152  1.00  0.00     0.014 A 
HETATM   19  C   UNL     1       4.545  27.753  47.238  1.00  0.00     0.001 A 
HETATM   20  C   UNL     1       3.864  26.616  47.669  1.00  0.00     0.002 A 
ENDBRANCH   4  11
BRANCH   1  21
HETATM   21  C   UNL     1       7.660  23.861  54.451  1.00  0.00     0.072 A 
HETATM   22  C   UNL     1       8.700  23.547  55.344  1.00  0.00     0.095 A 
HETATM   23  C   UNL     1       9.336  22.305  55.308  1.00  0.00     0.042 A 
HETATM   24  C   UNL     1       8.953  21.375  54.344  1.00  0.00     0.045 A 
HETATM   25  C   UNL     1       7.942  21.696  53.441  1.00  0.00     0.118 A 
HETATM   26  C   UNL     1       7.292  22.928  53.484  1.00  0.00     0.074 A 
HETATM   27  F   UNL     1       7.575  20.789  52.527  1.00  0.00    -0.206 F 
BRANCH  22  28
HETATM   28  O   UNL     1       9.085  24.469  56.289  1.00  0.00    -0.354 OA
HETATM   29  C   UNL     1       8.679  24.019  57.586  1.00  0.00     0.210 C 
ENDBRANCH  22  28
ENDBRANCH   1  21
TORSDOF 3
ENDMDL
MODEL 7
REMARK VINA RESULT:      -8.8      6.630     10.106
REMARK  3 active torsions:
REMARK  status: ('A' for Active; 'I' for Inactive)
REMARK    1  A    between atoms: O_2  and  C_3 
REMARK    2  A    between atoms: C_4  and  N_5 
REMARK       I    between atoms: N_5  and  C_6 
REMARK       I    between atoms: C_6  and  N_7 
REMARK    3  A    between atoms: C_8  and  C_9 
ROOT
HETATM    1  N   UNL     1       4.355  34.814  60.722  1.00  0.00    -0.306 N 
HETATM    2  C   UNL     1       5.352  33.858  60.696  1.00  0.00     0.323 C 
HETATM    3  N   UNL     1       6.113  33.764  61.888  1.00  0.00    -0.324 N 
HETATM    4  C   UNL     1       6.749  32.457  62.195  1.00  0.00     0.139 C 
HETATM    5  C   UNL     1       7.641  32.462  63.463  1.00  0.00     0.032 C 
HETATM    6  C   UNL     1       7.039  33.221  64.628  1.00  0.00     0.004 C 
HETATM    7  C   UNL     1       6.746  34.635  64.173  1.00  0.00     0.020 C 
HETATM    8  C   UNL     1       5.744  34.609  63.033  1.00  0.00     0.128 C 
HETATM    9  O   UNL     1       5.538  33.149  59.712  1.00  0.00    -0.247 OA
HETATM   10  H   UNL     1       3.876  34.951  61.600  1.00  0.00     0.171 HD
ENDROOT
BRANCH   4  11
HETATM   11  C   UNL     1       7.616  31.922  61.088  1.00  0.00     0.033 A 
HETATM   12  N   UNL     1       7.298  30.803  60.354  1.00  0.00    -0.357 N 
HETATM   13  H   UNL     1       6.513  30.197  60.549  1.00  0.00     0.166 HD
HETATM   14  C   UNL     1       8.217  30.604  59.349  1.00  0.00     0.042 A 
HETATM   15  C   UNL     1       9.178  31.606  59.468  1.00  0.00    -0.007 A 
HETATM   16  C   UNL     1       8.278  29.615  58.359  1.00  0.00     0.030 A 
HETATM   17  C   UNL     1       8.797  32.420  60.568  1.00  0.00     0.041 A 
HETATM   18  C   UNL     1      10.252  31.631  58.558  1.00  0.00     0.014 A 
HETATM   19  C   UNL     1      10.326  30.654  57.559  1.00  0.00     0.001 A 
HETATM   20  C   UNL     1       9.351  29.662  57.464  1.00  0.00     0.002 A 
ENDBRANCH   4  11
BRANCH   1  21
HETATM   21  C   UNL     1       3.621  35.283  59.610  1.00  0.00     0.072 A 
HETATM   22  C   UNL     1       2.276  34.889  59.504  1.00  0.00     0.095 A 
HETATM   23  C   UNL     1       1.452  35.387  58.493  1.00  0.00     0.042 A 
HETATM   24  C   UNL     1       1.988  36.264  57.553  1.00  0.00     0.045 A 
HETATM   25  C   UNL     1       3.327  36.633  57.641  1.00  0.00     0.118 A 
HETATM   26  C   UNL     1       4.150  36.153  58.658  1.00  0.00     0.074 A 
HETATM   27  F   UNL     1       3.828  37.487  56.738  1.00  0.00    -0.206 F 
BRANCH  22  28
HETATM   28  O   UNL     1       1.750  34.015  60.427  1.00  0.00    -0.354 OA
HETATM   29  C   UNL     1       0.754  34.687  61.206  1.00  0.00     0.210 C 
ENDBRANCH  22  28
ENDBRANCH   1  21
TORSDOF 3
ENDMDL
MODEL 8
REMARK VINA RESULT:      -8.5      3.563      5.336
REMARK  3 active torsions:
REMARK  status: ('A' for Active; 'I' for Inactive)
REMARK    1  A    between atoms: O_2  and  C_3 
REMARK    2  A    between atoms: C_4  and  N_5 
REMARK       I    between atoms: N_5  and  C_6 
REMARK       I    between atoms: C_6  and  N_7 
REMARK    3  A    between atoms: C_8  and  C_9 
ROOT
HETATM    1  N   UNL     1       6.310  32.352  59.132  1.00  0.00    -0.306 N 
HETATM    2  C   UNL     1       6.191  31.317  58.226  1.00  0.00     0.323 C 
HETATM    3  N   UNL     1       5.187  31.505  57.243  1.00  0.00    -0.324 N 
HETATM    4  C   UNL     1       5.364  30.814  55.940  1.00  0.00     0.139 C 
HETATM    5  C   UNL     1       4.181  30.991  54.956  1.00  0.00     0.032 C 
HETATM    6  C   UNL     1       3.630  32.402  54.912  1.00  0.00     0.004 C 
HETATM    7  C   UNL     1       3.223  32.795  56.317  1.00  0.00     0.020 C 
HETATM    8  C   UNL     1       4.437  32.769  57.229  1.00  0.00     0.128 C 
HETATM    9  O   UNL     1       6.915  30.328  58.279  1.00  0.00    -0.247 OA
HETATM   10  H   UNL     1       6.164  33.287  58.781  1.00  0.00     0.171 HD
ENDROOT
BRANCH   4  11
HETATM   11  C   UNL     1       5.580  29.329  56.057  1.00  0.00     0.033 A 
HETATM   12  N   UNL     1       6.778  28.716  55.777  1.00  0.00    -0.357 N 
HETATM   13  H   UNL     1       7.583  29.187  55.387  1.00  0.00     0.166 HD
HETATM   14  C   UNL     1       6.715  27.371  56.064  1.00  0.00     0.042 A 
HETATM   15  C   UNL     1       5.419  27.108  56.505  1.00  0.00    -0.007 A 
HETATM   16  C   UNL     1       7.691  26.373  55.957  1.00  0.00     0.030 A 
HETATM   17  C   UNL     1       4.713  28.339  56.487  1.00  0.00     0.041 A 
HETATM   18  C   UNL     1       5.077  25.789  56.861  1.00  0.00     0.014 A 
HETATM   19  C   UNL     1       6.042  24.781  56.765  1.00  0.00     0.001 A 
HETATM   20  C   UNL     1       7.330  25.073  56.320  1.00  0.00     0.002 A 
ENDBRANCH   4  11
BRANCH   1  21
HETATM   21  C   UNL     1       7.044  32.322  60.339  1.00  0.00     0.072 A 
HETATM   22  C   UNL     1       6.318  32.269  61.542  1.00  0.00     0.095 A 
HETATM   23  C   UNL     1       6.963  32.135  62.773  1.00  0.00     0.042 A 
HETATM   24  C   UNL     1       8.355  32.090  62.807  1.00  0.00     0.045 A 
HETATM   25  C   UNL     1       9.075  32.171  61.619  1.00  0.00     0.118 A 
HETATM   26  C   UNL     1       8.437  32.287  60.386  1.00  0.00     0.074 A 
HETATM   27  F   UNL     1      10.413  32.115  61.664  1.00  0.00    -0.206 F 
BRANCH  22  28
HETATM   28  O   UNL     1       4.944  32.323  61.508  1.00  0.00    -0.354 OA
HETATM   29  C   UNL     1       4.464  32.994  62.679  1.00  0.00     0.210 C 
ENDBRANCH  22  28
ENDBRANCH   1  21
TORSDOF 3
ENDMDL
MODEL 9
REMARK VINA RESULT:      -8.3      3.142      7.377
REMARK  3 active torsions:
REMARK  status: ('A' for Active; 'I' for Inactive)
REMARK    1  A    between atoms: O_2  and  C_3 
REMARK    2  A    between atoms: C_4  and  N_5 
REMARK       I    between atoms: N_5  and  C_6 
REMARK       I    between atoms: C_6  and  N_7 
REMARK    3  A    between atoms: C_8  and  C_9 
ROOT
HETATM    1  N   UNL     1       5.440  27.616  53.844  1.00  0.00    -0.306 N 
HETATM    2  C   UNL     1       6.383  27.931  54.802  1.00  0.00     0.323 C 
HETATM    3  N   UNL     1       6.655  26.892  55.728  1.00  0.00    -0.324 N 
HETATM    4  C   UNL     1       7.994  26.879  56.371  1.00  0.00     0.139 C 
HETATM    5  C   UNL     1       8.181  25.771  57.439  1.00  0.00     0.032 C 
HETATM    6  C   UNL     1       7.604  24.431  57.033  1.00  0.00     0.004 C 
HETATM    7  C   UNL     1       6.137  24.624  56.710  1.00  0.00     0.020 C 
HETATM    8  C   UNL     1       5.990  25.594  55.551  1.00  0.00     0.128 C 
HETATM    9  O   UNL     1       6.937  29.025  54.826  1.00  0.00    -0.247 OA
HETATM   10  H   UNL     1       5.435  26.666  53.502  1.00  0.00     0.171 HD
ENDROOT
BRANCH   4  11
HETATM   11  C   UNL     1       8.360  28.170  57.053  1.00  0.00     0.033 A 
HETATM   12  N   UNL     1       7.553  28.790  57.978  1.00  0.00    -0.357 N 
HETATM   13  H   UNL     1       6.617  28.489  58.212  1.00  0.00     0.166 HD
HETATM   14  C   UNL     1       8.180  29.896  58.506  1.00  0.00     0.042 A 
HETATM   15  C   UNL     1       9.414  30.009  57.869  1.00  0.00    -0.007 A 
HETATM   16  C   UNL     1       7.749  30.803  59.482  1.00  0.00     0.030 A 
HETATM   17  C   UNL     1       9.512  28.929  56.953  1.00  0.00     0.041 A 
HETATM   18  C   UNL     1      10.265  31.075  58.220  1.00  0.00     0.014 A 
HETATM   19  C   UNL     1       9.853  31.988  59.196  1.00  0.00     0.001 A 
HETATM   20  C   UNL     1       8.613  31.850  59.817  1.00  0.00     0.002 A 
ENDBRANCH   4  11
BRANCH   1  21
HETATM   21  C   UNL     1       4.809  28.525  52.966  1.00  0.00     0.072 A 
HETATM   22  C   UNL     1       4.939  28.295  51.585  1.00  0.00     0.095 A 
HETATM   23  C   UNL     1       4.265  29.084  50.652  1.00  0.00     0.042 A 
HETATM   24  C   UNL     1       3.478  30.142  51.101  1.00  0.00     0.045 A 
HETATM   25  C   UNL     1       3.371  30.388  52.468  1.00  0.00     0.118 A 
HETATM   26  C   UNL     1       4.027  29.593  53.405  1.00  0.00     0.074 A 
HETATM   27  F   UNL     1       2.602  31.401  52.888  1.00  0.00    -0.206 F 
BRANCH  22  28
HETATM   28  O   UNL     1       5.724  27.256  51.142  1.00  0.00    -0.354 OA
HETATM   29  C   UNL     1       4.928  26.355  50.364  1.00  0.00     0.210 C 
ENDBRANCH  22  28
ENDBRANCH   1  21
TORSDOF 3
ENDMDL
MODEL 10
REMARK VINA RESULT:      -8.2      3.034      6.974
REMARK  3 active torsions:
REMARK  status: ('A' for Active; 'I' for Inactive)
REMARK    1  A    between atoms: O_2  and  C_3 
REMARK    2  A    between atoms: C_4  and  N_5 
REMARK       I    between atoms: N_5  and  C_6 
REMARK       I    between atoms: C_6  and  N_7 
REMARK    3  A    between atoms: C_8  and  C_9 
ROOT
HETATM    1  N   UNL     1       5.797  27.673  53.633  1.00  0.00    -0.306 N 
HETATM    2  C   UNL     1       6.636  27.907  54.705  1.00  0.00     0.323 C 
HETATM    3  N   UNL     1       6.815  26.798  55.569  1.00  0.00    -0.324 N 
HETATM    4  C   UNL     1       8.081  26.727  56.343  1.00  0.00     0.139 C 
HETATM    5  C   UNL     1       8.160  25.538  57.333  1.00  0.00     0.032 C 
HETATM    6  C   UNL     1       7.631  24.237  56.767  1.00  0.00     0.004 C 
HETATM    7  C   UNL     1       6.204  24.462  56.312  1.00  0.00     0.020 C 
HETATM    8  C   UNL     1       6.174  25.521  55.224  1.00  0.00     0.128 C 
HETATM    9  O   UNL     1       7.182  28.994  54.870  1.00  0.00    -0.247 OA
HETATM   10  H   UNL     1       5.830  26.754  53.219  1.00  0.00     0.171 HD
ENDROOT
BRANCH   4  11
HETATM   11  C   UNL     1       8.372  27.958  57.157  1.00  0.00     0.033 A 
HETATM   12  N   UNL     1       9.494  28.734  56.979  1.00  0.00    -0.357 N 
HETATM   13  H   UNL     1      10.256  28.501  56.358  1.00  0.00     0.166 HD
HETATM   14  C   UNL     1       9.450  29.845  57.791  1.00  0.00     0.042 A 
HETATM   15  C   UNL     1       8.280  29.757  58.543  1.00  0.00    -0.007 A 
HETATM   16  C   UNL     1      10.354  30.906  57.925  1.00  0.00     0.030 A 
HETATM   17  C   UNL     1       7.618  28.565  58.146  1.00  0.00     0.041 A 
HETATM   18  C   UNL     1       7.991  30.774  59.473  1.00  0.00     0.014 A 
HETATM   19  C   UNL     1       8.880  31.844  59.616  1.00  0.00     0.001 A 
HETATM   20  C   UNL     1      10.043  31.906  58.851  1.00  0.00     0.002 A 
ENDBRANCH   4  11
BRANCH   1  21
HETATM   21  C   UNL     1       5.256  28.652  52.770  1.00  0.00     0.072 A 
HETATM   22  C   UNL     1       4.187  29.428  53.251  1.00  0.00     0.095 A 
HETATM   23  C   UNL     1       3.661  30.482  52.503  1.00  0.00     0.042 A 
HETATM   24  C   UNL     1       4.186  30.744  51.239  1.00  0.00     0.045 A 
HETATM   25  C   UNL     1       5.226  29.958  50.750  1.00  0.00     0.118 A 
HETATM   26  C   UNL     1       5.767  28.916  51.499  1.00  0.00     0.074 A 
HETATM   27  F   UNL     1       5.730  30.227  49.538  1.00  0.00    -0.206 F 
BRANCH  22  28
HETATM   28  O   UNL     1       3.664  29.163  54.495  1.00  0.00    -0.354 OA
HETATM   29  C   UNL     1       3.833  30.308  55.338  1.00  0.00     0.210 C 
ENDBRANCH  22  28
ENDBRANCH   1  21
TORSDOF 3
ENDMDL
