MODEL 1
REMARK VINA RESULT:     -11.2      0.000      0.000
REMARK  6 active torsions:
REMARK  status: ('A' for Active; 'I' for Inactive)
REMARK    1  A    between atoms: C_4  and  C_5 
REMARK    2  A    between atoms: C_6  and  N_7 
REMARK    3  A    between atoms: C_9  and  C_10 
REMARK       I    between atoms: C_10  and  N_11 
REMARK    4  A    between atoms: N_11  and  C_12 
REMARK    5  A    between atoms: C_12  and  C_13 
REMARK    6  A    between atoms: C_13  and  N_14 
ROOT
HETATM    1  C   UNL     1       7.181  24.684  55.269  1.00  0.00     0.019 A 
HETATM    2  C   UNL     1       7.239  25.402  56.425  1.00  0.00     0.111 A 
HETATM    3  C   UNL     1       7.946  24.785  57.635  1.00  0.00     0.273 A 
HETATM    4  O   UNL     1       8.086  25.387  58.700  1.00  0.00    -0.266 OA
HETATM    5  N   UNL     1       8.434  23.518  57.514  1.00  0.00    -0.321 N 
HETATM    6  C   UNL     1       8.358  22.763  56.350  1.00  0.00     0.046 A 
HETATM    7  C   UNL     1       7.757  23.312  55.212  1.00  0.00     0.006 A 
HETATM    8  C   UNL     1       8.893  21.472  56.342  1.00  0.00     0.032 A 
HETATM    9  C   UNL     1       8.832  20.705  55.181  1.00  0.00     0.026 A 
HETATM   10  C   UNL     1       8.246  21.239  54.036  1.00  0.00     0.035 A 
HETATM   11 CL   UNL     1       8.172  20.297  52.599  1.00  0.00    -0.084 Cl
HETATM   12  C   UNL     1       7.715  22.531  54.046  1.00  0.00     0.038 A 
HETATM   13  H   UNL     1       8.875  23.140  58.342  1.00  0.00     0.169 HD
ENDROOT
BRANCH   2  14
HETATM   14  N   UNL     1       6.658  26.691  56.592  1.00  0.00    -0.375 N 
HETATM   15  C   UNL     1       7.331  27.704  57.425  1.00  0.00     0.137 C 
HETATM   16  C   UNL     1       6.885  29.109  57.009  1.00  0.00     0.096 C 
HETATM   17  C   UNL     1       5.358  29.233  57.085  1.00  0.00     0.017 C 
HETATM   18  C   UNL     1       4.683  28.118  56.291  1.00  0.00     0.021 C 
HETATM   19  C   UNL     1       5.187  26.748  56.738  1.00  0.00     0.123 C 
BRANCH  16  20
HETATM   20  C   UNL     1       7.566  30.108  57.929  1.00  0.00     0.223 C 
HETATM   21  N   UNL     1       6.755  30.651  58.898  1.00  0.00    -0.359 N 
HETATM   22  H   UNL     1       5.768  30.403  58.858  1.00  0.00     0.162 HD
HETATM   23  O   UNL     1       8.744  30.446  57.816  1.00  0.00    -0.273 OA
BRANCH  21  24
HETATM   24  C   UNL     1       7.095  31.817  59.709  1.00  0.00     0.150 C 
BRANCH  24  25
HETATM   25  C   UNL     1       7.711  31.544  61.101  1.00  0.00     0.254 C 
BRANCH  25  26
HETATM   26  N   UNL     1       7.125  32.410  62.190  1.00  0.00    -0.066 N 
HETATM   27  H   UNL     1       7.077  33.372  61.789  1.00  0.00     0.280 HD
HETATM   28  C   UNL     1       5.706  32.055  62.600  1.00  0.00     0.261 C 
HETATM   29  C   UNL     1       5.211  33.047  63.657  1.00  0.00     0.195 C 
HETATM   30  O   UNL     1       6.083  33.061  64.794  1.00  0.00    -0.388 OA
HETATM   31  C   UNL     1       7.404  33.478  64.429  1.00  0.00     0.195 C 
HETATM   32  C   UNL     1       8.022  32.512  63.411  1.00  0.00     0.261 C 
ENDBRANCH  25  26
ENDBRANCH  24  25
ENDBRANCH  21  24
ENDBRANCH  16  20
ENDBRANCH   2  14
BRANCH   1  33
HETATM   33  C   UNL     1       6.552  25.329  54.083  1.00  0.00    -0.023 A 
HETATM   34  C   UNL     1       7.249  26.305  53.359  1.00  0.00     0.012 A 
HETATM   35  C   UNL     1       6.676  26.885  52.226  1.00  0.00     0.001 A 
HETATM   36  C   UNL     1       5.405  26.494  51.809  1.00  0.00     0.000 A 
HETATM   37  C   UNL     1       4.705  25.522  52.521  1.00  0.00     0.001 A 
HETATM   38  C   UNL     1       5.277  24.936  53.653  1.00  0.00     0.012 A 
ENDBRANCH   1  33
TORSDOF 6
ENDMDL
MODEL 2
REMARK VINA RESULT:     -10.6      1.255      1.829
REMARK  6 active torsions:
REMARK  status: ('A' for Active; 'I' for Inactive)
REMARK    1  A    between atoms: C_4  and  C_5 
REMARK    2  A    between atoms: C_6  and  N_7 
REMARK    3  A    between atoms: C_9  and  C_10 
REMARK       I    between atoms: C_10  and  N_11 
REMARK    4  A    between atoms: N_11  and  C_12 
REMARK    5  A    between atoms: C_12  and  C_13 
REMARK    6  A    between atoms: C_13  and  N_14 
ROOT
HETATM    1  C   UNL     1       7.324  24.517  55.285  1.00  0.00     0.019 A 
HETATM    2  C   UNL     1       7.413  25.216  56.450  1.00  0.00     0.111 A 
HETATM    3  C   UNL     1       8.092  24.554  57.651  1.00  0.00     0.273 A 
HETATM    4  O   UNL     1       8.257  25.136  58.724  1.00  0.00    -0.266 OA
HETATM    5  N   UNL     1       8.525  23.269  57.515  1.00  0.00    -0.321 N 
HETATM    6  C   UNL     1       8.418  22.533  56.341  1.00  0.00     0.046 A 
HETATM    7  C   UNL     1       7.841  23.122  55.211  1.00  0.00     0.006 A 
HETATM    8  C   UNL     1       8.896  21.220  56.318  1.00  0.00     0.032 A 
HETATM    9  C   UNL     1       8.803  20.472  55.146  1.00  0.00     0.026 A 
HETATM   10  C   UNL     1       8.241  21.045  54.009  1.00  0.00     0.035 A 
HETATM   11 CL   UNL     1       8.128  20.125  52.559  1.00  0.00    -0.084 Cl
HETATM   12  C   UNL     1       7.766  22.358  54.035  1.00  0.00     0.038 A 
HETATM   13  H   UNL     1       8.950  22.863  58.338  1.00  0.00     0.169 HD
ENDROOT
BRANCH   2  14
HETATM   14  N   UNL     1       6.887  26.527  56.633  1.00  0.00    -0.375 N 
HETATM   15  C   UNL     1       7.675  27.546  57.351  1.00  0.00     0.137 C 
HETATM   16  C   UNL     1       7.222  28.949  56.936  1.00  0.00     0.096 C 
HETATM   17  C   UNL     1       5.716  29.121  57.174  1.00  0.00     0.017 C 
HETATM   18  C   UNL     1       4.929  28.002  56.499  1.00  0.00     0.021 C 
HETATM   19  C   UNL     1       5.443  26.633  56.936  1.00  0.00     0.123 C 
BRANCH  16  20
HETATM   20  C   UNL     1       8.026  29.957  57.740  1.00  0.00     0.223 C 
HETATM   21  N   UNL     1       7.364  30.502  58.816  1.00  0.00    -0.359 N 
HETATM   22  H   UNL     1       6.384  30.248  58.923  1.00  0.00     0.162 HD
HETATM   23  O   UNL     1       9.172  30.300  57.452  1.00  0.00    -0.273 OA
BRANCH  21  24
HETATM   24  C   UNL     1       7.814  31.674  59.562  1.00  0.00     0.150 C 
BRANCH  24  25
HETATM   25  C   UNL     1       7.165  31.913  60.945  1.00  0.00     0.254 C 
BRANCH  25  26
HETATM   26  N   UNL     1       5.667  32.088  60.876  1.00  0.00    -0.066 N 
HETATM   27  H   UNL     1       5.292  31.172  60.547  1.00  0.00     0.280 HD
HETATM   28  C   UNL     1       4.991  32.363  62.209  1.00  0.00     0.261 C 
HETATM   29  C   UNL     1       3.474  32.451  62.008  1.00  0.00     0.195 C 
HETATM   30  O   UNL     1       3.143  33.461  61.049  1.00  0.00    -0.388 OA
HETATM   31  C   UNL     1       3.708  33.164  59.766  1.00  0.00     0.195 C 
HETATM   32  C   UNL     1       5.238  33.112  59.840  1.00  0.00     0.261 C 
ENDBRANCH  25  26
ENDBRANCH  24  25
ENDBRANCH  21  24
ENDBRANCH  16  20
ENDBRANCH   2  14
BRANCH   1  33
HETATM   33  C   UNL     1       6.724  25.202  54.107  1.00  0.00    -0.023 A 
HETATM   34  C   UNL     1       5.416  24.896  53.705  1.00  0.00     0.012 A 
HETATM   35  C   UNL     1       4.837  25.563  52.624  1.00  0.00     0.001 A 
HETATM   36  C   UNL     1       5.559  26.539  51.939  1.00  0.00     0.000 A 
HETATM   37  C   UNL     1       6.859  26.852  52.333  1.00  0.00     0.001 A 
HETATM   38  C   UNL     1       7.439  26.191  53.417  1.00  0.00     0.012 A 
ENDBRANCH   1  33
TORSDOF 6
ENDMDL
MODEL 3
REMARK VINA RESULT:      -9.5      3.851     10.181
REMARK  6 active torsions:
REMARK  status: ('A' for Active; 'I' for Inactive)
REMARK    1  A    between atoms: C_4  and  C_5 
REMARK    2  A    between atoms: C_6  and  N_7 
REMARK    3  A    between atoms: C_9  and  C_10 
REMARK       I    between atoms: C_10  and  N_11 
REMARK    4  A    between atoms: N_11  and  C_12 
REMARK    5  A    between atoms: C_12  and  C_13 
REMARK    6  A    between atoms: C_13  and  N_14 
ROOT
HETATM    1  C   UNL     1       6.131  31.681  58.945  1.00  0.00     0.019 A 
HETATM    2  C   UNL     1       7.216  30.859  58.932  1.00  0.00     0.111 A 
HETATM    3  C   UNL     1       8.183  30.904  60.118  1.00  0.00     0.273 A 
HETATM    4  O   UNL     1       9.159  30.158  60.207  1.00  0.00    -0.266 OA
HETATM    5  N   UNL     1       7.942  31.811  61.107  1.00  0.00    -0.321 N 
HETATM    6  C   UNL     1       6.854  32.675  61.120  1.00  0.00     0.046 A 
HETATM    7  C   UNL     1       5.927  32.631  60.074  1.00  0.00     0.006 A 
HETATM    8  C   UNL     1       6.709  33.566  62.188  1.00  0.00     0.032 A 
HETATM    9  C   UNL     1       5.619  34.434  62.220  1.00  0.00     0.026 A 
HETATM   10  C   UNL     1       4.682  34.397  61.192  1.00  0.00     0.035 A 
HETATM   11 CL   UNL     1       3.333  35.464  61.231  1.00  0.00    -0.084 Cl
HETATM   12  C   UNL     1       4.828  33.503  60.128  1.00  0.00     0.038 A 
HETATM   13  H   UNL     1       8.616  31.822  61.861  1.00  0.00     0.169 HD
ENDROOT
BRANCH   2  14
HETATM   14  N   UNL     1       7.527  29.968  57.865  1.00  0.00    -0.375 N 
HETATM   15  C   UNL     1       6.976  28.601  57.859  1.00  0.00     0.137 C 
HETATM   16  C   UNL     1       6.940  28.054  56.428  1.00  0.00     0.096 C 
HETATM   17  C   UNL     1       8.337  28.108  55.797  1.00  0.00     0.017 C 
HETATM   18  C   UNL     1       8.925  29.513  55.899  1.00  0.00     0.021 C 
HETATM   19  C   UNL     1       8.911  30.006  57.344  1.00  0.00     0.123 C 
BRANCH  16  20
HETATM   20  C   UNL     1       6.415  26.630  56.485  1.00  0.00     0.223 C 
HETATM   21  N   UNL     1       7.381  25.652  56.435  1.00  0.00    -0.359 N 
HETATM   22  H   UNL     1       8.338  25.965  56.281  1.00  0.00     0.162 HD
HETATM   23  O   UNL     1       5.218  26.346  56.538  1.00  0.00    -0.273 OA
BRANCH  21  24
HETATM   24  C   UNL     1       7.119  24.235  56.196  1.00  0.00     0.150 C 
BRANCH  24  25
HETATM   25  C   UNL     1       7.085  23.770  54.722  1.00  0.00     0.254 C 
BRANCH  25  26
HETATM   26  N   UNL     1       7.379  22.299  54.556  1.00  0.00    -0.066 N 
HETATM   27  H   UNL     1       6.462  21.814  54.662  1.00  0.00     0.280 HD
HETATM   28  C   UNL     1       7.910  21.899  53.190  1.00  0.00     0.261 C 
HETATM   29  C   UNL     1       8.101  20.380  53.135  1.00  0.00     0.195 C 
HETATM   30  O   UNL     1       8.981  19.937  54.175  1.00  0.00    -0.388 OA
HETATM   31  C   UNL     1       8.446  20.235  55.470  1.00  0.00     0.195 C 
HETATM   32  C   UNL     1       8.270  21.747  55.656  1.00  0.00     0.261 C 
ENDBRANCH  25  26
ENDBRANCH  24  25
ENDBRANCH  21  24
ENDBRANCH  16  20
ENDBRANCH   2  14
BRANCH   1  33
HETATM   33  C   UNL     1       5.165  31.573  57.817  1.00  0.00    -0.023 A 
HETATM   34  C   UNL     1       5.379  32.295  56.634  1.00  0.00     0.012 A 
HETATM   35  C   UNL     1       4.495  32.168  55.562  1.00  0.00     0.001 A 
HETATM   36  C   UNL     1       3.393  31.320  55.662  1.00  0.00     0.000 A 
HETATM   37  C   UNL     1       3.173  30.596  56.833  1.00  0.00     0.001 A 
HETATM   38  C   UNL     1       4.058  30.717  57.907  1.00  0.00     0.012 A 
ENDBRANCH   1  33
TORSDOF 6
ENDMDL
MODEL 4
REMARK VINA RESULT:      -9.3      3.011      4.673
REMARK  6 active torsions:
REMARK  status: ('A' for Active; 'I' for Inactive)
REMARK    1  A    between atoms: C_4  and  C_5 
REMARK    2  A    between atoms: C_6  and  N_7 
REMARK    3  A    between atoms: C_9  and  C_10 
REMARK       I    between atoms: C_10  and  N_11 
REMARK    4  A    between atoms: N_11  and  C_12 
REMARK    5  A    between atoms: C_12  and  C_13 
REMARK    6  A    between atoms: C_13  and  N_14 
ROOT
HETATM    1  C   UNL     1       6.001  27.712  54.848  1.00  0.00     0.019 A 
HETATM    2  C   UNL     1       4.938  28.469  54.460  1.00  0.00     0.111 A 
HETATM    3  C   UNL     1       3.923  27.863  53.488  1.00  0.00     0.273 A 
HETATM    4  O   UNL     1       2.909  28.462  53.127  1.00  0.00    -0.266 OA
HETATM    5  N   UNL     1       4.165  26.610  53.007  1.00  0.00    -0.321 N 
HETATM    6  C   UNL     1       5.260  25.836  53.373  1.00  0.00     0.046 A 
HETATM    7  C   UNL     1       6.184  26.342  54.293  1.00  0.00     0.006 A 
HETATM    8  C   UNL     1       5.407  24.563  52.815  1.00  0.00     0.032 A 
HETATM    9  C   UNL     1       6.494  23.771  53.177  1.00  0.00     0.026 A 
HETATM   10  C   UNL     1       7.418  24.255  54.098  1.00  0.00     0.035 A 
HETATM   11 CL   UNL     1       8.761  23.278  54.550  1.00  0.00    -0.084 Cl
HETATM   12  C   UNL     1       7.267  25.526  54.657  1.00  0.00     0.038 A 
HETATM   13  H   UNL     1       3.481  26.255  52.352  1.00  0.00     0.169 HD
ENDROOT
BRANCH   2  14
HETATM   14  N   UNL     1       4.719  29.810  54.886  1.00  0.00    -0.375 N 
HETATM   15  C   UNL     1       4.057  30.078  56.176  1.00  0.00     0.137 C 
HETATM   16  C   UNL     1       4.440  31.472  56.683  1.00  0.00     0.096 C 
HETATM   17  C   UNL     1       4.097  32.539  55.636  1.00  0.00     0.017 C 
HETATM   18  C   UNL     1       4.716  32.190  54.285  1.00  0.00     0.021 C 
HETATM   19  C   UNL     1       4.315  30.784  53.847  1.00  0.00     0.123 C 
BRANCH  16  20
HETATM   20  C   UNL     1       3.694  31.717  57.984  1.00  0.00     0.223 C 
HETATM   21  N   UNL     1       3.654  33.030  58.392  1.00  0.00    -0.359 N 
HETATM   22  H   UNL     1       4.191  33.695  57.839  1.00  0.00     0.162 HD
HETATM   23  O   UNL     1       3.184  30.821  58.657  1.00  0.00    -0.273 OA
BRANCH  21  24
HETATM   24  C   UNL     1       3.248  33.475  59.723  1.00  0.00     0.150 C 
BRANCH  24  25
HETATM   25  C   UNL     1       4.197  34.454  60.452  1.00  0.00     0.254 C 
BRANCH  25  26
HETATM   26  N   UNL     1       4.740  33.901  61.747  1.00  0.00    -0.066 N 
HETATM   27  H   UNL     1       5.702  34.294  61.840  1.00  0.00     0.280 HD
HETATM   28  C   UNL     1       3.989  34.333  62.995  1.00  0.00     0.261 C 
HETATM   29  C   UNL     1       4.680  33.760  64.237  1.00  0.00     0.195 C 
HETATM   30  O   UNL     1       4.767  32.332  64.161  1.00  0.00    -0.388 OA
HETATM   31  C   UNL     1       5.547  31.919  63.032  1.00  0.00     0.195 C 
HETATM   32  C   UNL     1       4.907  32.392  61.722  1.00  0.00     0.261 C 
ENDBRANCH  25  26
ENDBRANCH  24  25
ENDBRANCH  21  24
ENDBRANCH  16  20
ENDBRANCH   2  14
BRANCH   1  33
HETATM   33  C   UNL     1       6.939  28.293  55.848  1.00  0.00    -0.023 A 
HETATM   34  C   UNL     1       6.690  28.139  57.219  1.00  0.00     0.012 A 
HETATM   35  C   UNL     1       7.586  28.651  58.159  1.00  0.00     0.001 A 
HETATM   36  C   UNL     1       8.734  29.318  57.738  1.00  0.00     0.000 A 
HETATM   37  C   UNL     1       8.992  29.473  56.376  1.00  0.00     0.001 A 
HETATM   38  C   UNL     1       8.101  28.958  55.433  1.00  0.00     0.012 A 
ENDBRANCH   1  33
TORSDOF 6
ENDMDL
MODEL 5
REMARK VINA RESULT:      -9.3      2.910      4.677
REMARK  6 active torsions:
REMARK  status: ('A' for Active; 'I' for Inactive)
REMARK    1  A    between atoms: C_4  and  C_5 
REMARK    2  A    between atoms: C_6  and  N_7 
REMARK    3  A    between atoms: C_9  and  C_10 
REMARK       I    between atoms: C_10  and  N_11 
REMARK    4  A    between atoms: N_11  and  C_12 
REMARK    5  A    between atoms: C_12  and  C_13 
REMARK    6  A    between atoms: C_13  and  N_14 
ROOT
HETATM    1  C   UNL     1       6.084  27.728  54.782  1.00  0.00     0.019 A 
HETATM    2  C   UNL     1       5.010  28.519  54.505  1.00  0.00     0.111 A 
HETATM    3  C   UNL     1       3.928  27.980  53.566  1.00  0.00     0.273 A 
HETATM    4  O   UNL     1       2.903  28.611  53.304  1.00  0.00    -0.266 OA
HETATM    5  N   UNL     1       4.120  26.754  53.004  1.00  0.00    -0.321 N 
HETATM    6  C   UNL     1       5.223  25.947  53.256  1.00  0.00     0.046 A 
HETATM    7  C   UNL     1       6.210  26.389  54.142  1.00  0.00     0.006 A 
HETATM    8  C   UNL     1       5.315  24.706  52.620  1.00  0.00     0.032 A 
HETATM    9  C   UNL     1       6.410  23.881  52.869  1.00  0.00     0.026 A 
HETATM   10  C   UNL     1       7.398  24.302  53.755  1.00  0.00     0.035 A 
HETATM   11 CL   UNL     1       8.750  23.285  54.067  1.00  0.00    -0.084 Cl
HETATM   12  C   UNL     1       7.302  25.541  54.391  1.00  0.00     0.038 A 
HETATM   13  H   UNL     1       3.391  26.444  52.374  1.00  0.00     0.169 HD
ENDROOT
BRANCH   2  14
HETATM   14  N   UNL     1       4.839  29.837  55.017  1.00  0.00    -0.375 N 
HETATM   15  C   UNL     1       4.312  30.039  56.379  1.00  0.00     0.137 C 
HETATM   16  C   UNL     1       4.748  31.406  56.914  1.00  0.00     0.096 C 
HETATM   17  C   UNL     1       4.304  32.523  55.961  1.00  0.00     0.017 C 
HETATM   18  C   UNL     1       4.783  32.244  54.539  1.00  0.00     0.021 C 
HETATM   19  C   UNL     1       4.336  30.861  54.074  1.00  0.00     0.123 C 
BRANCH  16  20
HETATM   20  C   UNL     1       4.137  31.584  58.294  1.00  0.00     0.223 C 
HETATM   21  N   UNL     1       4.821  32.440  59.126  1.00  0.00    -0.359 N 
HETATM   22  H   UNL     1       5.706  32.805  58.776  1.00  0.00     0.162 HD
HETATM   23  O   UNL     1       3.127  30.993  58.674  1.00  0.00    -0.273 OA
BRANCH  21  24
HETATM   24  C   UNL     1       4.597  32.558  60.564  1.00  0.00     0.150 C 
BRANCH  24  25
HETATM   25  C   UNL     1       5.806  32.993  61.426  1.00  0.00     0.254 C 
BRANCH  25  26
HETATM   26  N   UNL     1       6.998  32.079  61.282  1.00  0.00    -0.066 N 
HETATM   27  H   UNL     1       6.655  31.252  60.747  1.00  0.00     0.280 HD
HETATM   28  C   UNL     1       8.152  32.651  60.475  1.00  0.00     0.261 C 
HETATM   29  C   UNL     1       9.262  31.602  60.349  1.00  0.00     0.195 C 
HETATM   30  O   UNL     1       9.706  31.170  61.641  1.00  0.00    -0.388 OA
HETATM   31  C   UNL     1       8.642  30.552  62.375  1.00  0.00     0.195 C 
HETATM   32  C   UNL     1       7.494  31.540  62.612  1.00  0.00     0.261 C 
ENDBRANCH  25  26
ENDBRANCH  24  25
ENDBRANCH  21  24
ENDBRANCH  16  20
ENDBRANCH   2  14
BRANCH   1  33
HETATM   33  C   UNL     1       7.091  28.241  55.752  1.00  0.00    -0.023 A 
HETATM   34  C   UNL     1       6.929  28.008  57.125  1.00  0.00     0.012 A 
HETATM   35  C   UNL     1       7.890  28.456  58.033  1.00  0.00     0.001 A 
HETATM   36  C   UNL     1       9.017  29.137  57.578  1.00  0.00     0.000 A 
HETATM   37  C   UNL     1       9.188  29.371  56.214  1.00  0.00     0.001 A 
HETATM   38  C   UNL     1       8.232  28.920  55.302  1.00  0.00     0.012 A 
ENDBRANCH   1  33
TORSDOF 6
ENDMDL
MODEL 6
REMARK VINA RESULT:      -9.1      5.914      9.459
REMARK  6 active torsions:
REMARK  status: ('A' for Active; 'I' for Inactive)
REMARK    1  A    between atoms: C_4  and  C_5 
REMARK    2  A    between atoms: C_6  and  N_7 
REMARK    3  A    between atoms: C_9  and  C_10 
REMARK       I    between atoms: C_10  and  N_11 
REMARK    4  A    between atoms: N_11  and  C_12 
REMARK    5  A    between atoms: C_12  and  C_13 
REMARK    6  A    between atoms: C_13  and  N_14 
ROOT
HETATM    1  C   UNL     1       5.759  32.412  59.865  1.00  0.00     0.019 A 
HETATM    2  C   UNL     1       4.923  33.366  60.361  1.00  0.00     0.111 A 
HETATM    3  C   UNL     1       3.575  33.588  59.670  1.00  0.00     0.273 A 
HETATM    4  O   UNL     1       2.742  34.395  60.085  1.00  0.00    -0.266 OA
HETATM    5  N   UNL     1       3.300  32.859  58.552  1.00  0.00    -0.321 N 
HETATM    6  C   UNL     1       4.154  31.901  58.019  1.00  0.00     0.046 A 
HETATM    7  C   UNL     1       5.375  31.641  58.650  1.00  0.00     0.006 A 
HETATM    8  C   UNL     1       3.767  31.213  56.866  1.00  0.00     0.032 A 
HETATM    9  C   UNL     1       4.608  30.244  56.324  1.00  0.00     0.026 A 
HETATM   10  C   UNL     1       5.823  29.966  56.944  1.00  0.00     0.035 A 
HETATM   11 CL   UNL     1       6.864  28.768  56.279  1.00  0.00    -0.084 Cl
HETATM   12  C   UNL     1       6.206  30.653  58.098  1.00  0.00     0.038 A 
HETATM   13  H   UNL     1       2.408  33.050  58.115  1.00  0.00     0.169 HD
ENDROOT
BRANCH   2  14
HETATM   14  N   UNL     1       5.234  34.196  61.475  1.00  0.00    -0.375 N 
HETATM   15  C   UNL     1       4.821  33.797  62.833  1.00  0.00     0.137 C 
HETATM   16  C   UNL     1       5.718  34.472  63.876  1.00  0.00     0.096 C 
HETATM   17  C   UNL     1       5.694  35.996  63.699  1.00  0.00     0.017 C 
HETATM   18  C   UNL     1       6.034  36.380  62.261  1.00  0.00     0.021 C 
HETATM   19  C   UNL     1       5.122  35.658  61.273  1.00  0.00     0.123 C 
BRANCH  16  20
HETATM   20  C   UNL     1       5.218  34.069  65.253  1.00  0.00     0.223 C 
HETATM   21  N   UNL     1       5.709  34.825  66.292  1.00  0.00    -0.359 N 
HETATM   22  H   UNL     1       6.416  35.518  66.057  1.00  0.00     0.162 HD
HETATM   23  O   UNL     1       4.458  33.122  65.452  1.00  0.00    -0.273 OA
BRANCH  21  24
HETATM   24  C   UNL     1       5.601  34.466  67.704  1.00  0.00     0.150 C 
BRANCH  24  25
HETATM   25  C   UNL     1       6.165  35.480  68.727  1.00  0.00     0.254 C 
BRANCH  25  26
HETATM   26  N   UNL     1       6.728  34.824  69.964  1.00  0.00    -0.066 N 
HETATM   27  H   UNL     1       6.329  35.352  70.770  1.00  0.00     0.280 HD
HETATM   28  C   UNL     1       6.317  33.375  70.167  1.00  0.00     0.261 C 
HETATM   29  C   UNL     1       6.899  32.854  71.486  1.00  0.00     0.195 C 
HETATM   30  O   UNL     1       8.325  32.988  71.504  1.00  0.00    -0.388 OA
HETATM   31  C   UNL     1       8.719  34.361  71.398  1.00  0.00     0.195 C 
HETATM   32  C   UNL     1       8.236  34.969  70.076  1.00  0.00     0.261 C 
ENDBRANCH  25  26
ENDBRANCH  24  25
ENDBRANCH  21  24
ENDBRANCH  16  20
ENDBRANCH   2  14
BRANCH   1  33
HETATM   33  C   UNL     1       7.035  32.162  60.592  1.00  0.00    -0.023 A 
HETATM   34  C   UNL     1       7.022  31.508  61.832  1.00  0.00     0.012 A 
HETATM   35  C   UNL     1       8.219  31.240  62.498  1.00  0.00     0.001 A 
HETATM   36  C   UNL     1       9.434  31.622  61.932  1.00  0.00     0.000 A 
HETATM   37  C   UNL     1       9.456  32.270  60.698  1.00  0.00     0.001 A 
HETATM   38  C   UNL     1       8.261  32.536  60.026  1.00  0.00     0.012 A 
ENDBRANCH   1  33
TORSDOF 6
ENDMDL
MODEL 7
REMARK VINA RESULT:      -9.0      3.936      7.434
REMARK  6 active torsions:
REMARK  status: ('A' for Active; 'I' for Inactive)
REMARK    1  A    between atoms: C_4  and  C_5 
REMARK    2  A    between atoms: C_6  and  N_7 
REMARK    3  A    between atoms: C_9  and  C_10 
REMARK       I    between atoms: C_10  and  N_11 
REMARK    4  A    between atoms: N_11  and  C_12 
REMARK    5  A    between atoms: C_12  and  C_13 
REMARK    6  A    between atoms: C_13  and  N_14 
ROOT
HETATM    1  C   UNL     1       6.945  24.577  54.944  1.00  0.00     0.019 A 
HETATM    2  C   UNL     1       6.864  25.469  55.970  1.00  0.00     0.111 A 
HETATM    3  C   UNL     1       7.528  25.114  57.303  1.00  0.00     0.273 A 
HETATM    4  O   UNL     1       7.544  25.886  58.263  1.00  0.00    -0.266 OA
HETATM    5  N   UNL     1       8.118  23.891  57.419  1.00  0.00    -0.321 N 
HETATM    6  C   UNL     1       8.185  22.959  56.390  1.00  0.00     0.046 A 
HETATM    7  C   UNL     1       7.627  23.268  55.145  1.00  0.00     0.006 A 
HETATM    8  C   UNL     1       8.816  21.734  56.624  1.00  0.00     0.032 A 
HETATM    9  C   UNL     1       8.898  20.792  55.601  1.00  0.00     0.026 A 
HETATM   10  C   UNL     1       8.357  21.087  54.353  1.00  0.00     0.035 A 
HETATM   11 CL   UNL     1       8.460  19.928  53.085  1.00  0.00    -0.084 Cl
HETATM   12  C   UNL     1       7.730  22.313  54.121  1.00  0.00     0.038 A 
HETATM   13  H   UNL     1       8.527  23.688  58.322  1.00  0.00     0.169 HD
ENDROOT
BRANCH   2  14
HETATM   14  N   UNL     1       6.176  26.713  55.890  1.00  0.00    -0.375 N 
HETATM   15  C   UNL     1       6.021  27.390  54.590  1.00  0.00     0.137 C 
HETATM   16  C   UNL     1       4.815  28.334  54.629  1.00  0.00     0.096 C 
HETATM   17  C   UNL     1       4.955  29.338  55.780  1.00  0.00     0.017 C 
HETATM   18  C   UNL     1       5.209  28.617  57.101  1.00  0.00     0.021 C 
HETATM   19  C   UNL     1       6.406  27.677  56.988  1.00  0.00     0.123 C 
BRANCH  16  20
HETATM   20  C   UNL     1       4.731  29.042  53.287  1.00  0.00     0.223 C 
HETATM   21  N   UNL     1       3.516  29.624  53.012  1.00  0.00    -0.359 N 
HETATM   22  H   UNL     1       2.769  29.458  53.684  1.00  0.00     0.162 HD
HETATM   23  O   UNL     1       5.657  29.077  52.476  1.00  0.00    -0.273 OA
BRANCH  21  24
HETATM   24  C   UNL     1       3.105  30.111  51.698  1.00  0.00     0.150 C 
BRANCH  24  25
HETATM   25  C   UNL     1       2.181  29.189  50.868  1.00  0.00     0.254 C 
BRANCH  25  26
HETATM   26  N   UNL     1       2.933  28.323  49.887  1.00  0.00    -0.066 N 
HETATM   27  H   UNL     1       3.305  27.523  50.444  1.00  0.00     0.280 HD
HETATM   28  C   UNL     1       2.082  27.709  48.789  1.00  0.00     0.261 C 
HETATM   29  C   UNL     1       2.950  26.805  47.908  1.00  0.00     0.195 C 
HETATM   30  O   UNL     1       4.051  27.535  47.353  1.00  0.00    -0.388 OA
HETATM   31  C   UNL     1       4.906  28.046  48.383  1.00  0.00     0.195 C 
HETATM   32  C   UNL     1       4.147  29.017  49.294  1.00  0.00     0.261 C 
ENDBRANCH  25  26
ENDBRANCH  24  25
ENDBRANCH  21  24
ENDBRANCH  16  20
ENDBRANCH   2  14
BRANCH   1  33
HETATM   33  C   UNL     1       6.355  24.970  53.634  1.00  0.00    -0.023 A 
HETATM   34  C   UNL     1       7.170  25.503  52.627  1.00  0.00     0.012 A 
HETATM   35  C   UNL     1       6.627  25.838  51.385  1.00  0.00     0.001 A 
HETATM   36  C   UNL     1       5.268  25.644  51.143  1.00  0.00     0.000 A 
HETATM   37  C   UNL     1       4.450  25.111  52.138  1.00  0.00     0.001 A 
HETATM   38  C   UNL     1       4.991  24.770  53.379  1.00  0.00     0.012 A 
ENDBRANCH   1  33
TORSDOF 6
ENDMDL
MODEL 8
REMARK VINA RESULT:      -8.2      5.428      7.381
REMARK  6 active torsions:
REMARK  status: ('A' for Active; 'I' for Inactive)
REMARK    1  A    between atoms: C_4  and  C_5 
REMARK    2  A    between atoms: C_6  and  N_7 
REMARK    3  A    between atoms: C_9  and  C_10 
REMARK       I    between atoms: C_10  and  N_11 
REMARK    4  A    between atoms: N_11  and  C_12 
REMARK    5  A    between atoms: C_12  and  C_13 
REMARK    6  A    between atoms: C_13  and  N_14 
ROOT
HETATM    1  C   UNL     1       6.210  26.856  54.067  1.00  0.00     0.019 A 
HETATM    2  C   UNL     1       5.562  27.328  52.966  1.00  0.00     0.111 A 
HETATM    3  C   UNL     1       5.360  26.387  51.776  1.00  0.00     0.273 A 
HETATM    4  O   UNL     1       4.741  26.720  50.764  1.00  0.00    -0.266 OA
HETATM    5  N   UNL     1       5.893  25.134  51.852  1.00  0.00    -0.321 N 
HETATM    6  C   UNL     1       6.580  24.647  52.957  1.00  0.00     0.046 A 
HETATM    7  C   UNL     1       6.745  25.466  54.079  1.00  0.00     0.006 A 
HETATM    8  C   UNL     1       7.085  23.345  52.922  1.00  0.00     0.032 A 
HETATM    9  C   UNL     1       7.769  22.839  54.025  1.00  0.00     0.026 A 
HETATM   10  C   UNL     1       7.934  23.636  55.155  1.00  0.00     0.035 A 
HETATM   11 CL   UNL     1       8.776  23.013  56.520  1.00  0.00    -0.084 Cl
HETATM   12  C   UNL     1       7.426  24.936  55.188  1.00  0.00     0.038 A 
HETATM   13  H   UNL     1       5.754  24.552  51.037  1.00  0.00     0.169 HD
ENDROOT
BRANCH   2  14
HETATM   14  N   UNL     1       5.076  28.660  52.840  1.00  0.00    -0.375 N 
HETATM   15  C   UNL     1       4.044  29.163  53.765  1.00  0.00     0.137 C 
HETATM   16  C   UNL     1       4.101  30.692  53.836  1.00  0.00     0.096 C 
HETATM   17  C   UNL     1       3.955  31.301  52.435  1.00  0.00     0.017 C 
HETATM   18  C   UNL     1       4.973  30.696  51.472  1.00  0.00     0.021 C 
HETATM   19  C   UNL     1       4.880  29.173  51.465  1.00  0.00     0.123 C 
BRANCH  16  20
HETATM   20  C   UNL     1       2.988  31.159  54.759  1.00  0.00     0.223 C 
HETATM   21  N   UNL     1       2.084  32.024  54.187  1.00  0.00    -0.359 N 
HETATM   22  H   UNL     1       2.288  32.334  53.239  1.00  0.00     0.162 HD
HETATM   23  O   UNL     1       2.900  30.829  55.941  1.00  0.00    -0.273 OA
BRANCH  21  24
HETATM   24  C   UNL     1       1.107  32.816  54.930  1.00  0.00     0.150 C 
BRANCH  24  25
HETATM   25  C   UNL     1      -0.033  33.465  54.111  1.00  0.00     0.254 C 
BRANCH  25  26
HETATM   26  N   UNL     1      -1.370  32.795  54.319  1.00  0.00    -0.066 N 
HETATM   27  H   UNL     1      -1.160  31.782  54.449  1.00  0.00     0.280 HD
HETATM   28  C   UNL     1      -2.119  33.231  55.567  1.00  0.00     0.261 C 
HETATM   29  C   UNL     1      -3.419  32.431  55.694  1.00  0.00     0.195 C 
HETATM   30  O   UNL     1      -4.234  32.590  54.526  1.00  0.00    -0.388 OA
HETATM   31  C   UNL     1      -3.566  32.102  53.356  1.00  0.00     0.195 C 
HETATM   32  C   UNL     1      -2.271  32.882  53.100  1.00  0.00     0.261 C 
ENDBRANCH  25  26
ENDBRANCH  24  25
ENDBRANCH  21  24
ENDBRANCH  16  20
ENDBRANCH   2  14
BRANCH   1  33
HETATM   33  C   UNL     1       6.335  27.763  55.242  1.00  0.00    -0.023 A 
HETATM   34  C   UNL     1       7.390  28.682  55.312  1.00  0.00     0.012 A 
HETATM   35  C   UNL     1       7.490  29.559  56.394  1.00  0.00     0.001 A 
HETATM   36  C   UNL     1       6.537  29.523  57.411  1.00  0.00     0.000 A 
HETATM   37  C   UNL     1       5.482  28.614  57.348  1.00  0.00     0.001 A 
HETATM   38  C   UNL     1       5.377  27.739  56.265  1.00  0.00     0.012 A 
ENDBRANCH   1  33
TORSDOF 6
ENDMDL
MODEL 9
REMARK VINA RESULT:      -8.2      8.090     11.825
REMARK  6 active torsions:
REMARK  status: ('A' for Active; 'I' for Inactive)
REMARK    1  A    between atoms: C_4  and  C_5 
REMARK    2  A    between atoms: C_6  and  N_7 
REMARK    3  A    between atoms: C_9  and  C_10 
REMARK       I    between atoms: C_10  and  N_11 
REMARK    4  A    between atoms: N_11  and  C_12 
REMARK    5  A    between atoms: C_12  and  C_13 
REMARK    6  A    between atoms: C_13  and  N_14 
ROOT
HETATM    1  C   UNL     1       4.894  33.537  62.910  1.00  0.00     0.019 A 
HETATM    2  C   UNL     1       3.883  33.676  62.008  1.00  0.00     0.111 A 
HETATM    3  C   UNL     1       2.600  34.385  62.450  1.00  0.00     0.273 A 
HETATM    4  O   UNL     1       1.660  34.595  61.682  1.00  0.00    -0.266 OA
HETATM    5  N   UNL     1       2.508  34.793  63.747  1.00  0.00    -0.321 N 
HETATM    6  C   UNL     1       3.520  34.635  64.686  1.00  0.00     0.046 A 
HETATM    7  C   UNL     1       4.723  34.030  64.305  1.00  0.00     0.006 A 
HETATM    8  C   UNL     1       3.314  35.092  65.990  1.00  0.00     0.032 A 
HETATM    9  C   UNL     1       4.322  34.948  66.941  1.00  0.00     0.026 A 
HETATM   10  C   UNL     1       5.528  34.357  66.577  1.00  0.00     0.035 A 
HETATM   11 CL   UNL     1       6.777  34.180  67.748  1.00  0.00    -0.084 Cl
HETATM   12  C   UNL     1       5.733  33.904  65.272  1.00  0.00     0.038 A 
HETATM   13  H   UNL     1       1.637  35.239  64.003  1.00  0.00     0.169 HD
ENDROOT
BRANCH   2  14
HETATM   14  N   UNL     1       3.932  33.177  60.675  1.00  0.00    -0.375 N 
HETATM   15  C   UNL     1       3.916  34.111  59.535  1.00  0.00     0.137 C 
HETATM   16  C   UNL     1       4.543  33.449  58.304  1.00  0.00     0.096 C 
HETATM   17  C   UNL     1       3.822  32.136  57.973  1.00  0.00     0.017 C 
HETATM   18  C   UNL     1       3.769  31.224  59.196  1.00  0.00     0.021 C 
HETATM   19  C   UNL     1       3.156  31.949  60.391  1.00  0.00     0.123 C 
BRANCH  16  20
HETATM   20  C   UNL     1       4.455  34.433  57.149  1.00  0.00     0.223 C 
HETATM   21  N   UNL     1       3.206  34.966  56.935  1.00  0.00    -0.359 N 
HETATM   22  H   UNL     1       2.448  34.596  57.506  1.00  0.00     0.162 HD
HETATM   23  O   UNL     1       5.408  34.720  56.424  1.00  0.00    -0.273 OA
BRANCH  21  24
HETATM   24  C   UNL     1       2.810  35.704  55.738  1.00  0.00     0.150 C 
BRANCH  24  25
HETATM   25  C   UNL     1       2.342  34.867  54.524  1.00  0.00     0.254 C 
BRANCH  25  26
HETATM   26  N   UNL     1       0.840  34.775  54.411  1.00  0.00    -0.066 N 
HETATM   27  H   UNL     1       0.638  34.719  53.389  1.00  0.00     0.280 HD
HETATM   28  C   UNL     1       0.225  33.531  55.029  1.00  0.00     0.261 C 
HETATM   29  C   UNL     1      -1.289  33.529  54.786  1.00  0.00     0.195 C 
HETATM   30  O   UNL     1      -1.893  34.715  55.315  1.00  0.00    -0.388 OA
HETATM   31  C   UNL     1      -1.378  35.890  54.675  1.00  0.00     0.195 C 
HETATM   32  C   UNL     1       0.132  36.023  54.909  1.00  0.00     0.261 C 
ENDBRANCH  25  26
ENDBRANCH  24  25
ENDBRANCH  21  24
ENDBRANCH  16  20
ENDBRANCH   2  14
BRANCH   1  33
HETATM   33  C   UNL     1       6.160  32.907  62.442  1.00  0.00    -0.023 A 
HETATM   34  C   UNL     1       6.478  31.597  62.826  1.00  0.00     0.012 A 
HETATM   35  C   UNL     1       7.647  30.992  62.360  1.00  0.00     0.001 A 
HETATM   36  C   UNL     1       8.502  31.688  61.509  1.00  0.00     0.000 A 
HETATM   37  C   UNL     1       8.192  32.991  61.119  1.00  0.00     0.001 A 
HETATM   38  C   UNL     1       7.022  33.598  61.580  1.00  0.00     0.012 A 
ENDBRANCH   1  33
TORSDOF 6
ENDMDL
MODEL 10
REMARK VINA RESULT:      -8.2      5.625      8.564
REMARK  6 active torsions:
REMARK  status: ('A' for Active; 'I' for Inactive)
REMARK    1  A    between atoms: C_4  and  C_5 
REMARK    2  A    between atoms: C_6  and  N_7 
REMARK    3  A    between atoms: C_9  and  C_10 
REMARK       I    between atoms: C_10  and  N_11 
REMARK    4  A    between atoms: N_11  and  C_12 
REMARK    5  A    between atoms: C_12  and  C_13 
REMARK    6  A    between atoms: C_13  and  N_14 
ROOT
HETATM    1  C   UNL     1       5.977  26.560  53.995  1.00  0.00     0.019 A 
HETATM    2  C   UNL     1       5.409  26.704  52.766  1.00  0.00     0.111 A 
HETATM    3  C   UNL     1       5.473  25.527  51.789  1.00  0.00     0.273 A 
HETATM    4  O   UNL     1       4.942  25.558  50.678  1.00  0.00    -0.266 OA
HETATM    5  N   UNL     1       6.150  24.409  52.175  1.00  0.00    -0.321 N 
HETATM    6  C   UNL     1       6.758  24.258  53.416  1.00  0.00     0.046 A 
HETATM    7  C   UNL     1       6.682  25.297  54.350  1.00  0.00     0.006 A 
HETATM    8  C   UNL     1       7.427  23.065  53.703  1.00  0.00     0.032 A 
HETATM    9  C   UNL     1       8.034  22.895  54.945  1.00  0.00     0.026 A 
HETATM   10  C   UNL     1       7.960  23.914  55.890  1.00  0.00     0.035 A 
HETATM   11 CL   UNL     1       8.706  23.706  57.427  1.00  0.00    -0.084 Cl
HETATM   12  C   UNL     1       7.289  25.104  55.601  1.00  0.00     0.038 A 
HETATM   13  H   UNL     1       6.186  23.663  51.493  1.00  0.00     0.169 HD
ENDROOT
BRANCH   2  14
HETATM   14  N   UNL     1       4.775  27.897  52.317  1.00  0.00    -0.375 N 
HETATM   15  C   UNL     1       5.588  29.057  51.907  1.00  0.00     0.137 C 
HETATM   16  C   UNL     1       4.786  29.950  50.954  1.00  0.00     0.096 C 
HETATM   17  C   UNL     1       3.466  30.381  51.605  1.00  0.00     0.017 C 
HETATM   18  C   UNL     1       2.686  29.169  52.106  1.00  0.00     0.021 C 
HETATM   19  C   UNL     1       3.546  28.310  53.029  1.00  0.00     0.123 C 
BRANCH  16  20
HETATM   20  C   UNL     1       5.647  31.152  50.605  1.00  0.00     0.223 C 
HETATM   21  N   UNL     1       5.333  32.308  51.281  1.00  0.00    -0.359 N 
HETATM   22  H   UNL     1       4.511  32.275  51.882  1.00  0.00     0.162 HD
HETATM   23  O   UNL     1       6.542  31.127  49.760  1.00  0.00    -0.273 OA
BRANCH  21  24
HETATM   24  C   UNL     1       5.820  33.638  50.925  1.00  0.00     0.150 C 
BRANCH  24  25
HETATM   25  C   UNL     1       5.474  34.153  49.509  1.00  0.00     0.254 C 
BRANCH  25  26
HETATM   26  N   UNL     1       6.651  34.130  48.565  1.00  0.00    -0.066 N 
HETATM   27  H   UNL     1       7.206  33.287  48.826  1.00  0.00     0.280 HD
HETATM   28  C   UNL     1       6.295  33.961  47.098  1.00  0.00     0.261 C 
HETATM   29  C   UNL     1       7.577  33.887  46.261  1.00  0.00     0.195 C 
HETATM   30  O   UNL     1       8.385  35.053  46.460  1.00  0.00    -0.388 OA
HETATM   31  C   UNL     1       8.796  35.173  47.827  1.00  0.00     0.195 C 
HETATM   32  C   UNL     1       7.582  35.316  48.753  1.00  0.00     0.261 C 
ENDBRANCH  25  26
ENDBRANCH  24  25
ENDBRANCH  21  24
ENDBRANCH  16  20
ENDBRANCH   2  14
BRANCH   1  33
HETATM   33  C   UNL     1       5.844  27.689  54.958  1.00  0.00    -0.023 A 
HETATM   34  C   UNL     1       6.848  28.664  55.043  1.00  0.00     0.012 A 
HETATM   35  C   UNL     1       6.709  29.742  55.918  1.00  0.00     0.001 A 
HETATM   36  C   UNL     1       5.568  29.855  56.712  1.00  0.00     0.000 A 
HETATM   37  C   UNL     1       4.563  28.892  56.631  1.00  0.00     0.001 A 
HETATM   38  C   UNL     1       4.697  27.814  55.754  1.00  0.00     0.012 A 
ENDBRANCH   1  33
TORSDOF 6
ENDMDL
