MODEL 1
REMARK VINA RESULT:      -9.2      0.000      0.000
REMARK  7 active torsions:
REMARK  status: ('A' for Active; 'I' for Inactive)
REMARK    1  A    between atoms: C_2  and  C_3 
REMARK    2  A    between atoms: C_3  and  C_4 
REMARK    3  A    between atoms: C_8  and  C_9 
REMARK       I    between atoms: C_9  and  N_10 
REMARK    4  A    between atoms: N_10  and  C_11 
REMARK    5  A    between atoms: C_11  and  C_12 
REMARK    6  A    between atoms: C_12  and  N_13 
REMARK    7  A    between atoms: C_16  and  C_17 
ROOT
HETATM    1  C   UNL     1       8.420  29.102  55.964  1.00  0.00     0.150 C 
ENDROOT
BRANCH   1   2
HETATM    2  N   UNL     1       8.576  29.421  57.375  1.00  0.00    -0.354 N 
HETATM    3  C   UNL     1       9.552  30.317  57.789  1.00  0.00     0.272 C 
HETATM    4  O   UNL     1      10.579  30.506  57.145  1.00  0.00    -0.266 OA
HETATM    5  H   UNL     1       7.734  29.507  57.949  1.00  0.00     0.162 HD
BRANCH   3   6
HETATM    6  C   UNL     1       9.221  31.001  59.043  1.00  0.00     0.146 A 
HETATM    7  N   UNL     1       9.391  32.333  59.173  1.00  0.00    -0.169 NA
HETATM    8  N   UNL     1       9.030  32.584  60.447  1.00  0.00    -0.282 N 
HETATM    9  C   UNL     1       8.664  31.465  61.143  1.00  0.00     0.030 A 
HETATM   10  H   UNL     1       9.077  33.540  60.786  1.00  0.00     0.189 HD
HETATM   11  C   UNL     1       8.752  30.423  60.247  1.00  0.00     0.065 A 
BRANCH   9  12
HETATM   12  C   UNL     1       8.292  31.507  62.586  1.00  0.00     0.058 C 
BRANCH  12  13
HETATM   13  C   UNL     1       7.447  32.742  62.903  1.00  0.00     0.002 C 
HETATM   14  C   UNL     1       7.607  33.173  64.352  1.00  0.00     0.005 C 
ENDBRANCH  12  13
ENDBRANCH   9  12
ENDBRANCH   3   6
ENDBRANCH   1   2
BRANCH   1  15
HETATM   15  C   UNL     1       7.837  27.703  55.692  1.00  0.00     0.254 C 
BRANCH  15  16
HETATM   16  N   UNL     1       7.004  27.248  56.878  1.00  0.00    -0.069 N 
HETATM   17  H   UNL     1       7.186  27.953  57.609  1.00  0.00     0.280 HD
HETATM   18  C   UNL     1       7.422  25.894  57.420  1.00  0.00     0.244 C 
HETATM   19  C   UNL     1       6.362  24.913  56.903  1.00  0.00     0.046 C 
HETATM   20  C   UNL     1       5.102  25.775  57.032  1.00  0.00     0.039 C 
HETATM   21  C   UNL     1       5.520  27.175  56.609  1.00  0.00     0.235 C 
BRANCH  19  22
HETATM   22  C   UNL     1       6.721  24.352  55.530  1.00  0.00    -0.046 A 
HETATM   23  C   UNL     1       7.713  23.346  55.397  1.00  0.00    -0.055 A 
HETATM   24  C   UNL     1       8.426  22.715  56.568  1.00  0.00     0.049 C 
HETATM   25  C   UNL     1       8.095  22.909  54.115  1.00  0.00     0.007 A 
HETATM   26  C   UNL     1       7.480  23.405  52.972  1.00  0.00     0.001 A 
HETATM   27  C   UNL     1       6.462  24.340  53.093  1.00  0.00     0.001 A 
HETATM   28  C   UNL     1       6.084  24.802  54.357  1.00  0.00     0.008 A 
ENDBRANCH  19  22
ENDBRANCH  15  16
ENDBRANCH   1  15
TORSDOF 7
ENDMDL
MODEL 2
REMARK VINA RESULT:      -9.1      1.563      3.105
REMARK  7 active torsions:
REMARK  status: ('A' for Active; 'I' for Inactive)
REMARK    1  A    between atoms: C_2  and  C_3 
REMARK    2  A    between atoms: C_3  and  C_4 
REMARK    3  A    between atoms: C_8  and  C_9 
REMARK       I    between atoms: C_9  and  N_10 
REMARK    4  A    between atoms: N_10  and  C_11 
REMARK    5  A    between atoms: C_11  and  C_12 
REMARK    6  A    between atoms: C_12  and  N_13 
REMARK    7  A    between atoms: C_16  and  C_17 
ROOT
HETATM    1  C   UNL     1       7.672  27.661  55.022  1.00  0.00     0.150 C 
ENDROOT
BRANCH   1   2
HETATM    2  N   UNL     1       8.202  28.037  56.323  1.00  0.00    -0.354 N 
HETATM    3  C   UNL     1       8.965  29.187  56.466  1.00  0.00     0.272 C 
HETATM    4  O   UNL     1       9.614  29.658  55.537  1.00  0.00    -0.266 OA
HETATM    5  H   UNL     1       7.617  27.881  57.148  1.00  0.00     0.162 HD
BRANCH   3   6
HETATM    6  C   UNL     1       8.901  29.765  57.812  1.00  0.00     0.146 A 
HETATM    7  N   UNL     1       8.052  29.274  58.739  1.00  0.00    -0.169 NA
HETATM    8  N   UNL     1       8.243  30.070  59.809  1.00  0.00    -0.282 N 
HETATM    9  C   UNL     1       9.157  31.065  59.595  1.00  0.00     0.030 A 
HETATM   10  H   UNL     1       7.702  29.893  60.650  1.00  0.00     0.189 HD
HETATM   11  C   UNL     1       9.622  30.875  58.313  1.00  0.00     0.065 A 
BRANCH   9  12
HETATM   12  C   UNL     1       9.471  32.097  60.624  1.00  0.00     0.058 C 
BRANCH  12  13
HETATM   13  C   UNL     1       9.206  31.569  62.035  1.00  0.00     0.002 C 
HETATM   14  C   UNL     1       8.155  32.399  62.755  1.00  0.00     0.005 C 
ENDBRANCH  12  13
ENDBRANCH   9  12
ENDBRANCH   3   6
ENDBRANCH   1   2
BRANCH   1  15
HETATM   15  C   UNL     1       6.990  26.281  54.989  1.00  0.00     0.254 C 
BRANCH  15  16
HETATM   16  N   UNL     1       6.723  25.868  53.551  1.00  0.00    -0.069 N 
HETATM   17  H   UNL     1       6.179  26.650  53.153  1.00  0.00     0.280 HD
HETATM   18  C   UNL     1       5.886  24.609  53.434  1.00  0.00     0.244 C 
HETATM   19  C   UNL     1       6.881  23.501  53.069  1.00  0.00     0.046 C 
HETATM   20  C   UNL     1       7.806  24.264  52.115  1.00  0.00     0.039 C 
HETATM   21  C   UNL     1       7.966  25.649  52.723  1.00  0.00     0.235 C 
BRANCH  19  22
HETATM   22  C   UNL     1       7.492  22.849  54.306  1.00  0.00    -0.046 A 
HETATM   23  C   UNL     1       7.926  21.498  54.271  1.00  0.00    -0.055 A 
HETATM   24  C   UNL     1       7.888  20.639  53.031  1.00  0.00     0.049 C 
HETATM   25  C   UNL     1       8.401  20.888  55.447  1.00  0.00     0.007 A 
HETATM   26  C   UNL     1       8.504  21.600  56.636  1.00  0.00     0.001 A 
HETATM   27  C   UNL     1       8.145  22.939  56.666  1.00  0.00     0.001 A 
HETATM   28  C   UNL     1       7.652  23.557  55.513  1.00  0.00     0.008 A 
ENDBRANCH  19  22
ENDBRANCH  15  16
ENDBRANCH   1  15
TORSDOF 7
ENDMDL
MODEL 3
REMARK VINA RESULT:      -8.4      1.022      2.025
REMARK  7 active torsions:
REMARK  status: ('A' for Active; 'I' for Inactive)
REMARK    1  A    between atoms: C_2  and  C_3 
REMARK    2  A    between atoms: C_3  and  C_4 
REMARK    3  A    between atoms: C_8  and  C_9 
REMARK       I    between atoms: C_9  and  N_10 
REMARK    4  A    between atoms: N_10  and  C_11 
REMARK    5  A    between atoms: C_11  and  C_12 
REMARK    6  A    between atoms: C_12  and  N_13 
REMARK    7  A    between atoms: C_16  and  C_17 
ROOT
HETATM    1  C   UNL     1       8.548  28.186  56.398  1.00  0.00     0.150 C 
ENDROOT
BRANCH   1   2
HETATM    2  N   UNL     1       8.719  28.893  57.658  1.00  0.00    -0.354 N 
HETATM    3  C   UNL     1       9.448  30.072  57.710  1.00  0.00     0.272 C 
HETATM    4  O   UNL     1      10.337  30.325  56.903  1.00  0.00    -0.266 OA
HETATM    5  H   UNL     1       7.929  28.923  58.308  1.00  0.00     0.162 HD
BRANCH   3   6
HETATM    6  C   UNL     1       9.041  30.962  58.803  1.00  0.00     0.146 A 
HETATM    7  N   UNL     1       9.686  32.125  59.027  1.00  0.00    -0.169 NA
HETATM    8  N   UNL     1       9.072  32.633  60.114  1.00  0.00    -0.282 N 
HETATM    9  C   UNL     1       8.081  31.830  60.608  1.00  0.00     0.030 A 
HETATM   10  H   UNL     1       9.391  33.524  60.481  1.00  0.00     0.189 HD
HETATM   11  C   UNL     1       8.020  30.747  59.759  1.00  0.00     0.065 A 
BRANCH   9  12
HETATM   12  C   UNL     1       7.318  32.169  61.843  1.00  0.00     0.058 C 
BRANCH  12  13
HETATM   13  C   UNL     1       8.249  32.309  63.048  1.00  0.00     0.002 C 
HETATM   14  C   UNL     1       7.569  33.027  64.202  1.00  0.00     0.005 C 
ENDBRANCH  12  13
ENDBRANCH   9  12
ENDBRANCH   3   6
ENDBRANCH   1   2
BRANCH   1  15
HETATM   15  C   UNL     1       7.617  26.964  56.477  1.00  0.00     0.254 C 
BRANCH  15  16
HETATM   16  N   UNL     1       6.421  27.162  55.560  1.00  0.00    -0.069 N 
HETATM   17  H   UNL     1       5.927  27.979  55.951  1.00  0.00     0.280 HD
HETATM   18  C   UNL     1       5.460  25.989  55.566  1.00  0.00     0.244 C 
HETATM   19  C   UNL     1       5.739  25.239  54.257  1.00  0.00     0.046 C 
HETATM   20  C   UNL     1       5.984  26.418  53.310  1.00  0.00     0.039 C 
HETATM   21  C   UNL     1       6.778  27.433  54.119  1.00  0.00     0.235 C 
BRANCH  19  22
HETATM   22  C   UNL     1       6.842  24.196  54.418  1.00  0.00    -0.046 A 
HETATM   23  C   UNL     1       7.655  23.828  53.315  1.00  0.00    -0.055 A 
HETATM   24  C   UNL     1       7.552  24.465  51.951  1.00  0.00     0.049 C 
HETATM   25  C   UNL     1       8.604  22.799  53.461  1.00  0.00     0.007 A 
HETATM   26  C   UNL     1       8.799  22.168  54.685  1.00  0.00     0.001 A 
HETATM   27  C   UNL     1       8.056  22.565  55.786  1.00  0.00     0.001 A 
HETATM   28  C   UNL     1       7.095  23.571  55.655  1.00  0.00     0.008 A 
ENDBRANCH  19  22
ENDBRANCH  15  16
ENDBRANCH   1  15
TORSDOF 7
ENDMDL
MODEL 4
REMARK VINA RESULT:      -8.4      4.657      8.349
REMARK  7 active torsions:
REMARK  status: ('A' for Active; 'I' for Inactive)
REMARK    1  A    between atoms: C_2  and  C_3 
REMARK    2  A    between atoms: C_3  and  C_4 
REMARK    3  A    between atoms: C_8  and  C_9 
REMARK       I    between atoms: C_9  and  N_10 
REMARK    4  A    between atoms: N_10  and  C_11 
REMARK    5  A    between atoms: C_11  and  C_12 
REMARK    6  A    between atoms: C_12  and  N_13 
REMARK    7  A    between atoms: C_16  and  C_17 
ROOT
HETATM    1  C   UNL     1       6.504  28.421  54.482  1.00  0.00     0.150 C 
ENDROOT
BRANCH   1   2
HETATM    2  N   UNL     1       6.227  27.846  53.175  1.00  0.00    -0.354 N 
HETATM    3  C   UNL     1       4.923  27.748  52.711  1.00  0.00     0.272 C 
HETATM    4  O   UNL     1       3.965  27.671  53.474  1.00  0.00    -0.266 OA
HETATM    5  H   UNL     1       6.873  28.051  52.408  1.00  0.00     0.162 HD
BRANCH   3   6
HETATM    6  C   UNL     1       4.822  27.755  51.248  1.00  0.00     0.146 A 
HETATM    7  N   UNL     1       4.483  28.879  50.582  1.00  0.00    -0.169 NA
HETATM    8  N   UNL     1       4.451  28.494  49.291  1.00  0.00    -0.282 N 
HETATM    9  C   UNL     1       4.727  27.167  49.108  1.00  0.00     0.030 A 
HETATM   10  H   UNL     1       4.211  29.183  48.584  1.00  0.00     0.189 HD
HETATM   11  C   UNL     1       5.000  26.666  50.362  1.00  0.00     0.065 A 
BRANCH   9  12
HETATM   12  C   UNL     1       4.681  26.518  47.767  1.00  0.00     0.058 C 
BRANCH  12  13
HETATM   13  C   UNL     1       3.259  26.081  47.413  1.00  0.00     0.002 C 
HETATM   14  C   UNL     1       2.958  24.681  47.926  1.00  0.00     0.005 C 
ENDBRANCH  12  13
ENDBRANCH   9  12
ENDBRANCH   3   6
ENDBRANCH   1   2
BRANCH   1  15
HETATM   15  C   UNL     1       7.511  27.620  55.327  1.00  0.00     0.254 C 
BRANCH  15  16
HETATM   16  N   UNL     1       6.840  27.116  56.594  1.00  0.00    -0.069 N 
HETATM   17  H   UNL     1       6.967  27.880  57.276  1.00  0.00     0.280 HD
HETATM   18  C   UNL     1       7.490  25.869  57.162  1.00  0.00     0.244 C 
HETATM   19  C   UNL     1       6.553  24.719  56.774  1.00  0.00     0.046 C 
HETATM   20  C   UNL     1       5.192  25.396  56.961  1.00  0.00     0.039 C 
HETATM   21  C   UNL     1       5.368  26.816  56.444  1.00  0.00     0.235 C 
BRANCH  19  22
HETATM   22  C   UNL     1       6.894  24.140  55.403  1.00  0.00    -0.046 A 
HETATM   23  C   UNL     1       7.873  23.121  55.272  1.00  0.00    -0.055 A 
HETATM   24  C   UNL     1       8.588  22.493  56.443  1.00  0.00     0.049 C 
HETATM   25  C   UNL     1       8.239  22.666  53.991  1.00  0.00     0.007 A 
HETATM   26  C   UNL     1       7.619  23.158  52.848  1.00  0.00     0.001 A 
HETATM   27  C   UNL     1       6.614  24.106  52.969  1.00  0.00     0.001 A 
HETATM   28  C   UNL     1       6.251  24.585  54.231  1.00  0.00     0.008 A 
ENDBRANCH  19  22
ENDBRANCH  15  16
ENDBRANCH   1  15
TORSDOF 7
ENDMDL
MODEL 5
REMARK VINA RESULT:      -8.2      1.443      2.491
REMARK  7 active torsions:
REMARK  status: ('A' for Active; 'I' for Inactive)
REMARK    1  A    between atoms: C_2  and  C_3 
REMARK    2  A    between atoms: C_3  and  C_4 
REMARK    3  A    between atoms: C_8  and  C_9 
REMARK       I    between atoms: C_9  and  N_10 
REMARK    4  A    between atoms: N_10  and  C_11 
REMARK    5  A    between atoms: C_11  and  C_12 
REMARK    6  A    between atoms: C_12  and  N_13 
REMARK    7  A    between atoms: C_16  and  C_17 
ROOT
HETATM    1  C   UNL     1      10.053  29.709  57.279  1.00  0.00     0.150 C 
ENDROOT
BRANCH   1   2
HETATM    2  N   UNL     1       9.536  30.127  58.573  1.00  0.00    -0.354 N 
HETATM    3  C   UNL     1       9.460  31.474  58.897  1.00  0.00     0.272 C 
HETATM    4  O   UNL     1      10.205  32.309  58.393  1.00  0.00    -0.266 OA
HETATM    5  H   UNL     1       8.748  29.611  58.971  1.00  0.00     0.162 HD
BRANCH   3   6
HETATM    6  C   UNL     1       8.412  31.780  59.876  1.00  0.00     0.146 A 
HETATM    7  N   UNL     1       7.128  31.435  59.648  1.00  0.00    -0.169 NA
HETATM    8  N   UNL     1       6.468  31.909  60.724  1.00  0.00    -0.282 N 
HETATM    9  C   UNL     1       7.273  32.565  61.614  1.00  0.00     0.030 A 
HETATM   10  H   UNL     1       5.464  31.769  60.779  1.00  0.00     0.189 HD
HETATM   11  C   UNL     1       8.548  32.473  61.103  1.00  0.00     0.065 A 
BRANCH   9  12
HETATM   12  C   UNL     1       6.738  33.223  62.840  1.00  0.00     0.058 C 
BRANCH  12  13
HETATM   13  C   UNL     1       7.631  32.945  64.051  1.00  0.00     0.002 C 
HETATM   14  C   UNL     1       7.185  33.737  65.270  1.00  0.00     0.005 C 
ENDBRANCH  12  13
ENDBRANCH   9  12
ENDBRANCH   3   6
ENDBRANCH   1   2
BRANCH   1  15
HETATM   15  C   UNL     1       9.237  28.593  56.601  1.00  0.00     0.254 C 
BRANCH  15  16
HETATM   16  N   UNL     1       7.756  28.934  56.645  1.00  0.00    -0.069 N 
HETATM   17  H   UNL     1       7.726  29.923  56.934  1.00  0.00     0.280 HD
HETATM   18  C   UNL     1       6.985  28.124  57.669  1.00  0.00     0.244 C 
HETATM   19  C   UNL     1       6.232  27.064  56.854  1.00  0.00     0.046 C 
HETATM   20  C   UNL     1       5.839  27.889  55.625  1.00  0.00     0.039 C 
HETATM   21  C   UNL     1       7.039  28.774  55.326  1.00  0.00     0.235 C 
BRANCH  19  22
HETATM   22  C   UNL     1       7.067  25.802  56.646  1.00  0.00    -0.046 A 
HETATM   23  C   UNL     1       6.751  24.891  55.605  1.00  0.00    -0.055 A 
HETATM   24  C   UNL     1       5.644  25.116  54.604  1.00  0.00     0.049 C 
HETATM   25  C   UNL     1       7.474  23.689  55.487  1.00  0.00     0.007 A 
HETATM   26  C   UNL     1       8.532  23.399  56.341  1.00  0.00     0.001 A 
HETATM   27  C   UNL     1       8.892  24.313  57.320  1.00  0.00     0.001 A 
HETATM   28  C   UNL     1       8.173  25.503  57.465  1.00  0.00     0.008 A 
ENDBRANCH  19  22
ENDBRANCH  15  16
ENDBRANCH   1  15
TORSDOF 7
ENDMDL
MODEL 6
REMARK VINA RESULT:      -8.2      5.608      8.427
REMARK  7 active torsions:
REMARK  status: ('A' for Active; 'I' for Inactive)
REMARK    1  A    between atoms: C_2  and  C_3 
REMARK    2  A    between atoms: C_3  and  C_4 
REMARK    3  A    between atoms: C_8  and  C_9 
REMARK       I    between atoms: C_9  and  N_10 
REMARK    4  A    between atoms: N_10  and  C_11 
REMARK    5  A    between atoms: C_11  and  C_12 
REMARK    6  A    between atoms: C_12  and  N_13 
REMARK    7  A    between atoms: C_16  and  C_17 
ROOT
HETATM    1  C   UNL     1       5.105  27.082  55.399  1.00  0.00     0.150 C 
ENDROOT
BRANCH   1   2
HETATM    2  N   UNL     1       4.251  27.432  54.275  1.00  0.00    -0.354 N 
HETATM    3  C   UNL     1       4.464  28.607  53.568  1.00  0.00     0.272 C 
HETATM    4  O   UNL     1       4.997  29.587  54.080  1.00  0.00    -0.266 OA
HETATM    5  H   UNL     1       3.939  26.683  53.652  1.00  0.00     0.162 HD
BRANCH   3   6
HETATM    6  C   UNL     1       4.002  28.543  52.178  1.00  0.00     0.146 A 
HETATM    7  N   UNL     1       2.715  28.796  51.862  1.00  0.00    -0.169 NA
HETATM    8  N   UNL     1       2.663  28.601  50.530  1.00  0.00    -0.282 N 
HETATM    9  C   UNL     1       3.856  28.208  49.987  1.00  0.00     0.030 A 
HETATM   10  H   UNL     1       1.776  28.733  50.053  1.00  0.00     0.189 HD
HETATM   11  C   UNL     1       4.753  28.188  51.032  1.00  0.00     0.065 A 
BRANCH   9  12
HETATM   12  C   UNL     1       4.006  27.875  48.542  1.00  0.00     0.058 C 
BRANCH  12  13
HETATM   13  C   UNL     1       4.356  26.399  48.348  1.00  0.00     0.002 C 
HETATM   14  C   UNL     1       3.246  25.649  47.626  1.00  0.00     0.005 C 
ENDBRANCH  12  13
ENDBRANCH   9  12
ENDBRANCH   3   6
ENDBRANCH   1   2
BRANCH   1  15
HETATM   15  C   UNL     1       6.030  25.878  55.144  1.00  0.00     0.254 C 
BRANCH  15  16
HETATM   16  N   UNL     1       6.272  25.717  53.652  1.00  0.00    -0.069 N 
HETATM   17  H   UNL     1       5.623  26.387  53.210  1.00  0.00     0.280 HD
HETATM   18  C   UNL     1       5.934  24.331  53.137  1.00  0.00     0.244 C 
HETATM   19  C   UNL     1       7.288  23.635  52.950  1.00  0.00     0.046 C 
HETATM   20  C   UNL     1       8.127  24.800  52.418  1.00  0.00     0.039 C 
HETATM   21  C   UNL     1       7.683  26.020  53.212  1.00  0.00     0.235 C 
BRANCH  19  22
HETATM   22  C   UNL     1       7.749  22.929  54.223  1.00  0.00    -0.046 A 
HETATM   23  C   UNL     1       7.933  21.522  54.243  1.00  0.00    -0.055 A 
HETATM   24  C   UNL     1       7.763  20.639  53.032  1.00  0.00     0.049 C 
HETATM   25  C   UNL     1       8.269  20.881  55.450  1.00  0.00     0.007 A 
HETATM   26  C   UNL     1       8.478  21.606  56.617  1.00  0.00     0.001 A 
HETATM   27  C   UNL     1       8.366  22.988  56.594  1.00  0.00     0.001 A 
HETATM   28  C   UNL     1       8.013  23.641  55.410  1.00  0.00     0.008 A 
ENDBRANCH  19  22
ENDBRANCH  15  16
ENDBRANCH   1  15
TORSDOF 7
ENDMDL
MODEL 7
REMARK VINA RESULT:      -7.8      4.060      7.806
REMARK  7 active torsions:
REMARK  status: ('A' for Active; 'I' for Inactive)
REMARK    1  A    between atoms: C_2  and  C_3 
REMARK    2  A    between atoms: C_3  and  C_4 
REMARK    3  A    between atoms: C_8  and  C_9 
REMARK       I    between atoms: C_9  and  N_10 
REMARK    4  A    between atoms: N_10  and  C_11 
REMARK    5  A    between atoms: C_11  and  C_12 
REMARK    6  A    between atoms: C_12  and  N_13 
REMARK    7  A    between atoms: C_16  and  C_17 
ROOT
HETATM    1  C   UNL     1       5.024  28.591  53.017  1.00  0.00     0.150 C 
ENDROOT
BRANCH   1   2
HETATM    2  N   UNL     1       5.621  27.321  52.634  1.00  0.00    -0.354 N 
HETATM    3  C   UNL     1       6.839  26.927  53.168  1.00  0.00     0.272 C 
HETATM    4  O   UNL     1       7.669  27.738  53.566  1.00  0.00    -0.266 OA
HETATM    5  H   UNL     1       5.004  26.516  52.498  1.00  0.00     0.162 HD
BRANCH   3   6
HETATM    6  C   UNL     1       7.013  25.472  53.211  1.00  0.00     0.146 A 
HETATM    7  N   UNL     1       5.972  24.656  53.478  1.00  0.00    -0.169 NA
HETATM    8  N   UNL     1       6.516  23.423  53.474  1.00  0.00    -0.282 N 
HETATM    9  C   UNL     1       7.865  23.420  53.246  1.00  0.00     0.030 A 
HETATM   10  H   UNL     1       5.915  22.625  53.657  1.00  0.00     0.189 HD
HETATM   11  C   UNL     1       8.212  24.738  53.043  1.00  0.00     0.065 A 
BRANCH   9  12
HETATM   12  C   UNL     1       8.677  22.170  53.265  1.00  0.00     0.058 C 
BRANCH  12  13
HETATM   13  C   UNL     1       7.798  20.944  53.520  1.00  0.00     0.002 C 
HETATM   14  C   UNL     1       7.983  20.406  54.930  1.00  0.00     0.005 C 
ENDBRANCH  12  13
ENDBRANCH   9  12
ENDBRANCH   3   6
ENDBRANCH   1   2
BRANCH   1  15
HETATM   15  C   UNL     1       4.116  28.516  54.258  1.00  0.00     0.254 C 
BRANCH  15  16
HETATM   16  N   UNL     1       4.419  29.675  55.193  1.00  0.00    -0.069 N 
HETATM   17  H   UNL     1       4.163  30.517  54.654  1.00  0.00     0.280 HD
HETATM   18  C   UNL     1       5.887  29.783  55.558  1.00  0.00     0.244 C 
HETATM   19  C   UNL     1       5.985  29.226  56.984  1.00  0.00     0.046 C 
HETATM   20  C   UNL     1       4.689  29.778  57.586  1.00  0.00     0.039 C 
HETATM   21  C   UNL     1       3.643  29.653  56.488  1.00  0.00     0.235 C 
BRANCH  19  22
HETATM   22  C   UNL     1       6.206  27.715  56.995  1.00  0.00    -0.046 A 
HETATM   23  C   UNL     1       7.519  27.177  57.020  1.00  0.00    -0.055 A 
HETATM   24  C   UNL     1       8.767  28.020  57.106  1.00  0.00     0.049 C 
HETATM   25  C   UNL     1       7.702  25.784  56.936  1.00  0.00     0.007 A 
HETATM   26  C   UNL     1       6.617  24.917  56.883  1.00  0.00     0.001 A 
HETATM   27  C   UNL     1       5.329  25.428  56.925  1.00  0.00     0.001 A 
HETATM   28  C   UNL     1       5.127  26.810  56.988  1.00  0.00     0.008 A 
ENDBRANCH  19  22
ENDBRANCH  15  16
ENDBRANCH   1  15
TORSDOF 7
ENDMDL
MODEL 8
REMARK VINA RESULT:      -7.5      7.098      9.855
REMARK  7 active torsions:
REMARK  status: ('A' for Active; 'I' for Inactive)
REMARK    1  A    between atoms: C_2  and  C_3 
REMARK    2  A    between atoms: C_3  and  C_4 
REMARK    3  A    between atoms: C_8  and  C_9 
REMARK       I    between atoms: C_9  and  N_10 
REMARK    4  A    between atoms: N_10  and  C_11 
REMARK    5  A    between atoms: C_11  and  C_12 
REMARK    6  A    between atoms: C_12  and  N_13 
REMARK    7  A    between atoms: C_16  and  C_17 
ROOT
HETATM    1  C   UNL     1       5.476  28.165  51.690  1.00  0.00     0.150 C 
ENDROOT
BRANCH   1   2
HETATM    2  N   UNL     1       5.531  27.087  52.664  1.00  0.00    -0.354 N 
HETATM    3  C   UNL     1       5.509  25.763  52.250  1.00  0.00     0.272 C 
HETATM    4  O   UNL     1       4.988  25.419  51.194  1.00  0.00    -0.266 OA
HETATM    5  H   UNL     1       6.133  27.204  53.483  1.00  0.00     0.162 HD
BRANCH   3   6
HETATM    6  C   UNL     1       6.170  24.849  53.187  1.00  0.00     0.146 A 
HETATM    7  N   UNL     1       5.918  24.910  54.511  1.00  0.00    -0.169 NA
HETATM    8  N   UNL     1       6.724  23.968  55.040  1.00  0.00    -0.282 N 
HETATM    9  C   UNL     1       7.500  23.328  54.112  1.00  0.00     0.030 A 
HETATM   10  H   UNL     1       6.712  23.826  56.045  1.00  0.00     0.189 HD
HETATM   11  C   UNL     1       7.141  23.861  52.894  1.00  0.00     0.065 A 
BRANCH   9  12
HETATM   12  C   UNL     1       8.508  22.297  54.488  1.00  0.00     0.058 C 
BRANCH  12  13
HETATM   13  C   UNL     1       7.978  20.886  54.231  1.00  0.00     0.002 C 
HETATM   14  C   UNL     1       8.383  20.376  52.856  1.00  0.00     0.005 C 
ENDBRANCH  12  13
ENDBRANCH   9  12
ENDBRANCH   3   6
ENDBRANCH   1   2
BRANCH   1  15
HETATM   15  C   UNL     1       4.069  28.751  51.470  1.00  0.00     0.254 C 
BRANCH  15  16
HETATM   16  N   UNL     1       4.166  30.062  50.708  1.00  0.00    -0.069 N 
HETATM   17  H   UNL     1       4.085  30.791  51.434  1.00  0.00     0.280 HD
HETATM   18  C   UNL     1       3.037  30.264  49.716  1.00  0.00     0.244 C 
HETATM   19  C   UNL     1       3.655  29.968  48.343  1.00  0.00     0.046 C 
HETATM   20  C   UNL     1       5.043  30.589  48.526  1.00  0.00     0.039 C 
HETATM   21  C   UNL     1       5.458  30.250  49.950  1.00  0.00     0.235 C 
BRANCH  19  22
HETATM   22  C   UNL     1       3.563  28.488  47.981  1.00  0.00    -0.046 A 
HETATM   23  C   UNL     1       2.342  27.932  47.517  1.00  0.00    -0.055 A 
HETATM   24  C   UNL     1       1.090  28.742  47.283  1.00  0.00     0.049 C 
HETATM   25  C   UNL     1       2.253  26.548  47.277  1.00  0.00     0.007 A 
HETATM   26  C   UNL     1       3.356  25.718  47.433  1.00  0.00     0.001 A 
HETATM   27  C   UNL     1       4.572  26.261  47.822  1.00  0.00     0.001 A 
HETATM   28  C   UNL     1       4.675  27.629  48.085  1.00  0.00     0.008 A 
ENDBRANCH  19  22
ENDBRANCH  15  16
ENDBRANCH   1  15
TORSDOF 7
ENDMDL
MODEL 9
REMARK VINA RESULT:      -7.5      1.780      2.675
REMARK  7 active torsions:
REMARK  status: ('A' for Active; 'I' for Inactive)
REMARK    1  A    between atoms: C_2  and  C_3 
REMARK    2  A    between atoms: C_3  and  C_4 
REMARK    3  A    between atoms: C_8  and  C_9 
REMARK       I    between atoms: C_9  and  N_10 
REMARK    4  A    between atoms: N_10  and  C_11 
REMARK    5  A    between atoms: C_11  and  C_12 
REMARK    6  A    between atoms: C_12  and  N_13 
REMARK    7  A    between atoms: C_16  and  C_17 
ROOT
HETATM    1  C   UNL     1       9.585  29.180  57.033  1.00  0.00     0.150 C 
ENDROOT
BRANCH   1   2
HETATM    2  N   UNL     1       9.137  29.786  58.277  1.00  0.00    -0.354 N 
HETATM    3  C   UNL     1       9.397  31.122  58.543  1.00  0.00     0.272 C 
HETATM    4  O   UNL     1      10.354  31.710  58.049  1.00  0.00    -0.266 OA
HETATM    5  H   UNL     1       8.225  29.510  58.650  1.00  0.00     0.162 HD
BRANCH   3   6
HETATM    6  C   UNL     1       8.421  31.738  59.447  1.00  0.00     0.146 A 
HETATM    7  N   UNL     1       7.206  32.119  59.001  1.00  0.00    -0.169 NA
HETATM    8  N   UNL     1       6.620  32.669  60.083  1.00  0.00    -0.282 N 
HETATM    9  C   UNL     1       7.421  32.680  61.192  1.00  0.00     0.030 A 
HETATM   10  H   UNL     1       5.679  33.039  59.991  1.00  0.00     0.189 HD
HETATM   11  C   UNL     1       8.589  32.055  60.816  1.00  0.00     0.065 A 
BRANCH   9  12
HETATM   12  C   UNL     1       6.995  33.300  62.479  1.00  0.00     0.058 C 
BRANCH  12  13
HETATM   13  C   UNL     1       7.803  32.747  63.654  1.00  0.00     0.002 C 
HETATM   14  C   UNL     1       7.301  33.287  64.984  1.00  0.00     0.005 C 
ENDBRANCH  12  13
ENDBRANCH   9  12
ENDBRANCH   3   6
ENDBRANCH   1   2
BRANCH   1  15
HETATM   15  C   UNL     1       8.461  28.917  56.014  1.00  0.00     0.254 C 
BRANCH  15  16
HETATM   16  N   UNL     1       7.107  29.051  56.690  1.00  0.00    -0.069 N 
HETATM   17  H   UNL     1       7.301  29.570  57.560  1.00  0.00     0.280 HD
HETATM   18  C   UNL     1       6.492  27.717  57.071  1.00  0.00     0.244 C 
HETATM   19  C   UNL     1       5.410  27.461  56.014  1.00  0.00     0.046 C 
HETATM   20  C   UNL     1       4.861  28.880  55.832  1.00  0.00     0.039 C 
HETATM   21  C   UNL     1       6.075  29.797  55.879  1.00  0.00     0.235 C 
BRANCH  19  22
HETATM   22  C   UNL     1       5.963  26.734  54.791  1.00  0.00    -0.046 A 
HETATM   23  C   UNL     1       5.348  26.885  53.521  1.00  0.00    -0.055 A 
HETATM   24  C   UNL     1       4.176  27.800  53.263  1.00  0.00     0.049 C 
HETATM   25  C   UNL     1       5.816  26.135  52.427  1.00  0.00     0.007 A 
HETATM   26  C   UNL     1       6.909  25.284  52.551  1.00  0.00     0.001 A 
HETATM   27  C   UNL     1       7.559  25.179  53.772  1.00  0.00     0.001 A 
HETATM   28  C   UNL     1       7.096  25.901  54.876  1.00  0.00     0.008 A 
ENDBRANCH  19  22
ENDBRANCH  15  16
ENDBRANCH   1  15
TORSDOF 7
ENDMDL
MODEL 10
REMARK VINA RESULT:      -7.4      2.980      4.121
REMARK  7 active torsions:
REMARK  status: ('A' for Active; 'I' for Inactive)
REMARK    1  A    between atoms: C_2  and  C_3 
REMARK    2  A    between atoms: C_3  and  C_4 
REMARK    3  A    between atoms: C_8  and  C_9 
REMARK       I    between atoms: C_9  and  N_10 
REMARK    4  A    between atoms: N_10  and  C_11 
REMARK    5  A    between atoms: C_11  and  C_12 
REMARK    6  A    between atoms: C_12  and  N_13 
REMARK    7  A    between atoms: C_16  and  C_17 
ROOT
HETATM    1  C   UNL     1       5.080  27.474  54.702  1.00  0.00     0.150 C 
ENDROOT
BRANCH   1   2
HETATM    2  N   UNL     1       5.163  28.091  56.016  1.00  0.00    -0.354 N 
HETATM    3  C   UNL     1       6.084  29.099  56.264  1.00  0.00     0.272 C 
HETATM    4  O   UNL     1       7.130  29.195  55.629  1.00  0.00    -0.266 OA
HETATM    5  H   UNL     1       4.294  28.256  56.530  1.00  0.00     0.162 HD
BRANCH   3   6
HETATM    6  C   UNL     1       5.672  30.015  57.332  1.00  0.00     0.146 A 
HETATM    7  N   UNL     1       4.393  30.053  57.759  1.00  0.00    -0.169 NA
HETATM    8  N   UNL     1       4.391  31.024  58.694  1.00  0.00    -0.282 N 
HETATM    9  C   UNL     1       5.608  31.626  58.860  1.00  0.00     0.030 A 
HETATM   10  H   UNL     1       3.519  31.242  59.167  1.00  0.00     0.189 HD
HETATM   11  C   UNL     1       6.468  30.972  58.006  1.00  0.00     0.065 A 
BRANCH   9  12
HETATM   12  C   UNL     1       5.814  32.768  59.795  1.00  0.00     0.058 C 
BRANCH  12  13
HETATM   13  C   UNL     1       4.502  33.508  60.061  1.00  0.00     0.002 C 
HETATM   14  C   UNL     1       4.277  34.629  59.058  1.00  0.00     0.005 C 
ENDBRANCH  12  13
ENDBRANCH   9  12
ENDBRANCH   3   6
ENDBRANCH   1   2
BRANCH   1  15
HETATM   15  C   UNL     1       5.727  26.080  54.613  1.00  0.00     0.254 C 
BRANCH  15  16
HETATM   16  N   UNL     1       6.125  25.784  53.176  1.00  0.00    -0.069 N 
HETATM   17  H   UNL     1       5.463  26.332  52.605  1.00  0.00     0.280 HD
HETATM   18  C   UNL     1       5.968  24.323  52.800  1.00  0.00     0.244 C 
HETATM   19  C   UNL     1       7.393  23.753  52.813  1.00  0.00     0.046 C 
HETATM   20  C   UNL     1       8.168  24.934  52.220  1.00  0.00     0.039 C 
HETATM   21  C   UNL     1       7.539  26.180  52.825  1.00  0.00     0.235 C 
BRANCH  19  22
HETATM   22  C   UNL     1       7.793  23.241  54.194  1.00  0.00    -0.046 A 
HETATM   23  C   UNL     1       7.892  21.848  54.448  1.00  0.00    -0.055 A 
HETATM   24  C   UNL     1       7.685  20.789  53.393  1.00  0.00     0.049 C 
HETATM   25  C   UNL     1       8.172  21.396  55.751  1.00  0.00     0.007 A 
HETATM   26  C   UNL     1       8.408  22.290  56.789  1.00  0.00     0.001 A 
HETATM   27  C   UNL     1       8.379  23.653  56.537  1.00  0.00     0.001 A 
HETATM   28  C   UNL     1       8.083  24.122  55.254  1.00  0.00     0.008 A 
ENDBRANCH  19  22
ENDBRANCH  15  16
ENDBRANCH   1  15
TORSDOF 7
ENDMDL
