MODEL 1
REMARK VINA RESULT:     -10.1      0.000      0.000
REMARK  9 active torsions:
REMARK  status: ('A' for Active; 'I' for Inactive)
REMARK    1  A    between atoms: O_2  and  C_3 
REMARK    2  A    between atoms: C_4  and  O_5 
REMARK    3  A    between atoms: C_6  and  C_7 
REMARK    4  A    between atoms: N_8  and  N_9 
REMARK       I    between atoms: N_9  and  C_10 
REMARK    5  A    between atoms: C_10  and  C_11 
REMARK    6  A    between atoms: C_11  and  N_12 
REMARK       I    between atoms: N_12  and  C_13 
REMARK    7  A    between atoms: C_13  and  C_14 
REMARK    8  A    between atoms: C_15  and  C_16 
REMARK    9  A    between atoms: C_15  and  C_22 
ROOT
HETATM    1  N   UNL     1       5.710  26.580  52.760  1.00  0.00    -0.352 N 
HETATM    2  C   UNL     1       5.401  25.247  52.854  1.00  0.00     0.223 C 
HETATM    3  O   UNL     1       4.259  24.828  52.993  1.00  0.00    -0.273 OA
HETATM    4  H   UNL     1       6.676  26.875  52.731  1.00  0.00     0.162 HD
ENDROOT
BRANCH   1   5
HETATM    5  C   UNL     1       4.681  27.592  52.640  1.00  0.00     0.227 C 
BRANCH   5   6
HETATM    6  C   UNL     1       4.825  28.739  53.636  1.00  0.00     0.255 C 
HETATM    7  N   UNL     1       5.613  28.400  54.724  1.00  0.00    -0.246 N 
HETATM    8  H   UNL     1       6.152  27.529  54.705  1.00  0.00     0.192 HD
HETATM    9  O   UNL     1       4.249  29.813  53.465  1.00  0.00    -0.270 OA
BRANCH   7  10
HETATM   10  N   UNL     1       5.634  29.196  55.828  1.00  0.00    -0.184 NA
HETATM   11  C   UNL     1       6.813  29.427  56.316  1.00  0.00     0.153 C 
BRANCH  11  12
HETATM   12  C   UNL     1       6.990  30.213  57.554  1.00  0.00     0.019 A 
HETATM   13  C   UNL     1       8.074  29.963  58.398  1.00  0.00     0.110 A 
HETATM   14  C   UNL     1       8.224  30.666  59.603  1.00  0.00     0.102 A 
HETATM   15  C   UNL     1       7.284  31.639  59.949  1.00  0.00     0.040 A 
HETATM   16  C   UNL     1       6.201  31.898  59.103  1.00  0.00     0.004 A 
HETATM   17  C   UNL     1       6.051  31.185  57.911  1.00  0.00     0.016 A 
BRANCH  13  18
HETATM   18  O   UNL     1       9.003  29.007  58.072  1.00  0.00    -0.357 OA
HETATM   19  H   UNL     1       8.700  28.636  57.219  1.00  0.00     0.218 HD
ENDBRANCH  13  18
BRANCH  14  20
HETATM   20  O   UNL     1       9.320  30.306  60.346  1.00  0.00    -0.353 OA
HETATM   21  C   UNL     1       9.214  30.468  61.757  1.00  0.00     0.210 C 
ENDBRANCH  14  20
ENDBRANCH  11  12
ENDBRANCH   7  10
ENDBRANCH   5   6
ENDBRANCH   1   5
BRANCH   2  22
HETATM   22  C   UNL     1       6.585  24.361  52.765  1.00  0.00     0.097 A 
HETATM   23  C   UNL     1       7.416  24.025  54.015  1.00  0.00     0.027 A 
HETATM   24  C   UNL     1       7.988  24.868  52.874  1.00  0.00     0.035 A 
BRANCH  23  25
HETATM   25  C   UNL     1       7.231  24.759  55.348  1.00  0.00    -0.044 A 
HETATM   26  C   UNL     1       5.987  24.833  56.000  1.00  0.00     0.008 A 
HETATM   27  C   UNL     1       5.841  25.491  57.225  1.00  0.00     0.001 A 
HETATM   28  C   UNL     1       6.944  26.079  57.838  1.00  0.00     0.000 A 
HETATM   29  C   UNL     1       8.191  26.007  57.228  1.00  0.00     0.001 A 
HETATM   30  C   UNL     1       8.329  25.353  56.001  1.00  0.00     0.008 A 
ENDBRANCH  23  25
BRANCH  23  31
HETATM   31  C   UNL     1       7.821  22.554  54.148  1.00  0.00    -0.044 A 
HETATM   32  C   UNL     1       8.310  21.813  53.058  1.00  0.00     0.008 A 
HETATM   33  C   UNL     1       8.690  20.475  53.199  1.00  0.00     0.001 A 
HETATM   34  C   UNL     1       8.592  19.848  54.438  1.00  0.00     0.000 A 
HETATM   35  C   UNL     1       8.119  20.558  55.537  1.00  0.00     0.001 A 
HETATM   36  C   UNL     1       7.742  21.895  55.390  1.00  0.00     0.008 A 
ENDBRANCH  23  31
ENDBRANCH   2  22
TORSDOF 9
ENDMDL
MODEL 2
REMARK VINA RESULT:     -10.0      1.206      1.667
REMARK  9 active torsions:
REMARK  status: ('A' for Active; 'I' for Inactive)
REMARK    1  A    between atoms: O_2  and  C_3 
REMARK    2  A    between atoms: C_4  and  O_5 
REMARK    3  A    between atoms: C_6  and  C_7 
REMARK    4  A    between atoms: N_8  and  N_9 
REMARK       I    between atoms: N_9  and  C_10 
REMARK    5  A    between atoms: C_10  and  C_11 
REMARK    6  A    between atoms: C_11  and  N_12 
REMARK       I    between atoms: N_12  and  C_13 
REMARK    7  A    between atoms: C_13  and  C_14 
REMARK    8  A    between atoms: C_15  and  C_16 
REMARK    9  A    between atoms: C_15  and  C_22 
ROOT
HETATM    1  N   UNL     1       5.706  26.562  52.842  1.00  0.00    -0.352 N 
HETATM    2  C   UNL     1       5.390  25.228  52.888  1.00  0.00     0.223 C 
HETATM    3  O   UNL     1       4.245  24.811  53.008  1.00  0.00    -0.273 OA
HETATM    4  H   UNL     1       6.674  26.853  52.827  1.00  0.00     0.162 HD
ENDROOT
BRANCH   1   5
HETATM    5  C   UNL     1       4.683  27.583  52.753  1.00  0.00     0.227 C 
BRANCH   5   6
HETATM    6  C   UNL     1       4.721  28.595  53.896  1.00  0.00     0.255 C 
HETATM    7  N   UNL     1       5.771  28.367  54.771  1.00  0.00    -0.246 N 
HETATM    8  H   UNL     1       6.502  27.696  54.517  1.00  0.00     0.192 HD
HETATM    9  O   UNL     1       3.863  29.470  54.006  1.00  0.00    -0.270 OA
BRANCH   7  10
HETATM   10  N   UNL     1       5.804  28.996  55.977  1.00  0.00    -0.184 NA
HETATM   11  C   UNL     1       6.958  29.487  56.308  1.00  0.00     0.153 C 
BRANCH  11  12
HETATM   12  C   UNL     1       7.169  30.134  57.619  1.00  0.00     0.019 A 
HETATM   13  C   UNL     1       6.377  31.216  58.007  1.00  0.00     0.110 A 
HETATM   14  C   UNL     1       6.602  31.872  59.227  1.00  0.00     0.102 A 
HETATM   15  C   UNL     1       7.621  31.420  60.068  1.00  0.00     0.040 A 
HETATM   16  C   UNL     1       8.412  30.331  59.688  1.00  0.00     0.004 A 
HETATM   17  C   UNL     1       8.191  29.692  58.466  1.00  0.00     0.016 A 
BRANCH  13  18
HETATM   18  O   UNL     1       5.374  31.673  57.189  1.00  0.00    -0.357 OA
HETATM   19  H   UNL     1       5.782  32.388  56.660  1.00  0.00     0.218 HD
ENDBRANCH  13  18
BRANCH  14  20
HETATM   20  O   UNL     1       5.767  32.933  59.473  1.00  0.00    -0.353 OA
HETATM   21  C   UNL     1       4.883  32.802  60.582  1.00  0.00     0.210 C 
ENDBRANCH  14  20
ENDBRANCH  11  12
ENDBRANCH   7  10
ENDBRANCH   5   6
ENDBRANCH   1   5
BRANCH   2  22
HETATM   22  C   UNL     1       6.570  24.340  52.773  1.00  0.00     0.097 A 
HETATM   23  C   UNL     1       7.437  24.015  54.001  1.00  0.00     0.027 A 
HETATM   24  C   UNL     1       7.976  24.846  52.836  1.00  0.00     0.035 A 
BRANCH  23  25
HETATM   25  C   UNL     1       7.292  24.761  55.332  1.00  0.00    -0.044 A 
HETATM   26  C   UNL     1       6.094  24.759  56.070  1.00  0.00     0.008 A 
HETATM   27  C   UNL     1       5.986  25.430  57.292  1.00  0.00     0.001 A 
HETATM   28  C   UNL     1       7.083  26.109  57.815  1.00  0.00     0.000 A 
HETATM   29  C   UNL     1       8.287  26.114  57.119  1.00  0.00     0.001 A 
HETATM   30  C   UNL     1       8.386  25.447  55.896  1.00  0.00     0.008 A 
ENDBRANCH  23  25
BRANCH  23  31
HETATM   31  C   UNL     1       7.843  22.544  54.136  1.00  0.00    -0.044 A 
HETATM   32  C   UNL     1       8.360  21.811  53.054  1.00  0.00     0.008 A 
HETATM   33  C   UNL     1       8.741  20.473  53.196  1.00  0.00     0.001 A 
HETATM   34  C   UNL     1       8.617  19.839  54.429  1.00  0.00     0.000 A 
HETATM   35  C   UNL     1       8.117  20.542  55.520  1.00  0.00     0.001 A 
HETATM   36  C   UNL     1       7.738  21.879  55.373  1.00  0.00     0.008 A 
ENDBRANCH  23  31
ENDBRANCH   2  22
TORSDOF 9
ENDMDL
MODEL 3
REMARK VINA RESULT:      -9.9      3.099      5.375
REMARK  9 active torsions:
REMARK  status: ('A' for Active; 'I' for Inactive)
REMARK    1  A    between atoms: O_2  and  C_3 
REMARK    2  A    between atoms: C_4  and  O_5 
REMARK    3  A    between atoms: C_6  and  C_7 
REMARK    4  A    between atoms: N_8  and  N_9 
REMARK       I    between atoms: N_9  and  C_10 
REMARK    5  A    between atoms: C_10  and  C_11 
REMARK    6  A    between atoms: C_11  and  N_12 
REMARK       I    between atoms: N_12  and  C_13 
REMARK    7  A    between atoms: C_13  and  C_14 
REMARK    8  A    between atoms: C_15  and  C_16 
REMARK    9  A    between atoms: C_15  and  C_22 
ROOT
HETATM    1  N   UNL     1       9.336  29.069  57.584  1.00  0.00    -0.352 N 
HETATM    2  C   UNL     1       8.781  28.468  56.483  1.00  0.00     0.223 C 
HETATM    3  O   UNL     1       8.552  29.060  55.436  1.00  0.00    -0.273 OA
HETATM    4  H   UNL     1       9.426  28.555  58.450  1.00  0.00     0.162 HD
ENDROOT
BRANCH   1   5
HETATM    5  C   UNL     1       9.859  30.418  57.531  1.00  0.00     0.227 C 
BRANCH   5   6
HETATM    6  C   UNL     1       9.424  31.295  58.702  1.00  0.00     0.255 C 
HETATM    7  N   UNL     1       8.355  30.754  59.401  1.00  0.00    -0.246 N 
HETATM    8  H   UNL     1       8.064  29.791  59.210  1.00  0.00     0.192 HD
HETATM    9  O   UNL     1       9.966  32.375  58.932  1.00  0.00    -0.270 OA
BRANCH   7  10
HETATM   10  N   UNL     1       7.671  31.514  60.299  1.00  0.00    -0.184 NA
HETATM   11  C   UNL     1       8.020  31.348  61.537  1.00  0.00     0.153 C 
BRANCH  11  12
HETATM   12  C   UNL     1       7.318  32.047  62.632  1.00  0.00     0.019 A 
HETATM   13  C   UNL     1       5.925  32.139  62.630  1.00  0.00     0.110 A 
HETATM   14  C   UNL     1       5.250  32.847  63.636  1.00  0.00     0.102 A 
HETATM   15  C   UNL     1       5.984  33.448  64.660  1.00  0.00     0.040 A 
HETATM   16  C   UNL     1       7.379  33.352  64.670  1.00  0.00     0.004 A 
HETATM   17  C   UNL     1       8.045  32.658  63.658  1.00  0.00     0.016 A 
BRANCH  13  18
HETATM   18  O   UNL     1       5.190  31.556  61.629  1.00  0.00    -0.357 OA
HETATM   19  H   UNL     1       4.926  30.682  61.981  1.00  0.00     0.218 HD
ENDBRANCH  13  18
BRANCH  14  20
HETATM   20  O   UNL     1       3.884  32.877  63.502  1.00  0.00    -0.353 OA
HETATM   21  C   UNL     1       3.289  34.159  63.333  1.00  0.00     0.210 C 
ENDBRANCH  14  20
ENDBRANCH  11  12
ENDBRANCH   7  10
ENDBRANCH   5   6
ENDBRANCH   1   5
BRANCH   2  22
HETATM   22  C   UNL     1       8.491  27.029  56.681  1.00  0.00     0.097 A 
HETATM   23  C   UNL     1       7.216  26.393  56.103  1.00  0.00     0.027 A 
HETATM   24  C   UNL     1       7.427  26.537  57.611  1.00  0.00     0.035 A 
BRANCH  23  25
HETATM   25  C   UNL     1       6.072  27.229  55.515  1.00  0.00    -0.044 A 
HETATM   26  C   UNL     1       5.880  27.372  54.129  1.00  0.00     0.008 A 
HETATM   27  C   UNL     1       4.821  28.123  53.611  1.00  0.00     0.001 A 
HETATM   28  C   UNL     1       3.915  28.739  54.471  1.00  0.00     0.000 A 
HETATM   29  C   UNL     1       4.067  28.601  55.846  1.00  0.00     0.001 A 
HETATM   30  C   UNL     1       5.131  27.855  56.357  1.00  0.00     0.008 A 
ENDBRANCH  23  25
BRANCH  23  31
HETATM   31  C   UNL     1       7.417  25.030  55.435  1.00  0.00    -0.044 A 
HETATM   32  C   UNL     1       7.303  23.825  56.150  1.00  0.00     0.008 A 
HETATM   33  C   UNL     1       7.475  22.588  55.523  1.00  0.00     0.001 A 
HETATM   34  C   UNL     1       7.760  22.528  54.162  1.00  0.00     0.000 A 
HETATM   35  C   UNL     1       7.869  23.703  53.426  1.00  0.00     0.001 A 
HETATM   36  C   UNL     1       7.697  24.937  54.058  1.00  0.00     0.008 A 
ENDBRANCH  23  31
ENDBRANCH   2  22
TORSDOF 9
ENDMDL
MODEL 4
REMARK VINA RESULT:      -9.9      2.645      4.551
REMARK  9 active torsions:
REMARK  status: ('A' for Active; 'I' for Inactive)
REMARK    1  A    between atoms: O_2  and  C_3 
REMARK    2  A    between atoms: C_4  and  O_5 
REMARK    3  A    between atoms: C_6  and  C_7 
REMARK    4  A    between atoms: N_8  and  N_9 
REMARK       I    between atoms: N_9  and  C_10 
REMARK    5  A    between atoms: C_10  and  C_11 
REMARK    6  A    between atoms: C_11  and  N_12 
REMARK       I    between atoms: N_12  and  C_13 
REMARK    7  A    between atoms: C_13  and  C_14 
REMARK    8  A    between atoms: C_15  and  C_16 
REMARK    9  A    between atoms: C_15  and  C_22 
ROOT
HETATM    1  N   UNL     1       8.506  27.238  57.261  1.00  0.00    -0.352 N 
HETATM    2  C   UNL     1       7.660  26.666  56.344  1.00  0.00     0.223 C 
HETATM    3  O   UNL     1       7.245  27.254  55.354  1.00  0.00    -0.273 OA
HETATM    4  H   UNL     1       8.751  26.737  58.104  1.00  0.00     0.162 HD
ENDROOT
BRANCH   1   5
HETATM    5  C   UNL     1       9.117  28.530  57.030  1.00  0.00     0.227 C 
BRANCH   5   6
HETATM    6  C   UNL     1       8.359  29.693  57.664  1.00  0.00     0.255 C 
HETATM    7  N   UNL     1       9.113  30.362  58.615  1.00  0.00    -0.246 N 
HETATM    8  H   UNL     1      10.114  30.160  58.698  1.00  0.00     0.192 HD
HETATM    9  O   UNL     1       7.193  29.940  57.359  1.00  0.00    -0.270 OA
BRANCH   7  10
HETATM   10  N   UNL     1       8.518  31.245  59.462  1.00  0.00    -0.184 NA
HETATM   11  C   UNL     1       8.464  30.866  60.701  1.00  0.00     0.153 C 
BRANCH  11  12
HETATM   12  C   UNL     1       7.783  31.684  61.724  1.00  0.00     0.019 A 
HETATM   13  C   UNL     1       6.472  32.118  61.521  1.00  0.00     0.110 A 
HETATM   14  C   UNL     1       5.832  32.940  62.462  1.00  0.00     0.102 A 
HETATM   15  C   UNL     1       6.514  33.310  63.623  1.00  0.00     0.040 A 
HETATM   16  C   UNL     1       7.825  32.870  63.835  1.00  0.00     0.004 A 
HETATM   17  C   UNL     1       8.460  32.064  62.888  1.00  0.00     0.016 A 
BRANCH  13  18
HETATM   18  O   UNL     1       5.791  31.766  60.383  1.00  0.00    -0.357 OA
HETATM   19  H   UNL     1       4.940  32.246  60.435  1.00  0.00     0.218 HD
ENDBRANCH  13  18
BRANCH  14  20
HETATM   20  O   UNL     1       4.554  33.312  62.127  1.00  0.00    -0.353 OA
HETATM   21  C   UNL     1       3.818  34.025  63.116  1.00  0.00     0.210 C 
ENDBRANCH  14  20
ENDBRANCH  11  12
ENDBRANCH   7  10
ENDBRANCH   5   6
ENDBRANCH   1   5
BRANCH   2  22
HETATM   22  C   UNL     1       7.301  25.266  56.667  1.00  0.00     0.097 A 
HETATM   23  C   UNL     1       6.917  24.273  55.557  1.00  0.00     0.027 A 
HETATM   24  C   UNL     1       5.898  24.751  56.593  1.00  0.00     0.035 A 
BRANCH  23  25
HETATM   25  C   UNL     1       6.648  24.715  54.114  1.00  0.00    -0.044 A 
HETATM   26  C   UNL     1       7.674  24.836  53.159  1.00  0.00     0.008 A 
HETATM   27  C   UNL     1       7.407  25.222  51.843  1.00  0.00     0.001 A 
HETATM   28  C   UNL     1       6.099  25.482  51.443  1.00  0.00     0.000 A 
HETATM   29  C   UNL     1       5.060  25.354  52.358  1.00  0.00     0.001 A 
HETATM   30  C   UNL     1       5.334  24.973  53.674  1.00  0.00     0.008 A 
ENDBRANCH  23  25
BRANCH  23  31
HETATM   31  C   UNL     1       7.539  22.880  55.691  1.00  0.00    -0.044 A 
HETATM   32  C   UNL     1       8.062  22.410  56.909  1.00  0.00     0.008 A 
HETATM   33  C   UNL     1       8.613  21.131  57.019  1.00  0.00     0.001 A 
HETATM   34  C   UNL     1       8.650  20.288  55.912  1.00  0.00     0.000 A 
HETATM   35  C   UNL     1       8.132  20.722  54.696  1.00  0.00     0.001 A 
HETATM   36  C   UNL     1       7.582  22.002  54.591  1.00  0.00     0.008 A 
ENDBRANCH  23  31
ENDBRANCH   2  22
TORSDOF 9
ENDMDL
MODEL 5
REMARK VINA RESULT:      -9.6      2.345      3.705
REMARK  9 active torsions:
REMARK  status: ('A' for Active; 'I' for Inactive)
REMARK    1  A    between atoms: O_2  and  C_3 
REMARK    2  A    between atoms: C_4  and  O_5 
REMARK    3  A    between atoms: C_6  and  C_7 
REMARK    4  A    between atoms: N_8  and  N_9 
REMARK       I    between atoms: N_9  and  C_10 
REMARK    5  A    between atoms: C_10  and  C_11 
REMARK    6  A    between atoms: C_11  and  N_12 
REMARK       I    between atoms: N_12  and  C_13 
REMARK    7  A    between atoms: C_13  and  C_14 
REMARK    8  A    between atoms: C_15  and  C_16 
REMARK    9  A    between atoms: C_15  and  C_22 
ROOT
HETATM    1  N   UNL     1       4.803  29.925  54.402  1.00  0.00    -0.352 N 
HETATM    2  C   UNL     1       4.762  28.615  54.806  1.00  0.00     0.223 C 
HETATM    3  O   UNL     1       4.234  28.249  55.849  1.00  0.00    -0.273 OA
HETATM    4  H   UNL     1       5.324  30.183  53.575  1.00  0.00     0.162 HD
ENDROOT
BRANCH   1   5
HETATM    5  C   UNL     1       4.064  30.959  55.096  1.00  0.00     0.227 C 
BRANCH   5   6
HETATM    6  C   UNL     1       4.921  31.803  56.037  1.00  0.00     0.255 C 
HETATM    7  N   UNL     1       5.567  31.038  56.995  1.00  0.00    -0.246 N 
HETATM    8  H   UNL     1       5.570  30.018  56.907  1.00  0.00     0.192 HD
HETATM    9  O   UNL     1       4.963  33.029  55.939  1.00  0.00    -0.270 OA
BRANCH   7  10
HETATM   10  N   UNL     1       6.153  31.637  58.067  1.00  0.00    -0.184 NA
HETATM   11  C   UNL     1       7.005  30.900  58.710  1.00  0.00     0.153 C 
BRANCH  11  12
HETATM   12  C   UNL     1       7.666  31.386  59.938  1.00  0.00     0.019 A 
HETATM   13  C   UNL     1       6.907  31.896  60.992  1.00  0.00     0.110 A 
HETATM   14  C   UNL     1       7.526  32.409  62.142  1.00  0.00     0.102 A 
HETATM   15  C   UNL     1       8.919  32.390  62.235  1.00  0.00     0.040 A 
HETATM   16  C   UNL     1       9.684  31.872  61.185  1.00  0.00     0.004 A 
HETATM   17  C   UNL     1       9.061  31.375  60.037  1.00  0.00     0.016 A 
BRANCH  13  18
HETATM   18  O   UNL     1       5.537  31.925  60.913  1.00  0.00    -0.357 OA
HETATM   19  H   UNL     1       5.275  31.013  60.675  1.00  0.00     0.218 HD
ENDBRANCH  13  18
BRANCH  14  20
HETATM   20  O   UNL     1       6.663  32.900  63.091  1.00  0.00    -0.353 OA
HETATM   21  C   UNL     1       7.204  33.122  64.389  1.00  0.00     0.210 C 
ENDBRANCH  14  20
ENDBRANCH  11  12
ENDBRANCH   7  10
ENDBRANCH   5   6
ENDBRANCH   1   5
BRANCH   2  22
HETATM   22  C   UNL     1       5.413  27.685  53.856  1.00  0.00     0.097 A 
HETATM   23  C   UNL     1       6.866  27.226  54.070  1.00  0.00     0.027 A 
HETATM   24  C   UNL     1       6.472  28.119  52.893  1.00  0.00     0.035 A 
BRANCH  23  25
HETATM   25  C   UNL     1       7.789  27.873  55.109  1.00  0.00    -0.044 A 
HETATM   26  C   UNL     1       7.767  27.508  56.467  1.00  0.00     0.008 A 
HETATM   27  C   UNL     1       8.629  28.096  57.397  1.00  0.00     0.001 A 
HETATM   28  C   UNL     1       9.550  29.055  56.987  1.00  0.00     0.000 A 
HETATM   29  C   UNL     1       9.610  29.424  55.647  1.00  0.00     0.001 A 
HETATM   30  C   UNL     1       8.741  28.838  54.724  1.00  0.00     0.008 A 
ENDBRANCH  23  25
BRANCH  23  31
HETATM   31  C   UNL     1       7.114  25.732  53.840  1.00  0.00    -0.044 A 
HETATM   32  C   UNL     1       7.713  25.248  52.664  1.00  0.00     0.008 A 
HETATM   33  C   UNL     1       7.947  23.884  52.474  1.00  0.00     0.001 A 
HETATM   34  C   UNL     1       7.590  22.970  53.462  1.00  0.00     0.000 A 
HETATM   35  C   UNL     1       7.004  23.420  54.640  1.00  0.00     0.001 A 
HETATM   36  C   UNL     1       6.772  24.785  54.824  1.00  0.00     0.008 A 
ENDBRANCH  23  31
ENDBRANCH   2  22
TORSDOF 9
ENDMDL
MODEL 6
REMARK VINA RESULT:      -9.3      3.283      5.279
REMARK  9 active torsions:
REMARK  status: ('A' for Active; 'I' for Inactive)
REMARK    1  A    between atoms: O_2  and  C_3 
REMARK    2  A    between atoms: C_4  and  O_5 
REMARK    3  A    between atoms: C_6  and  C_7 
REMARK    4  A    between atoms: N_8  and  N_9 
REMARK       I    between atoms: N_9  and  C_10 
REMARK    5  A    between atoms: C_10  and  C_11 
REMARK    6  A    between atoms: C_11  and  N_12 
REMARK       I    between atoms: N_12  and  C_13 
REMARK    7  A    between atoms: C_13  and  C_14 
REMARK    8  A    between atoms: C_15  and  C_16 
REMARK    9  A    between atoms: C_15  and  C_22 
ROOT
HETATM    1  N   UNL     1       5.338  30.423  55.937  1.00  0.00    -0.352 N 
HETATM    2  C   UNL     1       5.211  29.191  56.527  1.00  0.00     0.223 C 
HETATM    3  O   UNL     1       4.569  28.999  57.552  1.00  0.00    -0.273 OA
HETATM    4  H   UNL     1       5.948  30.542  55.140  1.00  0.00     0.162 HD
ENDROOT
BRANCH   1   5
HETATM    5  C   UNL     1       4.569  31.565  56.387  1.00  0.00     0.227 C 
BRANCH   5   6
HETATM    6  C   UNL     1       5.154  32.258  57.614  1.00  0.00     0.255 C 
HETATM    7  N   UNL     1       4.899  31.565  58.787  1.00  0.00    -0.246 N 
HETATM    8  H   UNL     1       4.518  30.616  58.739  1.00  0.00     0.192 HD
HETATM    9  O   UNL     1       5.742  33.335  57.522  1.00  0.00    -0.270 OA
BRANCH   7  10
HETATM   10  N   UNL     1       5.110  32.160  59.992  1.00  0.00    -0.184 NA
HETATM   11  C   UNL     1       6.094  31.670  60.681  1.00  0.00     0.153 C 
BRANCH  11  12
HETATM   12  C   UNL     1       6.400  32.162  62.039  1.00  0.00     0.019 A 
HETATM   13  C   UNL     1       5.372  32.369  62.961  1.00  0.00     0.110 A 
HETATM   14  C   UNL     1       5.643  32.886  64.237  1.00  0.00     0.102 A 
HETATM   15  C   UNL     1       6.962  33.179  64.590  1.00  0.00     0.040 A 
HETATM   16  C   UNL     1       7.996  32.966  63.673  1.00  0.00     0.004 A 
HETATM   17  C   UNL     1       7.717  32.464  62.400  1.00  0.00     0.016 A 
BRANCH  13  18
HETATM   18  O   UNL     1       4.071  32.089  62.627  1.00  0.00    -0.357 OA
HETATM   19  H   UNL     1       3.913  32.569  61.789  1.00  0.00     0.218 HD
ENDBRANCH  13  18
BRANCH  14  20
HETATM   20  O   UNL     1       4.540  33.060  65.034  1.00  0.00    -0.353 OA
HETATM   21  C   UNL     1       4.269  34.391  65.465  1.00  0.00     0.210 C 
ENDBRANCH  14  20
ENDBRANCH  11  12
ENDBRANCH   7  10
ENDBRANCH   5   6
ENDBRANCH   1   5
BRANCH   2  22
HETATM   22  C   UNL     1       5.923  28.115  55.801  1.00  0.00     0.097 A 
HETATM   23  C   UNL     1       7.412  27.835  56.064  1.00  0.00     0.027 A 
HETATM   24  C   UNL     1       6.925  28.388  54.724  1.00  0.00     0.035 A 
BRANCH  23  25
HETATM   25  C   UNL     1       8.295  28.783  56.886  1.00  0.00    -0.044 A 
HETATM   26  C   UNL     1       9.467  29.362  56.365  1.00  0.00     0.008 A 
HETATM   27  C   UNL     1      10.249  30.238  57.123  1.00  0.00     0.001 A 
HETATM   28  C   UNL     1       9.869  30.570  58.420  1.00  0.00     0.000 A 
HETATM   29  C   UNL     1       8.706  30.029  58.957  1.00  0.00     0.001 A 
HETATM   30  C   UNL     1       7.932  29.149  58.197  1.00  0.00     0.008 A 
ENDBRANCH  23  25
BRANCH  23  31
HETATM   31  C   UNL     1       7.783  26.354  56.186  1.00  0.00    -0.044 A 
HETATM   32  C   UNL     1       7.577  25.445  55.133  1.00  0.00     0.008 A 
HETATM   33  C   UNL     1       7.933  24.099  55.253  1.00  0.00     0.001 A 
HETATM   34  C   UNL     1       8.509  23.632  56.431  1.00  0.00     0.000 A 
HETATM   35  C   UNL     1       8.734  24.509  57.487  1.00  0.00     0.001 A 
HETATM   36  C   UNL     1       8.375  25.854  57.361  1.00  0.00     0.008 A 
ENDBRANCH  23  31
ENDBRANCH   2  22
TORSDOF 9
ENDMDL
MODEL 7
REMARK VINA RESULT:      -9.2      2.889      3.737
REMARK  9 active torsions:
REMARK  status: ('A' for Active; 'I' for Inactive)
REMARK    1  A    between atoms: O_2  and  C_3 
REMARK    2  A    between atoms: C_4  and  O_5 
REMARK    3  A    between atoms: C_6  and  C_7 
REMARK    4  A    between atoms: N_8  and  N_9 
REMARK       I    between atoms: N_9  and  C_10 
REMARK    5  A    between atoms: C_10  and  C_11 
REMARK    6  A    between atoms: C_11  and  N_12 
REMARK       I    between atoms: N_12  and  C_13 
REMARK    7  A    between atoms: C_13  and  C_14 
REMARK    8  A    between atoms: C_15  and  C_16 
REMARK    9  A    between atoms: C_15  and  C_22 
ROOT
HETATM    1  N   UNL     1       5.913  26.073  51.236  1.00  0.00    -0.352 N 
HETATM    2  C   UNL     1       5.629  25.005  52.047  1.00  0.00     0.223 C 
HETATM    3  O   UNL     1       4.501  24.744  52.446  1.00  0.00    -0.273 OA
HETATM    4  H   UNL     1       6.873  26.291  51.004  1.00  0.00     0.162 HD
ENDROOT
BRANCH   1   5
HETATM    5  C   UNL     1       4.866  26.878  50.642  1.00  0.00     0.227 C 
BRANCH   5   6
HETATM    6  C   UNL     1       4.469  28.090  51.480  1.00  0.00     0.255 C 
HETATM    7  N   UNL     1       4.613  27.864  52.840  1.00  0.00    -0.246 N 
HETATM    8  H   UNL     1       5.106  27.027  53.162  1.00  0.00     0.192 HD
HETATM    9  O   UNL     1       4.034  29.116  50.958  1.00  0.00    -0.270 OA
BRANCH   7  10
HETATM   10  N   UNL     1       4.062  28.725  53.738  1.00  0.00    -0.184 NA
HETATM   11  C   UNL     1       4.902  29.529  54.313  1.00  0.00     0.153 C 
BRANCH  11  12
HETATM   12  C   UNL     1       4.465  30.470  55.365  1.00  0.00     0.019 A 
HETATM   13  C   UNL     1       3.332  31.263  55.174  1.00  0.00     0.110 A 
HETATM   14  C   UNL     1       2.937  32.198  56.142  1.00  0.00     0.102 A 
HETATM   15  C   UNL     1       3.681  32.321  57.318  1.00  0.00     0.040 A 
HETATM   16  C   UNL     1       4.812  31.523  57.517  1.00  0.00     0.004 A 
HETATM   17  C   UNL     1       5.206  30.604  56.543  1.00  0.00     0.016 A 
BRANCH  13  18
HETATM   18  O   UNL     1       2.594  31.156  54.022  1.00  0.00    -0.357 OA
HETATM   19  H   UNL     1       2.694  32.020  53.573  1.00  0.00     0.218 HD
ENDBRANCH  13  18
BRANCH  14  20
HETATM   20  O   UNL     1       1.819  32.927  55.818  1.00  0.00    -0.353 OA
HETATM   21  C   UNL     1       1.995  34.333  55.674  1.00  0.00     0.210 C 
ENDBRANCH  14  20
ENDBRANCH  11  12
ENDBRANCH   7  10
ENDBRANCH   5   6
ENDBRANCH   1   5
BRANCH   2  22
HETATM   22  C   UNL     1       6.818  24.192  52.390  1.00  0.00     0.097 A 
HETATM   23  C   UNL     1       7.378  24.175  53.822  1.00  0.00     0.027 A 
HETATM   24  C   UNL     1       8.161  24.793  52.663  1.00  0.00     0.035 A 
BRANCH  23  25
HETATM   25  C   UNL     1       6.909  25.159  54.901  1.00  0.00    -0.044 A 
HETATM   26  C   UNL     1       7.545  26.394  55.120  1.00  0.00     0.008 A 
HETATM   27  C   UNL     1       7.092  27.287  56.096  1.00  0.00     0.001 A 
HETATM   28  C   UNL     1       5.978  26.971  56.868  1.00  0.00     0.000 A 
HETATM   29  C   UNL     1       5.316  25.766  56.663  1.00  0.00     0.001 A 
HETATM   30  C   UNL     1       5.778  24.875  55.690  1.00  0.00     0.008 A 
ENDBRANCH  23  25
BRANCH  23  31
HETATM   31  C   UNL     1       7.768  22.791  54.349  1.00  0.00    -0.044 A 
HETATM   32  C   UNL     1       8.004  22.552  55.714  1.00  0.00     0.008 A 
HETATM   33  C   UNL     1       8.345  21.280  56.182  1.00  0.00     0.001 A 
HETATM   34  C   UNL     1       8.454  20.215  55.294  1.00  0.00     0.000 A 
HETATM   35  C   UNL     1       8.219  20.418  53.938  1.00  0.00     0.001 A 
HETATM   36  C   UNL     1       7.878  21.692  53.475  1.00  0.00     0.008 A 
ENDBRANCH  23  31
ENDBRANCH   2  22
TORSDOF 9
ENDMDL
MODEL 8
REMARK VINA RESULT:      -8.8      2.344      3.994
REMARK  9 active torsions:
REMARK  status: ('A' for Active; 'I' for Inactive)
REMARK    1  A    between atoms: O_2  and  C_3 
REMARK    2  A    between atoms: C_4  and  O_5 
REMARK    3  A    between atoms: C_6  and  C_7 
REMARK    4  A    between atoms: N_8  and  N_9 
REMARK       I    between atoms: N_9  and  C_10 
REMARK    5  A    between atoms: C_10  and  C_11 
REMARK    6  A    between atoms: C_11  and  N_12 
REMARK       I    between atoms: N_12  and  C_13 
REMARK    7  A    between atoms: C_13  and  C_14 
REMARK    8  A    between atoms: C_15  and  C_16 
REMARK    9  A    between atoms: C_15  and  C_22 
ROOT
HETATM    1  N   UNL     1       6.650  27.330  56.236  1.00  0.00    -0.352 N 
HETATM    2  C   UNL     1       7.680  26.525  56.651  1.00  0.00     0.223 C 
HETATM    3  O   UNL     1       8.821  26.932  56.831  1.00  0.00    -0.273 OA
HETATM    4  H   UNL     1       5.747  26.926  56.022  1.00  0.00     0.162 HD
ENDROOT
BRANCH   1   5
HETATM    5  C   UNL     1       6.794  28.768  56.152  1.00  0.00     0.227 C 
BRANCH   5   6
HETATM    6  C   UNL     1       6.094  29.525  57.276  1.00  0.00     0.255 C 
HETATM    7  N   UNL     1       6.963  30.334  57.993  1.00  0.00    -0.246 N 
HETATM    8  H   UNL     1       7.910  30.495  57.637  1.00  0.00     0.192 HD
HETATM    9  O   UNL     1       4.896  29.367  57.507  1.00  0.00    -0.270 OA
BRANCH   7  10
HETATM   10  N   UNL     1       6.574  30.870  59.181  1.00  0.00    -0.184 NA
HETATM   11  C   UNL     1       6.626  32.165  59.242  1.00  0.00     0.153 C 
BRANCH  11  12
HETATM   12  C   UNL     1       6.306  32.888  60.489  1.00  0.00     0.019 A 
HETATM   13  C   UNL     1       7.120  32.745  61.614  1.00  0.00     0.110 A 
HETATM   14  C   UNL     1       6.797  33.384  62.821  1.00  0.00     0.102 A 
HETATM   15  C   UNL     1       5.657  34.187  62.886  1.00  0.00     0.040 A 
HETATM   16  C   UNL     1       4.843  34.339  61.759  1.00  0.00     0.004 A 
HETATM   17  C   UNL     1       5.162  33.689  60.566  1.00  0.00     0.016 A 
BRANCH  13  18
HETATM   18  O   UNL     1       8.242  31.957  61.566  1.00  0.00    -0.357 OA
HETATM   19  H   UNL     1       8.986  32.557  61.776  1.00  0.00     0.218 HD
ENDBRANCH  13  18
BRANCH  14  20
HETATM   20  O   UNL     1       7.670  33.142  63.853  1.00  0.00    -0.353 OA
HETATM   21  C   UNL     1       7.337  33.710  65.115  1.00  0.00     0.210 C 
ENDBRANCH  14  20
ENDBRANCH  11  12
ENDBRANCH   7  10
ENDBRANCH   5   6
ENDBRANCH   1   5
BRANCH   2  22
HETATM   22  C   UNL     1       7.278  25.116  56.864  1.00  0.00     0.097 A 
HETATM   23  C   UNL     1       6.940  24.202  55.674  1.00  0.00     0.027 A 
HETATM   24  C   UNL     1       5.873  24.636  56.680  1.00  0.00     0.035 A 
BRANCH  23  25
HETATM   25  C   UNL     1       6.761  24.738  54.249  1.00  0.00    -0.044 A 
HETATM   26  C   UNL     1       7.848  24.951  53.382  1.00  0.00     0.008 A 
HETATM   27  C   UNL     1       7.663  25.423  52.080  1.00  0.00     0.001 A 
HETATM   28  C   UNL     1       6.380  25.679  51.604  1.00  0.00     0.000 A 
HETATM   29  C   UNL     1       5.283  25.460  52.430  1.00  0.00     0.001 A 
HETATM   30  C   UNL     1       5.475  24.994  53.733  1.00  0.00     0.008 A 
ENDBRANCH  23  25
BRANCH  23  31
HETATM   31  C   UNL     1       7.528  22.790  55.754  1.00  0.00    -0.044 A 
HETATM   32  C   UNL     1       7.591  21.944  54.633  1.00  0.00     0.008 A 
HETATM   33  C   UNL     1       8.144  20.663  54.718  1.00  0.00     0.001 A 
HETATM   34  C   UNL     1       8.653  20.200  55.928  1.00  0.00     0.000 A 
HETATM   35  C   UNL     1       8.613  21.018  57.052  1.00  0.00     0.001 A 
HETATM   36  C   UNL     1       8.059  22.298  56.962  1.00  0.00     0.008 A 
ENDBRANCH  23  31
ENDBRANCH   2  22
TORSDOF 9
ENDMDL
MODEL 9
REMARK VINA RESULT:      -8.7      2.675      6.611
REMARK  9 active torsions:
REMARK  status: ('A' for Active; 'I' for Inactive)
REMARK    1  A    between atoms: O_2  and  C_3 
REMARK    2  A    between atoms: C_4  and  O_5 
REMARK    3  A    between atoms: C_6  and  C_7 
REMARK    4  A    between atoms: N_8  and  N_9 
REMARK       I    between atoms: N_9  and  C_10 
REMARK    5  A    between atoms: C_10  and  C_11 
REMARK    6  A    between atoms: C_11  and  N_12 
REMARK       I    between atoms: N_12  and  C_13 
REMARK    7  A    between atoms: C_13  and  C_14 
REMARK    8  A    between atoms: C_15  and  C_16 
REMARK    9  A    between atoms: C_15  and  C_22 
ROOT
HETATM    1  N   UNL     1       6.264  27.456  56.516  1.00  0.00    -0.352 N 
HETATM    2  C   UNL     1       7.381  26.661  56.571  1.00  0.00     0.223 C 
HETATM    3  O   UNL     1       8.520  27.090  56.432  1.00  0.00    -0.273 OA
HETATM    4  H   UNL     1       5.344  27.038  56.553  1.00  0.00     0.162 HD
ENDROOT
BRANCH   1   5
HETATM    5  C   UNL     1       6.360  28.900  56.465  1.00  0.00     0.227 C 
BRANCH   5   6
HETATM    6  C   UNL     1       5.468  29.539  55.404  1.00  0.00     0.255 C 
HETATM    7  N   UNL     1       5.368  28.765  54.259  1.00  0.00    -0.246 N 
HETATM    8  H   UNL     1       5.726  27.805  54.266  1.00  0.00     0.192 HD
HETATM    9  O   UNL     1       4.954  30.643  55.579  1.00  0.00    -0.270 OA
BRANCH   7  10
HETATM   10  N   UNL     1       4.839  29.292  53.121  1.00  0.00    -0.184 NA
HETATM   11  C   UNL     1       5.484  29.005  52.033  1.00  0.00     0.153 C 
BRANCH  11  12
HETATM   12  C   UNL     1       5.075  29.566  50.729  1.00  0.00     0.019 A 
HETATM   13  C   UNL     1       4.022  28.992  50.014  1.00  0.00     0.110 A 
HETATM   14  C   UNL     1       3.659  29.481  48.751  1.00  0.00     0.102 A 
HETATM   15  C   UNL     1       4.351  30.569  48.214  1.00  0.00     0.040 A 
HETATM   16  C   UNL     1       5.401  31.153  48.930  1.00  0.00     0.004 A 
HETATM   17  C   UNL     1       5.766  30.651  50.181  1.00  0.00     0.016 A 
BRANCH  13  18
HETATM   18  O   UNL     1       3.336  27.920  50.528  1.00  0.00    -0.357 OA
HETATM   19  H   UNL     1       3.988  27.437  51.075  1.00  0.00     0.218 HD
ENDBRANCH  13  18
BRANCH  14  20
HETATM   20  O   UNL     1       2.623  28.811  48.149  1.00  0.00    -0.353 OA
HETATM   21  C   UNL     1       1.383  29.506  48.058  1.00  0.00     0.210 C 
ENDBRANCH  14  20
ENDBRANCH  11  12
ENDBRANCH   7  10
ENDBRANCH   5   6
ENDBRANCH   1   5
BRANCH   2  22
HETATM   22  C   UNL     1       7.076  25.234  56.821  1.00  0.00     0.097 A 
HETATM   23  C   UNL     1       6.794  24.270  55.656  1.00  0.00     0.027 A 
HETATM   24  C   UNL     1       5.706  24.656  56.659  1.00  0.00     0.035 A 
BRANCH  23  25
HETATM   25  C   UNL     1       6.571  24.758  54.219  1.00  0.00    -0.044 A 
HETATM   26  C   UNL     1       7.636  25.023  53.340  1.00  0.00     0.008 A 
HETATM   27  C   UNL     1       7.413  25.449  52.028  1.00  0.00     0.001 A 
HETATM   28  C   UNL     1       6.113  25.607  51.556  1.00  0.00     0.000 A 
HETATM   29  C   UNL     1       5.038  25.335  52.395  1.00  0.00     0.001 A 
HETATM   30  C   UNL     1       5.268  24.915  53.707  1.00  0.00     0.008 A 
ENDBRANCH  23  25
BRANCH  23  31
HETATM   31  C   UNL     1       7.477  22.904  55.765  1.00  0.00    -0.044 A 
HETATM   32  C   UNL     1       7.612  22.047  54.658  1.00  0.00     0.008 A 
HETATM   33  C   UNL     1       8.251  20.809  54.770  1.00  0.00     0.001 A 
HETATM   34  C   UNL     1       8.775  20.401  55.993  1.00  0.00     0.000 A 
HETATM   35  C   UNL     1       8.665  21.231  57.103  1.00  0.00     0.001 A 
HETATM   36  C   UNL     1       8.025  22.467  56.987  1.00  0.00     0.008 A 
ENDBRANCH  23  31
ENDBRANCH   2  22
TORSDOF 9
ENDMDL
MODEL 10
REMARK VINA RESULT:      -8.5      3.244      4.569
REMARK  9 active torsions:
REMARK  status: ('A' for Active; 'I' for Inactive)
REMARK    1  A    between atoms: O_2  and  C_3 
REMARK    2  A    between atoms: C_4  and  O_5 
REMARK    3  A    between atoms: C_6  and  C_7 
REMARK    4  A    between atoms: N_8  and  N_9 
REMARK       I    between atoms: N_9  and  C_10 
REMARK    5  A    between atoms: C_10  and  C_11 
REMARK    6  A    between atoms: C_11  and  N_12 
REMARK       I    between atoms: N_12  and  C_13 
REMARK    7  A    between atoms: C_13  and  C_14 
REMARK    8  A    between atoms: C_15  and  C_16 
REMARK    9  A    between atoms: C_15  and  C_22 
ROOT
HETATM    1  N   UNL     1       4.376  29.621  55.212  1.00  0.00    -0.352 N 
HETATM    2  C   UNL     1       4.537  28.277  55.438  1.00  0.00     0.223 C 
HETATM    3  O   UNL     1       4.180  27.720  56.468  1.00  0.00    -0.273 OA
HETATM    4  H   UNL     1       4.765  30.044  54.380  1.00  0.00     0.162 HD
ENDROOT
BRANCH   1   5
HETATM    5  C   UNL     1       3.605  30.456  56.109  1.00  0.00     0.227 C 
BRANCH   5   6
HETATM    6  C   UNL     1       4.426  31.065  57.242  1.00  0.00     0.255 C 
HETATM    7  N   UNL     1       3.783  30.981  58.468  1.00  0.00    -0.246 N 
HETATM    8  H   UNL     1       2.944  30.401  58.557  1.00  0.00     0.192 HD
HETATM    9  O   UNL     1       5.514  31.600  57.031  1.00  0.00    -0.270 OA
BRANCH   7  10
HETATM   10  N   UNL     1       4.239  31.699  59.530  1.00  0.00    -0.184 NA
HETATM   11  C   UNL     1       3.355  31.944  60.446  1.00  0.00     0.153 C 
BRANCH  11  12
HETATM   12  C   UNL     1       3.680  32.774  61.623  1.00  0.00     0.019 A 
HETATM   13  C   UNL     1       4.778  32.461  62.425  1.00  0.00     0.110 A 
HETATM   14  C   UNL     1       5.066  33.210  63.576  1.00  0.00     0.102 A 
HETATM   15  C   UNL     1       4.251  34.294  63.908  1.00  0.00     0.040 A 
HETATM   16  C   UNL     1       3.155  34.618  63.103  1.00  0.00     0.004 A 
HETATM   17  C   UNL     1       2.866  33.858  61.967  1.00  0.00     0.016 A 
BRANCH  13  18
HETATM   18  O   UNL     1       5.586  31.396  62.114  1.00  0.00    -0.357 OA
HETATM   19  H   UNL     1       6.058  31.181  62.944  1.00  0.00     0.218 HD
ENDBRANCH  13  18
BRANCH  14  20
HETATM   20  O   UNL     1       6.161  32.780  64.285  1.00  0.00    -0.353 OA
HETATM   21  C   UNL     1       7.117  33.773  64.644  1.00  0.00     0.210 C 
ENDBRANCH  14  20
ENDBRANCH  11  12
ENDBRANCH   7  10
ENDBRANCH   5   6
ENDBRANCH   1   5
BRANCH   2  22
HETATM   22  C   UNL     1       5.181  27.564  54.311  1.00  0.00     0.097 A 
HETATM   23  C   UNL     1       6.691  27.277  54.317  1.00  0.00     0.027 A 
HETATM   24  C   UNL     1       6.064  28.248  53.316  1.00  0.00     0.035 A 
BRANCH  23  25
HETATM   25  C   UNL     1       7.645  27.909  55.339  1.00  0.00    -0.044 A 
HETATM   26  C   UNL     1       8.618  28.857  54.974  1.00  0.00     0.008 A 
HETATM   27  C   UNL     1       9.467  29.436  55.922  1.00  0.00     0.001 A 
HETATM   28  C   UNL     1       9.351  29.091  57.266  1.00  0.00     0.000 A 
HETATM   29  C   UNL     1       8.387  28.170  57.661  1.00  0.00     0.001 A 
HETATM   30  C   UNL     1       7.546  27.590  56.708  1.00  0.00     0.008 A 
ENDBRANCH  23  25
BRANCH  23  31
HETATM   31  C   UNL     1       7.086  25.868  53.864  1.00  0.00    -0.044 A 
HETATM   32  C   UNL     1       7.617  25.617  52.586  1.00  0.00     0.008 A 
HETATM   33  C   UNL     1       7.986  24.328  52.192  1.00  0.00     0.001 A 
HETATM   34  C   UNL     1       7.836  23.259  53.070  1.00  0.00     0.000 A 
HETATM   35  C   UNL     1       7.322  23.478  54.344  1.00  0.00     0.001 A 
HETATM   36  C   UNL     1       6.955  24.768  54.733  1.00  0.00     0.008 A 
ENDBRANCH  23  31
ENDBRANCH   2  22
TORSDOF 9
ENDMDL
