MODEL 1
REMARK VINA RESULT:      -9.2      0.000      0.000
REMARK  3 active torsions:
REMARK  status: ('A' for Active; 'I' for Inactive)
REMARK    1  A    between atoms: C_5  and  N_6 
REMARK       I    between atoms: N_6  and  C_7 
REMARK    2  A    between atoms: C_7  and  C_8 
REMARK    3  A    between atoms: C_8  and  C_9 
ROOT
HETATM    1  C   UNL     1       7.062  27.613  56.290  1.00  0.00     0.286 C 
HETATM    2  N   UNL     1       8.245  28.401  55.726  1.00  0.00    -0.056 N 
HETATM    3  H   UNL     1       8.810  27.725  55.172  1.00  0.00     0.278 HD
HETATM    4  H   UNL     1       7.918  29.115  55.064  1.00  0.00     0.278 HD
HETATM    5  C   UNL     1       9.056  29.000  56.834  1.00  0.00     0.209 C 
HETATM    6  C   UNL     1       8.151  29.975  57.622  1.00  0.00     0.115 C 
HETATM    7  N   UNL     1       6.901  29.353  58.054  1.00  0.00    -0.353 N 
HETATM    8  C   UNL     1       6.208  28.469  57.250  1.00  0.00     0.249 C 
HETATM    9  O   UNL     1       4.997  28.335  57.373  1.00  0.00    -0.271 OA
HETATM   10  C   UNL     1      10.276  29.717  56.275  1.00  0.00     0.035 C 
HETATM   11  C   UNL     1      11.075  30.348  57.418  1.00  0.00     0.002 C 
HETATM   12  C   UNL     1      10.213  31.257  58.299  1.00  0.00     0.002 C 
HETATM   13  C   UNL     1       8.937  30.570  58.791  1.00  0.00     0.027 C 
HETATM   14  H   UNL     1       6.280  29.902  58.647  1.00  0.00     0.163 HD
ENDROOT
BRANCH   1  15
HETATM   15  C   UNL     1       6.226  26.992  55.166  1.00  0.00     0.146 C 
BRANCH  15  16
HETATM   16  C   UNL     1       6.989  27.066  53.868  1.00  0.00     0.224 C 
HETATM   17  N   UNL     1       7.692  26.021  53.369  1.00  0.00    -0.327 N 
HETATM   18  H   UNL     1       8.248  26.291  52.562  1.00  0.00     0.169 HD
HETATM   19  O   UNL     1       6.974  28.132  53.236  1.00  0.00    -0.273 OA
BRANCH  17  20
HETATM   20  C   UNL     1       7.821  24.671  53.744  1.00  0.00     0.034 A 
HETATM   21  C   UNL     1       8.017  24.208  55.044  1.00  0.00     0.030 A 
HETATM   22  C   UNL     1       8.119  22.834  55.303  1.00  0.00     0.009 A 
HETATM   23  C   UNL     1       8.029  21.902  54.267  1.00  0.00    -0.062 A 
HETATM   24  C   UNL     1       8.113  20.429  54.541  1.00  0.00     0.048 C 
HETATM   25  C   UNL     1       7.804  22.360  52.968  1.00  0.00     0.009 A 
HETATM   26  C   UNL     1       7.696  23.729  52.713  1.00  0.00     0.030 A 
ENDBRANCH  17  20
ENDBRANCH  15  16
ENDBRANCH   1  15
TORSDOF 3
ENDMDL
MODEL 2
REMARK VINA RESULT:      -9.0      3.273      5.982
REMARK  3 active torsions:
REMARK  status: ('A' for Active; 'I' for Inactive)
REMARK    1  A    between atoms: C_5  and  N_6 
REMARK       I    between atoms: N_6  and  C_7 
REMARK    2  A    between atoms: C_7  and  C_8 
REMARK    3  A    between atoms: C_8  and  C_9 
ROOT
HETATM    1  C   UNL     1       4.661  26.959  53.000  1.00  0.00     0.286 C 
HETATM    2  N   UNL     1       5.448  27.940  52.131  1.00  0.00    -0.056 N 
HETATM    3  H   UNL     1       5.364  28.871  52.589  1.00  0.00     0.278 HD
HETATM    4  H   UNL     1       6.448  27.704  52.138  1.00  0.00     0.278 HD
HETATM    5  C   UNL     1       4.896  27.973  50.739  1.00  0.00     0.209 C 
HETATM    6  C   UNL     1       5.038  26.558  50.130  1.00  0.00     0.115 C 
HETATM    7  N   UNL     1       4.465  25.521  50.985  1.00  0.00    -0.353 N 
HETATM    8  C   UNL     1       4.589  25.556  52.361  1.00  0.00     0.249 C 
HETATM    9  O   UNL     1       4.558  24.521  53.014  1.00  0.00    -0.271 OA
HETATM   10  C   UNL     1       5.630  29.006  49.897  1.00  0.00     0.035 C 
HETATM   11  C   UNL     1       5.074  29.003  48.471  1.00  0.00     0.002 C 
HETATM   12  C   UNL     1       5.098  27.609  47.839  1.00  0.00     0.002 C 
HETATM   13  C   UNL     1       4.440  26.545  48.723  1.00  0.00     0.027 C 
HETATM   14  H   UNL     1       4.445  24.568  50.624  1.00  0.00     0.163 HD
ENDROOT
BRANCH   1  15
HETATM   15  C   UNL     1       5.214  26.919  54.429  1.00  0.00     0.146 C 
BRANCH  15  16
HETATM   16  C   UNL     1       6.672  27.301  54.417  1.00  0.00     0.224 C 
HETATM   17  N   UNL     1       7.671  26.386  54.382  1.00  0.00    -0.327 N 
HETATM   18  H   UNL     1       8.582  26.817  54.515  1.00  0.00     0.169 HD
HETATM   19  O   UNL     1       6.966  28.505  54.446  1.00  0.00    -0.273 OA
BRANCH  17  20
HETATM   20  C   UNL     1       7.701  24.988  54.222  1.00  0.00     0.034 A 
HETATM   21  C   UNL     1       7.438  24.054  55.224  1.00  0.00     0.030 A 
HETATM   22  C   UNL     1       7.485  22.681  54.946  1.00  0.00     0.009 A 
HETATM   23  C   UNL     1       7.795  22.220  53.664  1.00  0.00    -0.062 A 
HETATM   24  C   UNL     1       7.822  20.752  53.355  1.00  0.00     0.048 C 
HETATM   25  C   UNL     1       8.029  23.152  52.652  1.00  0.00     0.009 A 
HETATM   26  C   UNL     1       7.976  24.521  52.930  1.00  0.00     0.030 A 
ENDBRANCH  17  20
ENDBRANCH  15  16
ENDBRANCH   1  15
TORSDOF 3
ENDMDL
MODEL 3
REMARK VINA RESULT:      -9.0      3.455      5.001
REMARK  3 active torsions:
REMARK  status: ('A' for Active; 'I' for Inactive)
REMARK    1  A    between atoms: C_5  and  N_6 
REMARK       I    between atoms: N_6  and  C_7 
REMARK    2  A    between atoms: C_7  and  C_8 
REMARK    3  A    between atoms: C_8  and  C_9 
ROOT
HETATM    1  C   UNL     1       6.013  26.082  55.577  1.00  0.00     0.286 C 
HETATM    2  N   UNL     1       5.521  25.297  54.362  1.00  0.00    -0.056 N 
HETATM    3  H   UNL     1       6.142  24.466  54.278  1.00  0.00     0.278 HD
HETATM    4  H   UNL     1       4.574  24.934  54.527  1.00  0.00     0.278 HD
HETATM    5  C   UNL     1       5.583  26.141  53.127  1.00  0.00     0.209 C 
HETATM    6  C   UNL     1       4.654  27.362  53.328  1.00  0.00     0.115 C 
HETATM    7  N   UNL     1       4.937  28.080  54.569  1.00  0.00    -0.353 N 
HETATM    8  C   UNL     1       5.260  27.421  55.739  1.00  0.00     0.249 C 
HETATM    9  O   UNL     1       5.025  27.932  56.826  1.00  0.00    -0.271 OA
HETATM   10  C   UNL     1       5.168  25.334  51.906  1.00  0.00     0.035 C 
HETATM   11  C   UNL     1       5.208  26.222  50.659  1.00  0.00     0.002 C 
HETATM   12  C   UNL     1       4.381  27.499  50.826  1.00  0.00     0.002 C 
HETATM   13  C   UNL     1       4.732  28.270  52.102  1.00  0.00     0.027 C 
HETATM   14  H   UNL     1       4.424  28.943  54.743  1.00  0.00     0.163 HD
ENDROOT
BRANCH   1  15
HETATM   15  C   UNL     1       5.958  25.227  56.848  1.00  0.00     0.146 C 
BRANCH  15  16
HETATM   16  C   UNL     1       7.337  25.120  57.446  1.00  0.00     0.224 C 
HETATM   17  N   UNL     1       8.216  24.150  57.096  1.00  0.00    -0.327 N 
HETATM   18  H   UNL     1       9.038  24.152  57.694  1.00  0.00     0.169 HD
HETATM   19  O   UNL     1       7.677  25.954  58.298  1.00  0.00    -0.273 OA
BRANCH  17  20
HETATM   20  C   UNL     1       8.212  23.148  56.107  1.00  0.00     0.034 A 
HETATM   21  C   UNL     1       7.885  21.809  56.315  1.00  0.00     0.030 A 
HETATM   22  C   UNL     1       7.903  20.898  55.248  1.00  0.00     0.009 A 
HETATM   23  C   UNL     1       8.249  21.312  53.960  1.00  0.00    -0.062 A 
HETATM   24  C   UNL     1       8.246  20.347  52.810  1.00  0.00     0.048 C 
HETATM   25  C   UNL     1       8.548  22.658  53.743  1.00  0.00     0.009 A 
HETATM   26  C   UNL     1       8.524  23.565  54.806  1.00  0.00     0.030 A 
ENDBRANCH  17  20
ENDBRANCH  15  16
ENDBRANCH   1  15
TORSDOF 3
ENDMDL
MODEL 4
REMARK VINA RESULT:      -8.9      3.311      6.655
REMARK  3 active torsions:
REMARK  status: ('A' for Active; 'I' for Inactive)
REMARK    1  A    between atoms: C_5  and  N_6 
REMARK       I    between atoms: N_6  and  C_7 
REMARK    2  A    between atoms: C_7  and  C_8 
REMARK    3  A    between atoms: C_8  and  C_9 
ROOT
HETATM    1  C   UNL     1       7.184  24.775  55.629  1.00  0.00     0.286 C 
HETATM    2  N   UNL     1       7.587  24.147  54.295  1.00  0.00    -0.056 N 
HETATM    3  H   UNL     1       6.890  24.473  53.594  1.00  0.00     0.278 HD
HETATM    4  H   UNL     1       8.498  24.511  53.987  1.00  0.00     0.278 HD
HETATM    5  C   UNL     1       7.593  22.653  54.395  1.00  0.00     0.209 C 
HETATM    6  C   UNL     1       8.635  22.244  55.462  1.00  0.00     0.115 C 
HETATM    7  N   UNL     1       8.434  22.936  56.733  1.00  0.00    -0.353 N 
HETATM    8  C   UNL     1       8.062  24.265  56.792  1.00  0.00     0.249 C 
HETATM    9  O   UNL     1       8.356  24.950  57.763  1.00  0.00    -0.271 OA
HETATM   10  C   UNL     1       7.917  22.028  53.046  1.00  0.00     0.035 C 
HETATM   11  C   UNL     1       7.949  20.503  53.175  1.00  0.00     0.002 C 
HETATM   12  C   UNL     1       8.895  20.031  54.282  1.00  0.00     0.002 C 
HETATM   13  C   UNL     1       8.632  20.723  55.622  1.00  0.00     0.027 C 
HETATM   14  H   UNL     1       9.029  22.667  57.516  1.00  0.00     0.163 HD
ENDROOT
BRANCH   1  15
HETATM   15  C   UNL     1       7.171  26.305  55.539  1.00  0.00     0.146 C 
BRANCH  15  16
HETATM   16  C   UNL     1       5.780  26.816  55.810  1.00  0.00     0.224 C 
HETATM   17  N   UNL     1       4.887  27.076  54.824  1.00  0.00    -0.327 N 
HETATM   18  H   UNL     1       4.054  27.538  55.181  1.00  0.00     0.169 HD
HETATM   19  O   UNL     1       5.442  27.010  56.987  1.00  0.00    -0.273 OA
BRANCH  17  20
HETATM   20  C   UNL     1       4.888  26.860  53.434  1.00  0.00     0.034 A 
HETATM   21  C   UNL     1       4.922  25.614  52.809  1.00  0.00     0.030 A 
HETATM   22  C   UNL     1       4.906  25.519  51.410  1.00  0.00     0.009 A 
HETATM   23  C   UNL     1       4.856  26.666  50.615  1.00  0.00    -0.062 A 
HETATM   24  C   UNL     1       4.813  26.570  49.118  1.00  0.00     0.048 C 
HETATM   25  C   UNL     1       4.791  27.914  51.237  1.00  0.00     0.009 A 
HETATM   26  C   UNL     1       4.802  28.006  52.632  1.00  0.00     0.030 A 
ENDBRANCH  17  20
ENDBRANCH  15  16
ENDBRANCH   1  15
TORSDOF 3
ENDMDL
MODEL 5
REMARK VINA RESULT:      -8.7      2.739      8.061
REMARK  3 active torsions:
REMARK  status: ('A' for Active; 'I' for Inactive)
REMARK    1  A    between atoms: C_5  and  N_6 
REMARK       I    between atoms: N_6  and  C_7 
REMARK    2  A    between atoms: C_7  and  C_8 
REMARK    3  A    between atoms: C_8  and  C_9 
ROOT
HETATM    1  C   UNL     1       7.494  28.017  57.137  1.00  0.00     0.286 C 
HETATM    2  N   UNL     1       8.259  26.756  57.540  1.00  0.00    -0.056 N 
HETATM    3  H   UNL     1       9.256  27.038  57.642  1.00  0.00     0.278 HD
HETATM    4  H   UNL     1       7.954  26.431  58.466  1.00  0.00     0.278 HD
HETATM    5  C   UNL     1       8.105  25.690  56.499  1.00  0.00     0.209 C 
HETATM    6  C   UNL     1       6.603  25.336  56.389  1.00  0.00     0.115 C 
HETATM    7  N   UNL     1       5.765  26.514  56.179  1.00  0.00    -0.353 N 
HETATM    8  C   UNL     1       6.014  27.713  56.819  1.00  0.00     0.249 C 
HETATM    9  O   UNL     1       5.104  28.504  57.033  1.00  0.00    -0.271 OA
HETATM   10  C   UNL     1       8.930  24.465  56.863  1.00  0.00     0.035 C 
HETATM   11  C   UNL     1       8.736  23.376  55.804  1.00  0.00     0.002 C 
HETATM   12  C   UNL     1       7.260  23.041  55.577  1.00  0.00     0.002 C 
HETATM   13  C   UNL     1       6.406  24.282  55.300  1.00  0.00     0.027 C 
HETATM   14  H   UNL     1       4.770  26.363  56.017  1.00  0.00     0.163 HD
ENDROOT
BRANCH   1  15
HETATM   15  C   UNL     1       7.646  29.118  58.193  1.00  0.00     0.146 C 
BRANCH  15  16
HETATM   16  C   UNL     1       9.014  29.741  58.079  1.00  0.00     0.224 C 
HETATM   17  N   UNL     1       9.496  30.625  58.986  1.00  0.00    -0.327 N 
HETATM   18  H   UNL     1      10.372  31.040  58.680  1.00  0.00     0.169 HD
HETATM   19  O   UNL     1       9.724  29.432  57.111  1.00  0.00    -0.273 OA
BRANCH  17  20
HETATM   20  C   UNL     1       9.030  31.090  60.230  1.00  0.00     0.034 A 
HETATM   21  C   UNL     1       9.196  30.437  61.451  1.00  0.00     0.030 A 
HETATM   22  C   UNL     1       8.699  31.003  62.634  1.00  0.00     0.009 A 
HETATM   23  C   UNL     1       8.028  32.228  62.614  1.00  0.00    -0.062 A 
HETATM   24  C   UNL     1       7.516  32.850  63.880  1.00  0.00     0.048 C 
HETATM   25  C   UNL     1       7.886  32.898  61.398  1.00  0.00     0.009 A 
HETATM   26  C   UNL     1       8.388  32.335  60.222  1.00  0.00     0.030 A 
ENDBRANCH  17  20
ENDBRANCH  15  16
ENDBRANCH   1  15
TORSDOF 3
ENDMDL
MODEL 6
REMARK VINA RESULT:      -8.6      4.430      7.425
REMARK  3 active torsions:
REMARK  status: ('A' for Active; 'I' for Inactive)
REMARK    1  A    between atoms: C_5  and  N_6 
REMARK       I    between atoms: N_6  and  C_7 
REMARK    2  A    between atoms: C_7  and  C_8 
REMARK    3  A    between atoms: C_8  and  C_9 
ROOT
HETATM    1  C   UNL     1       5.442  27.709  50.936  1.00  0.00     0.286 C 
HETATM    2  N   UNL     1       4.581  26.509  50.545  1.00  0.00    -0.056 N 
HETATM    3  H   UNL     1       5.153  25.661  50.742  1.00  0.00     0.278 HD
HETATM    4  H   UNL     1       3.754  26.446  51.153  1.00  0.00     0.278 HD
HETATM    5  C   UNL     1       4.202  26.578  49.098  1.00  0.00     0.209 C 
HETATM    6  C   UNL     1       3.374  27.866  48.877  1.00  0.00     0.115 C 
HETATM    7  N   UNL     1       4.048  29.058  49.386  1.00  0.00    -0.353 N 
HETATM    8  C   UNL     1       4.763  29.046  50.568  1.00  0.00     0.249 C 
HETATM    9  O   UNL     1       4.902  30.073  51.221  1.00  0.00    -0.271 OA
HETATM   10  C   UNL     1       3.412  25.343  48.692  1.00  0.00     0.035 C 
HETATM   11  C   UNL     1       3.007  25.447  47.219  1.00  0.00     0.002 C 
HETATM   12  C   UNL     1       2.261  26.748  46.911  1.00  0.00     0.002 C 
HETATM   13  C   UNL     1       3.010  27.992  47.398  1.00  0.00     0.027 C 
HETATM   14  H   UNL     1       3.607  29.961  49.212  1.00  0.00     0.163 HD
ENDROOT
BRANCH   1  15
HETATM   15  C   UNL     1       5.840  27.648  52.415  1.00  0.00     0.146 C 
BRANCH  15  16
HETATM   16  C   UNL     1       4.731  27.007  53.210  1.00  0.00     0.224 C 
HETATM   17  N   UNL     1       4.833  25.766  53.745  1.00  0.00    -0.327 N 
HETATM   18  H   UNL     1       3.947  25.446  54.128  1.00  0.00     0.169 HD
HETATM   19  O   UNL     1       3.680  27.644  53.375  1.00  0.00    -0.273 OA
BRANCH  17  20
HETATM   20  C   UNL     1       5.888  24.842  53.857  1.00  0.00     0.034 A 
HETATM   21  C   UNL     1       6.475  24.152  52.797  1.00  0.00     0.030 A 
HETATM   22  C   UNL     1       7.533  23.261  53.027  1.00  0.00     0.009 A 
HETATM   23  C   UNL     1       8.019  23.046  54.319  1.00  0.00    -0.062 A 
HETATM   24  C   UNL     1       9.168  22.112  54.568  1.00  0.00     0.048 C 
HETATM   25  C   UNL     1       7.453  23.756  55.378  1.00  0.00     0.009 A 
HETATM   26  C   UNL     1       6.403  24.648  55.146  1.00  0.00     0.030 A 
ENDBRANCH  17  20
ENDBRANCH  15  16
ENDBRANCH   1  15
TORSDOF 3
ENDMDL
MODEL 7
REMARK VINA RESULT:      -8.5      1.608      7.404
REMARK  3 active torsions:
REMARK  status: ('A' for Active; 'I' for Inactive)
REMARK    1  A    between atoms: C_5  and  N_6 
REMARK       I    between atoms: N_6  and  C_7 
REMARK    2  A    between atoms: C_7  and  C_8 
REMARK    3  A    between atoms: C_8  and  C_9 
ROOT
HETATM    1  C   UNL     1       7.942  25.231  54.164  1.00  0.00     0.286 C 
HETATM    2  N   UNL     1       7.821  24.278  55.353  1.00  0.00    -0.056 N 
HETATM    3  H   UNL     1       8.273  24.756  56.159  1.00  0.00     0.278 HD
HETATM    4  H   UNL     1       6.834  24.148  55.609  1.00  0.00     0.278 HD
HETATM    5  C   UNL     1       8.493  22.973  55.055  1.00  0.00     0.209 C 
HETATM    6  C   UNL     1       7.784  22.331  53.839  1.00  0.00     0.115 C 
HETATM    7  N   UNL     1       7.694  23.241  52.699  1.00  0.00    -0.353 N 
HETATM    8  C   UNL     1       7.429  24.588  52.858  1.00  0.00     0.249 C 
HETATM    9  O   UNL     1       6.891  25.225  51.961  1.00  0.00    -0.271 OA
HETATM   10  C   UNL     1       8.439  22.055  56.267  1.00  0.00     0.035 C 
HETATM   11  C   UNL     1       9.104  20.717  55.933  1.00  0.00     0.002 C 
HETATM   12  C   UNL     1       8.510  20.068  54.680  1.00  0.00     0.002 C 
HETATM   13  C   UNL     1       8.478  21.017  53.479  1.00  0.00     0.027 C 
HETATM   14  H   UNL     1       7.311  22.873  51.830  1.00  0.00     0.163 HD
ENDROOT
BRANCH   1  15
HETATM   15  C   UNL     1       7.261  26.572  54.458  1.00  0.00     0.146 C 
BRANCH  15  16
HETATM   16  C   UNL     1       6.371  26.432  55.666  1.00  0.00     0.224 C 
HETATM   17  N   UNL     1       6.590  27.105  56.822  1.00  0.00    -0.327 N 
HETATM   18  H   UNL     1       5.975  26.787  57.566  1.00  0.00     0.169 HD
HETATM   19  O   UNL     1       5.400  25.664  55.597  1.00  0.00    -0.273 OA
BRANCH  17  20
HETATM   20  C   UNL     1       7.492  28.118  57.199  1.00  0.00     0.034 A 
HETATM   21  C   UNL     1       8.869  28.095  56.984  1.00  0.00     0.030 A 
HETATM   22  C   UNL     1       9.671  29.170  57.392  1.00  0.00     0.009 A 
HETATM   23  C   UNL     1       9.109  30.283  58.022  1.00  0.00    -0.062 A 
HETATM   24  C   UNL     1       9.958  31.448  58.439  1.00  0.00     0.048 C 
HETATM   25  C   UNL     1       7.727  30.322  58.213  1.00  0.00     0.009 A 
HETATM   26  C   UNL     1       6.929  29.252  57.799  1.00  0.00     0.030 A 
ENDBRANCH  17  20
ENDBRANCH  15  16
ENDBRANCH   1  15
TORSDOF 3
ENDMDL
MODEL 8
REMARK VINA RESULT:      -8.5      1.644      6.845
REMARK  3 active torsions:
REMARK  status: ('A' for Active; 'I' for Inactive)
REMARK    1  A    between atoms: C_5  and  N_6 
REMARK       I    between atoms: N_6  and  C_7 
REMARK    2  A    between atoms: C_7  and  C_8 
REMARK    3  A    between atoms: C_8  and  C_9 
ROOT
HETATM    1  C   UNL     1       6.138  25.744  56.242  1.00  0.00     0.286 C 
HETATM    2  N   UNL     1       6.377  25.362  54.782  1.00  0.00    -0.056 N 
HETATM    3  H   UNL     1       5.449  25.399  54.313  1.00  0.00     0.278 HD
HETATM    4  H   UNL     1       6.965  26.065  54.317  1.00  0.00     0.278 HD
HETATM    5  C   UNL     1       6.974  23.991  54.685  1.00  0.00     0.209 C 
HETATM    6  C   UNL     1       8.337  24.005  55.416  1.00  0.00     0.115 C 
HETATM    7  N   UNL     1       8.236  24.528  56.777  1.00  0.00    -0.353 N 
HETATM    8  C   UNL     1       7.419  25.597  57.091  1.00  0.00     0.249 C 
HETATM    9  O   UNL     1       7.680  26.319  58.045  1.00  0.00    -0.271 OA
HETATM   10  C   UNL     1       7.138  23.581  53.229  1.00  0.00     0.035 C 
HETATM   11  C   UNL     1       7.777  22.192  53.151  1.00  0.00     0.002 C 
HETATM   12  C   UNL     1       9.089  22.109  53.935  1.00  0.00     0.002 C 
HETATM   13  C   UNL     1       8.951  22.605  55.377  1.00  0.00     0.027 C 
HETATM   14  H   UNL     1       9.073  24.500  57.357  1.00  0.00     0.163 HD
ENDROOT
BRANCH   1  15
HETATM   15  C   UNL     1       5.524  27.144  56.354  1.00  0.00     0.146 C 
BRANCH  15  16
HETATM   16  C   UNL     1       6.044  28.014  55.239  1.00  0.00     0.224 C 
HETATM   17  N   UNL     1       6.889  29.052  55.450  1.00  0.00    -0.327 N 
HETATM   18  H   UNL     1       7.026  29.605  54.608  1.00  0.00     0.169 HD
HETATM   19  O   UNL     1       5.677  27.770  54.080  1.00  0.00    -0.273 OA
BRANCH  17  20
HETATM   20  C   UNL     1       7.585  29.522  56.580  1.00  0.00     0.034 A 
HETATM   21  C   UNL     1       8.950  29.361  56.813  1.00  0.00     0.030 A 
HETATM   22  C   UNL     1       9.541  29.884  57.972  1.00  0.00     0.009 A 
HETATM   23  C   UNL     1       8.777  30.576  58.914  1.00  0.00    -0.062 A 
HETATM   24  C   UNL     1       9.408  31.161  60.144  1.00  0.00     0.048 C 
HETATM   25  C   UNL     1       7.416  30.765  58.670  1.00  0.00     0.009 A 
HETATM   26  C   UNL     1       6.831  30.248  57.511  1.00  0.00     0.030 A 
ENDBRANCH  17  20
ENDBRANCH  15  16
ENDBRANCH   1  15
TORSDOF 3
ENDMDL
MODEL 9
REMARK VINA RESULT:      -8.4      2.595      8.005
REMARK  3 active torsions:
REMARK  status: ('A' for Active; 'I' for Inactive)
REMARK    1  A    between atoms: C_5  and  N_6 
REMARK       I    between atoms: N_6  and  C_7 
REMARK    2  A    between atoms: C_7  and  C_8 
REMARK    3  A    between atoms: C_8  and  C_9 
ROOT
HETATM    1  C   UNL     1       7.065  28.491  56.743  1.00  0.00     0.286 C 
HETATM    2  N   UNL     1       7.566  27.078  56.443  1.00  0.00    -0.056 N 
HETATM    3  H   UNL     1       8.605  27.124  56.464  1.00  0.00     0.278 HD
HETATM    4  H   UNL     1       7.290  26.431  57.192  1.00  0.00     0.278 HD
HETATM    5  C   UNL     1       7.075  26.618  55.104  1.00  0.00     0.209 C 
HETATM    6  C   UNL     1       5.529  26.590  55.140  1.00  0.00     0.115 C 
HETATM    7  N   UNL     1       4.958  27.857  55.591  1.00  0.00    -0.353 N 
HETATM    8  C   UNL     1       5.530  28.596  56.609  1.00  0.00     0.249 C 
HETATM    9  O   UNL     1       4.846  29.345  57.294  1.00  0.00    -0.271 OA
HETATM   10  C   UNL     1       7.639  25.244  54.772  1.00  0.00     0.035 C 
HETATM   11  C   UNL     1       7.103  24.777  53.416  1.00  0.00     0.002 C 
HETATM   12  C   UNL     1       5.574  24.815  53.350  1.00  0.00     0.002 C 
HETATM   13  C   UNL     1       4.995  26.169  53.771  1.00  0.00     0.027 C 
HETATM   14  H   UNL     1       3.944  27.953  55.570  1.00  0.00     0.163 HD
ENDROOT
BRANCH   1  15
HETATM   15  C   UNL     1       7.563  28.975  58.110  1.00  0.00     0.146 C 
BRANCH  15  16
HETATM   16  C   UNL     1       8.954  29.540  57.969  1.00  0.00     0.224 C 
HETATM   17  N   UNL     1       9.438  30.509  58.783  1.00  0.00    -0.327 N 
HETATM   18  H   UNL     1      10.336  30.860  58.459  1.00  0.00     0.169 HD
HETATM   19  O   UNL     1       9.681  29.099  57.067  1.00  0.00    -0.273 OA
BRANCH  17  20
HETATM   20  C   UNL     1       8.952  31.130  59.948  1.00  0.00     0.034 A 
HETATM   21  C   UNL     1       8.127  32.254  59.982  1.00  0.00     0.030 A 
HETATM   22  C   UNL     1       7.693  32.781  61.206  1.00  0.00     0.009 A 
HETATM   23  C   UNL     1       8.076  32.194  62.414  1.00  0.00    -0.062 A 
HETATM   24  C   UNL     1       7.593  32.739  63.727  1.00  0.00     0.048 C 
HETATM   25  C   UNL     1       8.877  31.052  62.384  1.00  0.00     0.009 A 
HETATM   26  C   UNL     1       9.304  30.525  61.162  1.00  0.00     0.030 A 
ENDBRANCH  17  20
ENDBRANCH  15  16
ENDBRANCH   1  15
TORSDOF 3
ENDMDL
MODEL 10
REMARK VINA RESULT:      -8.3      2.073      3.191
REMARK  3 active torsions:
REMARK  status: ('A' for Active; 'I' for Inactive)
REMARK    1  A    between atoms: C_5  and  N_6 
REMARK       I    between atoms: N_6  and  C_7 
REMARK    2  A    between atoms: C_7  and  C_8 
REMARK    3  A    between atoms: C_8  and  C_9 
ROOT
HETATM    1  C   UNL     1       8.460  29.525  56.680  1.00  0.00     0.286 C 
HETATM    2  N   UNL     1       7.507  29.720  57.859  1.00  0.00    -0.056 N 
HETATM    3  H   UNL     1       6.546  29.749  57.458  1.00  0.00     0.278 HD
HETATM    4  H   UNL     1       7.534  28.904  58.483  1.00  0.00     0.278 HD
HETATM    5  C   UNL     1       7.823  30.988  58.590  1.00  0.00     0.209 C 
HETATM    6  C   UNL     1       9.265  30.882  59.140  1.00  0.00     0.115 C 
HETATM    7  N   UNL     1      10.232  30.520  58.107  1.00  0.00    -0.353 N 
HETATM    8  C   UNL     1       9.938  29.599  57.120  1.00  0.00     0.249 C 
HETATM    9  O   UNL     1      10.831  28.954  56.586  1.00  0.00    -0.271 OA
HETATM   10  C   UNL     1       6.824  31.221  59.714  1.00  0.00     0.035 C 
HETATM   11  C   UNL     1       7.182  32.504  60.468  1.00  0.00     0.002 C 
HETATM   12  C   UNL     1       8.631  32.505  60.962  1.00  0.00     0.002 C 
HETATM   13  C   UNL     1       9.636  32.182  59.853  1.00  0.00     0.027 C 
HETATM   14  H   UNL     1      11.217  30.504  58.367  1.00  0.00     0.163 HD
ENDROOT
BRANCH   1  15
HETATM   15  C   UNL     1       8.144  28.231  55.921  1.00  0.00     0.146 C 
BRANCH  15  16
HETATM   16  C   UNL     1       6.827  28.375  55.204  1.00  0.00     0.224 C 
HETATM   17  N   UNL     1       6.369  27.457  54.318  1.00  0.00    -0.327 N 
HETATM   18  H   UNL     1       5.535  27.783  53.834  1.00  0.00     0.169 HD
HETATM   19  O   UNL     1       6.137  29.380  55.432  1.00  0.00    -0.273 OA
BRANCH  17  20
HETATM   20  C   UNL     1       6.814  26.182  53.925  1.00  0.00     0.034 A 
HETATM   21  C   UNL     1       7.579  25.906  52.792  1.00  0.00     0.030 A 
HETATM   22  C   UNL     1       7.978  24.593  52.505  1.00  0.00     0.009 A 
HETATM   23  C   UNL     1       7.618  23.536  53.345  1.00  0.00    -0.062 A 
HETATM   24  C   UNL     1       8.064  22.132  53.057  1.00  0.00     0.048 C 
HETATM   25  C   UNL     1       6.878  23.812  54.495  1.00  0.00     0.009 A 
HETATM   26  C   UNL     1       6.487  25.123  54.782  1.00  0.00     0.030 A 
ENDBRANCH  17  20
ENDBRANCH  15  16
ENDBRANCH   1  15
TORSDOF 3
ENDMDL
