MODEL 1
REMARK VINA RESULT:      -9.6      0.000      0.000
REMARK  6 active torsions:
REMARK  status: ('A' for Active; 'I' for Inactive)
REMARK    1  A    between atoms: C_4  and  C_5 
REMARK    2  A    between atoms: C_5  and  N_6 
REMARK    3  A    between atoms: C_5  and  C_20 
REMARK       I    between atoms: N_6  and  C_7 
REMARK    4  A    between atoms: C_7  and  C_8 
REMARK    5  A    between atoms: C_8  and  N_9 
REMARK    6  A    between atoms: C_21  and  O_22 
ROOT
HETATM    1  C   UNL     1       6.646  29.017  57.112  1.00  0.00     0.154 C 
ENDROOT
BRANCH   1   2
HETATM    2  C   UNL     1       8.118  29.436  57.058  1.00  0.00    -0.031 A 
HETATM    3  C   UNL     1       8.906  29.271  55.906  1.00  0.00     0.009 A 
HETATM    4  C   UNL     1      10.253  29.648  55.900  1.00  0.00     0.001 A 
HETATM    5  C   UNL     1      10.840  30.176  57.046  1.00  0.00     0.000 A 
HETATM    6  C   UNL     1      10.086  30.319  58.206  1.00  0.00     0.001 A 
HETATM    7  C   UNL     1       8.741  29.943  58.215  1.00  0.00     0.009 A 
ENDBRANCH   1   2
BRANCH   1   8
HETATM    8  N   UNL     1       6.384  27.693  56.570  1.00  0.00    -0.347 N 
HETATM    9  C   UNL     1       6.855  26.559  57.191  1.00  0.00     0.236 C 
HETATM   10  O   UNL     1       7.589  26.617  58.181  1.00  0.00    -0.272 OA
HETATM   11  H   UNL     1       5.550  27.593  55.993  1.00  0.00     0.163 HD
BRANCH   9  12
HETATM   12  C   UNL     1       6.247  25.230  56.721  1.00  0.00     0.236 C 
BRANCH  12  13
HETATM   13  N   UNL     1       6.577  24.832  55.371  1.00  0.00    -0.289 N 
HETATM   14  C   UNL     1       5.867  25.238  54.226  1.00  0.00     0.328 A 
HETATM   15  O   UNL     1       5.033  26.126  54.162  1.00  0.00    -0.247 OA
HETATM   16  N   UNL     1       6.302  24.438  53.165  1.00  0.00    -0.306 N 
HETATM   17  C   UNL     1       7.212  23.508  53.651  1.00  0.00     0.063 A 
HETATM   18  H   UNL     1       5.944  24.503  52.226  1.00  0.00     0.171 HD
HETATM   19  C   UNL     1       7.386  23.737  55.018  1.00  0.00     0.066 A 
HETATM   20  C   UNL     1       7.839  22.484  52.978  1.00  0.00     0.032 A 
HETATM   21  C   UNL     1       8.212  22.932  55.774  1.00  0.00     0.032 A 
HETATM   22  C   UNL     1       8.862  21.880  55.113  1.00  0.00     0.002 A 
HETATM   23  C   UNL     1       8.677  21.658  53.732  1.00  0.00     0.002 A 
ENDBRANCH  12  13
ENDBRANCH   9  12
ENDBRANCH   1   8
BRANCH   1  24
HETATM   24  C   UNL     1       5.663  30.023  56.494  1.00  0.00     0.013 A 
HETATM   25  C   UNL     1       5.275  29.847  55.151  1.00  0.00     0.075 A 
HETATM   26  C   UNL     1       4.285  30.625  54.567  1.00  0.00     0.038 A 
HETATM   27  C   UNL     1       3.690  31.644  55.298  1.00  0.00     0.015 A 
HETATM   28  C   UNL     1       4.096  31.916  56.611  1.00  0.00    -0.025 A 
HETATM   29  C   UNL     1       5.099  31.120  57.229  1.00  0.00    -0.015 A 
HETATM   30  C   UNL     1       3.500  32.982  57.306  1.00  0.00     0.012 A 
HETATM   31  C   UNL     1       5.468  31.485  58.548  1.00  0.00     0.013 A 
HETATM   32  C   UNL     1       4.874  32.554  59.224  1.00  0.00     0.001 A 
HETATM   33  C   UNL     1       3.885  33.300  58.605  1.00  0.00     0.001 A 
BRANCH  25  34
HETATM   34  O   UNL     1       5.856  28.917  54.332  1.00  0.00    -0.360 OA
HETATM   35  H   UNL     1       6.575  29.365  53.830  1.00  0.00     0.217 HD
ENDBRANCH  25  34
ENDBRANCH   1  24
TORSDOF 6
ENDMDL
MODEL 2
REMARK VINA RESULT:      -9.4      1.331      4.237
REMARK  6 active torsions:
REMARK  status: ('A' for Active; 'I' for Inactive)
REMARK    1  A    between atoms: C_4  and  C_5 
REMARK    2  A    between atoms: C_5  and  N_6 
REMARK    3  A    between atoms: C_5  and  C_20 
REMARK       I    between atoms: N_6  and  C_7 
REMARK    4  A    between atoms: C_7  and  C_8 
REMARK    5  A    between atoms: C_8  and  N_9 
REMARK    6  A    between atoms: C_21  and  O_22 
ROOT
HETATM    1  C   UNL     1       6.307  29.371  56.243  1.00  0.00     0.154 C 
ENDROOT
BRANCH   1   2
HETATM    2  C   UNL     1       5.374  30.506  56.674  1.00  0.00    -0.031 A 
HETATM    3  C   UNL     1       4.430  30.355  57.706  1.00  0.00     0.009 A 
HETATM    4  C   UNL     1       3.581  31.408  58.060  1.00  0.00     0.001 A 
HETATM    5  C   UNL     1       3.645  32.621  57.380  1.00  0.00     0.000 A 
HETATM    6  C   UNL     1       4.549  32.781  56.335  1.00  0.00     0.001 A 
HETATM    7  C   UNL     1       5.397  31.731  55.979  1.00  0.00     0.009 A 
ENDBRANCH   1   2
BRANCH   1   8
HETATM    8  N   UNL     1       5.912  28.058  56.730  1.00  0.00    -0.347 N 
HETATM    9  C   UNL     1       5.717  27.004  55.867  1.00  0.00     0.236 C 
HETATM   10  O   UNL     1       5.784  27.143  54.643  1.00  0.00    -0.272 OA
HETATM   11  H   UNL     1       6.168  27.832  57.689  1.00  0.00     0.163 HD
BRANCH   9  12
HETATM   12  C   UNL     1       5.629  25.613  56.512  1.00  0.00     0.236 C 
BRANCH  12  13
HETATM   13  N   UNL     1       6.873  24.882  56.598  1.00  0.00    -0.289 N 
HETATM   14  C   UNL     1       7.929  25.208  57.470  1.00  0.00     0.328 A 
HETATM   15  O   UNL     1       7.885  25.987  58.408  1.00  0.00    -0.247 OA
HETATM   16  N   UNL     1       9.041  24.463  57.068  1.00  0.00    -0.306 N 
HETATM   17  C   UNL     1       8.708  23.741  55.929  1.00  0.00     0.063 A 
HETATM   18  H   UNL     1       9.944  24.515  57.510  1.00  0.00     0.171 HD
HETATM   19  C   UNL     1       7.369  23.997  55.623  1.00  0.00     0.066 A 
HETATM   20  C   UNL     1       9.509  22.931  55.156  1.00  0.00     0.032 A 
HETATM   21  C   UNL     1       6.774  23.439  54.511  1.00  0.00     0.032 A 
HETATM   22  C   UNL     1       7.569  22.611  53.707  1.00  0.00     0.002 A 
HETATM   23  C   UNL     1       8.921  22.361  54.025  1.00  0.00     0.002 A 
ENDBRANCH  12  13
ENDBRANCH   9  12
ENDBRANCH   1   8
BRANCH   1  24
HETATM   24  C   UNL     1       7.794  29.602  56.553  1.00  0.00     0.013 A 
HETATM   25  C   UNL     1       8.748  29.250  55.577  1.00  0.00     0.075 A 
HETATM   26  C   UNL     1      10.092  29.560  55.724  1.00  0.00     0.038 A 
HETATM   27  C   UNL     1      10.532  30.184  56.884  1.00  0.00     0.015 A 
HETATM   28  C   UNL     1       9.639  30.482  57.920  1.00  0.00    -0.025 A 
HETATM   29  C   UNL     1       8.256  30.184  57.781  1.00  0.00    -0.015 A 
HETATM   30  C   UNL     1      10.128  31.076  59.096  1.00  0.00     0.012 A 
HETATM   31  C   UNL     1       7.430  30.492  58.891  1.00  0.00     0.013 A 
HETATM   32  C   UNL     1       7.932  31.074  60.059  1.00  0.00     0.001 A 
HETATM   33  C   UNL     1       9.280  31.372  60.160  1.00  0.00     0.001 A 
BRANCH  25  34
HETATM   34  O   UNL     1       8.418  28.569  54.436  1.00  0.00    -0.360 OA
HETATM   35  H   UNL     1       7.470  28.747  54.243  1.00  0.00     0.217 HD
ENDBRANCH  25  34
ENDBRANCH   1  24
TORSDOF 6
ENDMDL
MODEL 3
REMARK VINA RESULT:      -9.2      3.937      6.575
REMARK  6 active torsions:
REMARK  status: ('A' for Active; 'I' for Inactive)
REMARK    1  A    between atoms: C_4  and  C_5 
REMARK    2  A    between atoms: C_5  and  N_6 
REMARK    3  A    between atoms: C_5  and  C_20 
REMARK       I    between atoms: N_6  and  C_7 
REMARK    4  A    between atoms: C_7  and  C_8 
REMARK    5  A    between atoms: C_8  and  N_9 
REMARK    6  A    between atoms: C_21  and  O_22 
ROOT
HETATM    1  C   UNL     1       5.696  26.909  54.163  1.00  0.00     0.154 C 
ENDROOT
BRANCH   1   2
HETATM    2  C   UNL     1       6.569  25.657  54.046  1.00  0.00    -0.031 A 
HETATM    3  C   UNL     1       7.162  25.263  52.833  1.00  0.00     0.009 A 
HETATM    4  C   UNL     1       7.938  24.102  52.759  1.00  0.00     0.001 A 
HETATM    5  C   UNL     1       8.118  23.305  53.886  1.00  0.00     0.000 A 
HETATM    6  C   UNL     1       7.514  23.659  55.088  1.00  0.00     0.001 A 
HETATM    7  C   UNL     1       6.739  24.817  55.164  1.00  0.00     0.009 A 
ENDBRANCH   1   2
BRANCH   1   8
HETATM    8  N   UNL     1       5.592  27.680  52.933  1.00  0.00    -0.347 N 
HETATM    9  C   UNL     1       4.401  28.247  52.542  1.00  0.00     0.236 C 
HETATM   10  O   UNL     1       3.353  28.057  53.167  1.00  0.00    -0.272 OA
HETATM   11  H   UNL     1       6.447  28.119  52.597  1.00  0.00     0.163 HD
BRANCH   9  12
HETATM   12  C   UNL     1       4.487  29.293  51.423  1.00  0.00     0.236 C 
BRANCH  12  13
HETATM   13  N   UNL     1       3.496  29.176  50.376  1.00  0.00    -0.289 N 
HETATM   14  C   UNL     1       2.312  29.934  50.314  1.00  0.00     0.328 A 
HETATM   15  O   UNL     1       2.043  30.922  50.978  1.00  0.00    -0.247 OA
HETATM   16  N   UNL     1       1.498  29.349  49.340  1.00  0.00    -0.306 N 
HETATM   17  C   UNL     1       2.129  28.211  48.854  1.00  0.00     0.063 A 
HETATM   18  H   UNL     1       0.577  29.680  49.101  1.00  0.00     0.171 HD
HETATM   19  C   UNL     1       3.366  28.089  49.493  1.00  0.00     0.066 A 
HETATM   20  C   UNL     1       1.666  27.292  47.940  1.00  0.00     0.032 A 
HETATM   21  C   UNL     1       4.198  27.021  49.232  1.00  0.00     0.032 A 
HETATM   22  C   UNL     1       3.750  26.070  48.306  1.00  0.00     0.002 A 
HETATM   23  C   UNL     1       2.498  26.203  47.668  1.00  0.00     0.002 A 
ENDBRANCH  12  13
ENDBRANCH   9  12
ENDBRANCH   1   8
BRANCH   1  24
HETATM   24  C   UNL     1       6.064  27.849  55.322  1.00  0.00     0.013 A 
HETATM   25  C   UNL     1       5.096  28.109  56.312  1.00  0.00     0.075 A 
HETATM   26  C   UNL     1       5.398  28.828  57.460  1.00  0.00     0.038 A 
HETATM   27  C   UNL     1       6.670  29.359  57.624  1.00  0.00     0.015 A 
HETATM   28  C   UNL     1       7.647  29.201  56.633  1.00  0.00    -0.025 A 
HETATM   29  C   UNL     1       7.358  28.455  55.457  1.00  0.00    -0.015 A 
HETATM   30  C   UNL     1       8.910  29.787  56.816  1.00  0.00     0.012 A 
HETATM   31  C   UNL     1       8.395  28.372  54.494  1.00  0.00     0.013 A 
HETATM   32  C   UNL     1       9.645  28.969  54.684  1.00  0.00     0.001 A 
HETATM   33  C   UNL     1       9.905  29.672  55.849  1.00  0.00     0.001 A 
BRANCH  25  34
HETATM   34  O   UNL     1       3.798  27.688  56.202  1.00  0.00    -0.360 OA
HETATM   35  H   UNL     1       3.703  27.226  55.338  1.00  0.00     0.217 HD
ENDBRANCH  25  34
ENDBRANCH   1  24
TORSDOF 6
ENDMDL
MODEL 4
REMARK VINA RESULT:      -9.1      2.893      5.381
REMARK  6 active torsions:
REMARK  status: ('A' for Active; 'I' for Inactive)
REMARK    1  A    between atoms: C_4  and  C_5 
REMARK    2  A    between atoms: C_5  and  N_6 
REMARK    3  A    between atoms: C_5  and  C_20 
REMARK       I    between atoms: N_6  and  C_7 
REMARK    4  A    between atoms: C_7  and  C_8 
REMARK    5  A    between atoms: C_8  and  N_9 
REMARK    6  A    between atoms: C_21  and  O_22 
ROOT
HETATM    1  C   UNL     1       6.213  27.283  52.546  1.00  0.00     0.154 C 
ENDROOT
BRANCH   1   2
HETATM    2  C   UNL     1       5.566  27.954  51.330  1.00  0.00    -0.031 A 
HETATM    3  C   UNL     1       4.994  27.217  50.279  1.00  0.00     0.009 A 
HETATM    4  C   UNL     1       4.429  27.863  49.175  1.00  0.00     0.001 A 
HETATM    5  C   UNL     1       4.443  29.253  49.092  1.00  0.00     0.000 A 
HETATM    6  C   UNL     1       5.033  30.001  50.107  1.00  0.00     0.001 A 
HETATM    7  C   UNL     1       5.598  29.357  51.209  1.00  0.00     0.009 A 
ENDBRANCH   1   2
BRANCH   1   8
HETATM    8  N   UNL     1       6.017  25.843  52.605  1.00  0.00    -0.347 N 
HETATM    9  C   UNL     1       7.057  24.969  52.382  1.00  0.00     0.236 C 
HETATM   10  O   UNL     1       8.175  25.362  52.039  1.00  0.00    -0.272 OA
HETATM   11  H   UNL     1       5.249  25.511  53.185  1.00  0.00     0.163 HD
BRANCH   9  12
HETATM   12  C   UNL     1       6.811  23.510  52.790  1.00  0.00     0.236 C 
BRANCH  12  13
HETATM   13  N   UNL     1       7.585  23.034  53.915  1.00  0.00    -0.289 N 
HETATM   14  C   UNL     1       7.894  21.682  54.152  1.00  0.00     0.328 A 
HETATM   15  O   UNL     1       7.758  20.755  53.370  1.00  0.00    -0.247 OA
HETATM   16  N   UNL     1       8.399  21.596  55.452  1.00  0.00    -0.306 N 
HETATM   17  C   UNL     1       8.341  22.854  56.039  1.00  0.00     0.063 A 
HETATM   18  H   UNL     1       8.685  20.736  55.891  1.00  0.00     0.171 HD
HETATM   19  C   UNL     1       7.832  23.753  55.098  1.00  0.00     0.066 A 
HETATM   20  C   UNL     1       8.666  23.221  57.325  1.00  0.00     0.032 A 
HETATM   21  C   UNL     1       7.628  25.078  55.420  1.00  0.00     0.032 A 
HETATM   22  C   UNL     1       7.950  25.478  56.724  1.00  0.00     0.002 A 
HETATM   23  C   UNL     1       8.462  24.561  57.666  1.00  0.00     0.002 A 
ENDBRANCH  12  13
ENDBRANCH   9  12
ENDBRANCH   1   8
BRANCH   1  24
HETATM   24  C   UNL     1       5.842  27.903  53.902  1.00  0.00     0.013 A 
HETATM   25  C   UNL     1       4.486  27.918  54.286  1.00  0.00     0.075 A 
HETATM   26  C   UNL     1       4.090  28.327  55.552  1.00  0.00     0.038 A 
HETATM   27  C   UNL     1       5.038  28.788  56.455  1.00  0.00     0.015 A 
HETATM   28  C   UNL     1       6.389  28.870  56.096  1.00  0.00    -0.025 A 
HETATM   29  C   UNL     1       6.815  28.443  54.808  1.00  0.00    -0.015 A 
HETATM   30  C   UNL     1       7.315  29.381  57.022  1.00  0.00     0.012 A 
HETATM   31  C   UNL     1       8.195  28.591  54.520  1.00  0.00     0.013 A 
HETATM   32  C   UNL     1       9.103  29.109  55.447  1.00  0.00     0.001 A 
HETATM   33  C   UNL     1       8.664  29.499  56.701  1.00  0.00     0.001 A 
BRANCH  25  34
HETATM   34  O   UNL     1       3.476  27.552  53.439  1.00  0.00    -0.360 OA
HETATM   35  H   UNL     1       2.792  27.083  53.971  1.00  0.00     0.217 HD
ENDBRANCH  25  34
ENDBRANCH   1  24
TORSDOF 6
ENDMDL
MODEL 5
REMARK VINA RESULT:      -9.1      1.193      2.139
REMARK  6 active torsions:
REMARK  status: ('A' for Active; 'I' for Inactive)
REMARK    1  A    between atoms: C_4  and  C_5 
REMARK    2  A    between atoms: C_5  and  N_6 
REMARK    3  A    between atoms: C_5  and  C_20 
REMARK       I    between atoms: N_6  and  C_7 
REMARK    4  A    between atoms: C_7  and  C_8 
REMARK    5  A    between atoms: C_8  and  N_9 
REMARK    6  A    between atoms: C_21  and  O_22 
ROOT
HETATM    1  C   UNL     1       6.776  29.226  57.476  1.00  0.00     0.154 C 
ENDROOT
BRANCH   1   2
HETATM    2  C   UNL     1       8.264  29.566  57.351  1.00  0.00    -0.031 A 
HETATM    3  C   UNL     1       8.985  30.186  58.387  1.00  0.00     0.009 A 
HETATM    4  C   UNL     1      10.338  30.498  58.230  1.00  0.00     0.001 A 
HETATM    5  C   UNL     1      10.990  30.216  57.033  1.00  0.00     0.000 A 
HETATM    6  C   UNL     1      10.288  29.631  55.984  1.00  0.00     0.001 A 
HETATM    7  C   UNL     1       8.936  29.319  56.138  1.00  0.00     0.009 A 
ENDBRANCH   1   2
BRANCH   1   8
HETATM    8  N   UNL     1       6.415  27.925  56.935  1.00  0.00    -0.347 N 
HETATM    9  C   UNL     1       6.933  26.762  57.459  1.00  0.00     0.236 C 
HETATM   10  O   UNL     1       7.787  26.774  58.350  1.00  0.00    -0.272 OA
HETATM   11  H   UNL     1       5.513  27.860  56.466  1.00  0.00     0.163 HD
BRANCH   9  12
HETATM   12  C   UNL     1       6.238  25.462  57.033  1.00  0.00     0.236 C 
BRANCH  12  13
HETATM   13  N   UNL     1       6.908  24.701  56.003  1.00  0.00    -0.289 N 
HETATM   14  C   UNL     1       8.022  23.869  56.226  1.00  0.00     0.328 A 
HETATM   15  O   UNL     1       8.448  23.496  57.307  1.00  0.00    -0.247 OA
HETATM   16  N   UNL     1       8.547  23.539  54.974  1.00  0.00    -0.306 N 
HETATM   17  C   UNL     1       7.822  24.205  53.994  1.00  0.00     0.063 A 
HETATM   18  H   UNL     1       9.364  22.965  54.838  1.00  0.00     0.171 HD
HETATM   19  C   UNL     1       6.807  24.934  54.619  1.00  0.00     0.066 A 
HETATM   20  C   UNL     1       8.030  24.229  52.634  1.00  0.00     0.032 A 
HETATM   21  C   UNL     1       5.949  25.728  53.889  1.00  0.00     0.032 A 
HETATM   22  C   UNL     1       6.140  25.771  52.501  1.00  0.00     0.002 A 
HETATM   23  C   UNL     1       7.169  25.032  51.881  1.00  0.00     0.002 A 
ENDBRANCH  12  13
ENDBRANCH   9  12
ENDBRANCH   1   8
BRANCH   1  24
HETATM   24  C   UNL     1       5.819  30.291  56.918  1.00  0.00     0.013 A 
HETATM   25  C   UNL     1       5.362  30.158  55.592  1.00  0.00     0.075 A 
HETATM   26  C   UNL     1       4.389  30.995  55.066  1.00  0.00     0.038 A 
HETATM   27  C   UNL     1       3.882  32.031  55.838  1.00  0.00     0.015 A 
HETATM   28  C   UNL     1       4.360  32.259  57.135  1.00  0.00    -0.025 A 
HETATM   29  C   UNL     1       5.348  31.403  57.694  1.00  0.00    -0.015 A 
HETATM   30  C   UNL     1       3.852  33.343  57.872  1.00  0.00     0.012 A 
HETATM   31  C   UNL     1       5.795  31.726  59.000  1.00  0.00     0.013 A 
HETATM   32  C   UNL     1       5.288  32.813  59.718  1.00  0.00     0.001 A 
HETATM   33  C   UNL     1       4.312  33.619  59.156  1.00  0.00     0.001 A 
BRANCH  25  34
HETATM   34  O   UNL     1       5.857  29.213  54.734  1.00  0.00    -0.360 OA
HETATM   35  H   UNL     1       6.756  28.964  55.046  1.00  0.00     0.217 HD
ENDBRANCH  25  34
ENDBRANCH   1  24
TORSDOF 6
ENDMDL
MODEL 6
REMARK VINA RESULT:      -9.1      2.526      4.930
REMARK  6 active torsions:
REMARK  status: ('A' for Active; 'I' for Inactive)
REMARK    1  A    between atoms: C_4  and  C_5 
REMARK    2  A    between atoms: C_5  and  N_6 
REMARK    3  A    between atoms: C_5  and  C_20 
REMARK       I    between atoms: N_6  and  C_7 
REMARK    4  A    between atoms: C_7  and  C_8 
REMARK    5  A    between atoms: C_8  and  N_9 
REMARK    6  A    between atoms: C_21  and  O_22 
ROOT
HETATM    1  C   UNL     1       6.221  27.561  52.751  1.00  0.00     0.154 C 
ENDROOT
BRANCH   1   2
HETATM    2  C   UNL     1       5.630  28.339  51.571  1.00  0.00    -0.031 A 
HETATM    3  C   UNL     1       5.210  27.707  50.387  1.00  0.00     0.009 A 
HETATM    4  C   UNL     1       4.693  28.452  49.323  1.00  0.00     0.001 A 
HETATM    5  C   UNL     1       4.606  29.839  49.413  1.00  0.00     0.000 A 
HETATM    6  C   UNL     1       5.046  30.486  50.563  1.00  0.00     0.001 A 
HETATM    7  C   UNL     1       5.563  29.745  51.626  1.00  0.00     0.009 A 
ENDBRANCH   1   2
BRANCH   1   8
HETATM    8  N   UNL     1       5.964  26.129  52.708  1.00  0.00    -0.347 N 
HETATM    9  C   UNL     1       6.994  25.217  52.686  1.00  0.00     0.236 C 
HETATM   10  O   UNL     1       8.174  25.570  52.614  1.00  0.00    -0.272 OA
HETATM   11  H   UNL     1       5.074  25.815  53.091  1.00  0.00     0.163 HD
BRANCH   9  12
HETATM   12  C   UNL     1       6.610  23.759  52.972  1.00  0.00     0.236 C 
BRANCH  12  13
HETATM   13  N   UNL     1       6.928  23.275  54.296  1.00  0.00    -0.289 N 
HETATM   14  C   UNL     1       6.887  24.062  55.462  1.00  0.00     0.328 A 
HETATM   15  O   UNL     1       6.387  25.169  55.577  1.00  0.00    -0.247 OA
HETATM   16  N   UNL     1       7.520  23.334  56.474  1.00  0.00    -0.306 N 
HETATM   17  C   UNL     1       8.007  22.150  55.935  1.00  0.00     0.063 A 
HETATM   18  H   UNL     1       7.649  23.670  57.414  1.00  0.00     0.171 HD
HETATM   19  C   UNL     1       7.653  22.104  54.585  1.00  0.00     0.066 A 
HETATM   20  C   UNL     1       8.753  21.168  56.547  1.00  0.00     0.032 A 
HETATM   21  C   UNL     1       8.041  21.051  53.784  1.00  0.00     0.032 A 
HETATM   22  C   UNL     1       8.802  20.037  54.381  1.00  0.00     0.002 A 
HETATM   23  C   UNL     1       9.156  20.096  55.746  1.00  0.00     0.002 A 
ENDBRANCH  12  13
ENDBRANCH   9  12
ENDBRANCH   1   8
BRANCH   1  24
HETATM   24  C   UNL     1       5.844  28.104  54.138  1.00  0.00     0.013 A 
HETATM   25  C   UNL     1       4.487  28.101  54.517  1.00  0.00     0.075 A 
HETATM   26  C   UNL     1       4.086  28.439  55.802  1.00  0.00     0.038 A 
HETATM   27  C   UNL     1       5.031  28.845  56.734  1.00  0.00     0.015 A 
HETATM   28  C   UNL     1       6.384  28.944  56.386  1.00  0.00    -0.025 A 
HETATM   29  C   UNL     1       6.815  28.589  55.078  1.00  0.00    -0.015 A 
HETATM   30  C   UNL     1       7.306  29.398  57.344  1.00  0.00     0.012 A 
HETATM   31  C   UNL     1       8.196  28.749  54.805  1.00  0.00     0.013 A 
HETATM   32  C   UNL     1       9.101  29.211  55.765  1.00  0.00     0.001 A 
HETATM   33  C   UNL     1       8.657  29.530  57.037  1.00  0.00     0.001 A 
BRANCH  25  34
HETATM   34  O   UNL     1       3.480  27.786  53.645  1.00  0.00    -0.360 OA
HETATM   35  H   UNL     1       3.009  28.620  53.415  1.00  0.00     0.217 HD
ENDBRANCH  25  34
ENDBRANCH   1  24
TORSDOF 6
ENDMDL
MODEL 7
REMARK VINA RESULT:      -8.9      5.585      9.343
REMARK  6 active torsions:
REMARK  status: ('A' for Active; 'I' for Inactive)
REMARK    1  A    between atoms: C_4  and  C_5 
REMARK    2  A    between atoms: C_5  and  N_6 
REMARK    3  A    between atoms: C_5  and  C_20 
REMARK       I    between atoms: N_6  and  C_7 
REMARK    4  A    between atoms: C_7  and  C_8 
REMARK    5  A    between atoms: C_8  and  N_9 
REMARK    6  A    between atoms: C_21  and  O_22 
ROOT
HETATM    1  C   UNL     1       5.178  33.382  64.014  1.00  0.00     0.154 C 
ENDROOT
BRANCH   1   2
HETATM    2  C   UNL     1       5.481  33.810  65.453  1.00  0.00    -0.031 A 
HETATM    3  C   UNL     1       6.792  33.885  65.957  1.00  0.00     0.009 A 
HETATM    4  C   UNL     1       7.029  34.262  67.282  1.00  0.00     0.001 A 
HETATM    5  C   UNL     1       5.965  34.550  68.132  1.00  0.00     0.000 A 
HETATM    6  C   UNL     1       4.659  34.452  67.663  1.00  0.00     0.001 A 
HETATM    7  C   UNL     1       4.420  34.075  66.340  1.00  0.00     0.009 A 
ENDBRANCH   1   2
BRANCH   1   8
HETATM    8  N   UNL     1       6.362  33.100  63.216  1.00  0.00    -0.347 N 
HETATM    9  C   UNL     1       6.587  31.850  62.686  1.00  0.00     0.236 C 
HETATM   10  O   UNL     1       5.845  30.896  62.933  1.00  0.00    -0.272 OA
HETATM   11  H   UNL     1       6.786  33.891  62.734  1.00  0.00     0.163 HD
BRANCH   9  12
HETATM   12  C   UNL     1       7.675  31.761  61.607  1.00  0.00     0.236 C 
BRANCH  12  13
HETATM   13  N   UNL     1       7.215  31.424  60.278  1.00  0.00    -0.289 N 
HETATM   14  C   UNL     1       7.912  30.591  59.383  1.00  0.00     0.328 A 
HETATM   15  O   UNL     1       8.862  29.871  59.646  1.00  0.00    -0.247 OA
HETATM   16  N   UNL     1       7.306  30.732  58.132  1.00  0.00    -0.306 N 
HETATM   17  C   UNL     1       6.299  31.683  58.227  1.00  0.00     0.063 A 
HETATM   18  H   UNL     1       7.617  30.259  57.298  1.00  0.00     0.171 HD
HETATM   19  C   UNL     1       6.236  32.125  59.550  1.00  0.00     0.066 A 
HETATM   20  C   UNL     1       5.492  32.187  57.231  1.00  0.00     0.032 A 
HETATM   21  C   UNL     1       5.346  33.107  59.931  1.00  0.00     0.032 A 
HETATM   22  C   UNL     1       4.514  33.638  58.936  1.00  0.00     0.002 A 
HETATM   23  C   UNL     1       4.587  33.184  57.602  1.00  0.00     0.002 A 
ENDBRANCH  12  13
ENDBRANCH   9  12
ENDBRANCH   1   8
BRANCH   1  24
HETATM   24  C   UNL     1       4.255  34.332  63.236  1.00  0.00     0.013 A 
HETATM   25  C   UNL     1       3.063  33.816  62.691  1.00  0.00     0.075 A 
HETATM   26  C   UNL     1       2.112  34.637  62.102  1.00  0.00     0.038 A 
HETATM   27  C   UNL     1       2.353  36.000  61.992  1.00  0.00     0.015 A 
HETATM   28  C   UNL     1       3.558  36.554  62.444  1.00  0.00    -0.025 A 
HETATM   29  C   UNL     1       4.537  35.729  63.061  1.00  0.00    -0.015 A 
HETATM   30  C   UNL     1       3.784  37.931  62.278  1.00  0.00     0.012 A 
HETATM   31  C   UNL     1       5.738  36.367  63.460  1.00  0.00     0.013 A 
HETATM   32  C   UNL     1       5.954  37.737  63.280  1.00  0.00     0.001 A 
HETATM   33  C   UNL     1       4.974  38.520  62.694  1.00  0.00     0.001 A 
BRANCH  25  34
HETATM   34  O   UNL     1       2.772  32.478  62.688  1.00  0.00    -0.360 OA
HETATM   35  H   UNL     1       1.892  32.360  63.114  1.00  0.00     0.217 HD
ENDBRANCH  25  34
ENDBRANCH   1  24
TORSDOF 6
ENDMDL
MODEL 8
REMARK VINA RESULT:      -8.9      2.205      8.405
REMARK  6 active torsions:
REMARK  status: ('A' for Active; 'I' for Inactive)
REMARK    1  A    between atoms: C_4  and  C_5 
REMARK    2  A    between atoms: C_5  and  N_6 
REMARK    3  A    between atoms: C_5  and  C_20 
REMARK       I    between atoms: N_6  and  C_7 
REMARK    4  A    between atoms: C_7  and  C_8 
REMARK    5  A    between atoms: C_8  and  N_9 
REMARK    6  A    between atoms: C_21  and  O_22 
ROOT
HETATM    1  C   UNL     1       6.560  26.400  55.374  1.00  0.00     0.154 C 
ENDROOT
BRANCH   1   2
HETATM    2  C   UNL     1       6.044  26.151  53.954  1.00  0.00    -0.031 A 
HETATM    3  C   UNL     1       6.496  26.891  52.848  1.00  0.00     0.009 A 
HETATM    4  C   UNL     1       5.989  26.649  51.568  1.00  0.00     0.001 A 
HETATM    5  C   UNL     1       5.009  25.680  51.373  1.00  0.00     0.000 A 
HETATM    6  C   UNL     1       4.524  24.957  52.459  1.00  0.00     0.001 A 
HETATM    7  C   UNL     1       5.029  25.198  53.737  1.00  0.00     0.009 A 
ENDBRANCH   1   2
BRANCH   1   8
HETATM    8  N   UNL     1       7.154  27.713  55.570  1.00  0.00    -0.347 N 
HETATM    9  C   UNL     1       6.594  28.632  56.428  1.00  0.00     0.236 C 
HETATM   10  O   UNL     1       5.522  28.418  57.002  1.00  0.00    -0.272 OA
HETATM   11  H   UNL     1       8.154  27.792  55.396  1.00  0.00     0.163 HD
BRANCH   9  12
HETATM   12  C   UNL     1       7.474  29.833  56.798  1.00  0.00     0.236 C 
BRANCH  12  13
HETATM   13  N   UNL     1       6.977  30.671  57.867  1.00  0.00    -0.289 N 
HETATM   14  C   UNL     1       5.980  31.652  57.709  1.00  0.00     0.328 A 
HETATM   15  O   UNL     1       5.248  31.800  56.744  1.00  0.00    -0.247 OA
HETATM   16  N   UNL     1       5.975  32.425  58.874  1.00  0.00    -0.306 N 
HETATM   17  C   UNL     1       6.991  31.981  59.710  1.00  0.00     0.063 A 
HETATM   18  H   UNL     1       5.367  33.214  59.024  1.00  0.00     0.171 HD
HETATM   19  C   UNL     1       7.625  30.899  59.094  1.00  0.00     0.066 A 
HETATM   20  C   UNL     1       7.395  32.492  60.923  1.00  0.00     0.032 A 
HETATM   21  C   UNL     1       8.705  30.278  59.684  1.00  0.00     0.032 A 
HETATM   22  C   UNL     1       9.136  30.779  60.920  1.00  0.00     0.002 A 
HETATM   23  C   UNL     1       8.490  31.875  61.531  1.00  0.00     0.002 A 
ENDBRANCH  12  13
ENDBRANCH   9  12
ENDBRANCH   1   8
BRANCH   1  24
HETATM   24  C   UNL     1       7.515  25.325  55.915  1.00  0.00     0.013 A 
HETATM   25  C   UNL     1       7.926  25.403  57.260  1.00  0.00     0.075 A 
HETATM   26  C   UNL     1       8.668  24.395  57.858  1.00  0.00     0.038 A 
HETATM   27  C   UNL     1       9.071  23.299  57.108  1.00  0.00     0.015 A 
HETATM   28  C   UNL     1       8.759  23.209  55.745  1.00  0.00    -0.025 A 
HETATM   29  C   UNL     1       7.988  24.227  55.119  1.00  0.00    -0.015 A 
HETATM   30  C   UNL     1       9.219  22.105  55.008  1.00  0.00     0.012 A 
HETATM   31  C   UNL     1       7.746  24.070  53.732  1.00  0.00     0.013 A 
HETATM   32  C   UNL     1       8.218  22.971  53.008  1.00  0.00     0.001 A 
HETATM   33  C   UNL     1       8.950  21.985  53.648  1.00  0.00     0.001 A 
BRANCH  25  34
HETATM   34  O   UNL     1       7.639  26.479  58.057  1.00  0.00    -0.360 OA
HETATM   35  H   UNL     1       8.190  27.235  57.752  1.00  0.00     0.217 HD
ENDBRANCH  25  34
ENDBRANCH   1  24
TORSDOF 6
ENDMDL
MODEL 9
REMARK VINA RESULT:      -8.7      1.884      7.400
REMARK  6 active torsions:
REMARK  status: ('A' for Active; 'I' for Inactive)
REMARK    1  A    between atoms: C_4  and  C_5 
REMARK    2  A    between atoms: C_5  and  N_6 
REMARK    3  A    between atoms: C_5  and  C_20 
REMARK       I    between atoms: N_6  and  C_7 
REMARK    4  A    between atoms: C_7  and  C_8 
REMARK    5  A    between atoms: C_8  and  N_9 
REMARK    6  A    between atoms: C_21  and  O_22 
ROOT
HETATM    1  C   UNL     1       7.516  28.341  55.650  1.00  0.00     0.154 C 
ENDROOT
BRANCH   1   2
HETATM    2  C   UNL     1       8.639  29.094  56.368  1.00  0.00    -0.031 A 
HETATM    3  C   UNL     1       9.995  28.917  56.039  1.00  0.00     0.009 A 
HETATM    4  C   UNL     1      10.996  29.608  56.729  1.00  0.00     0.001 A 
HETATM    5  C   UNL     1      10.664  30.470  57.770  1.00  0.00     0.000 A 
HETATM    6  C   UNL     1       9.331  30.636  58.133  1.00  0.00     0.001 A 
HETATM    7  C   UNL     1       8.330  29.947  57.446  1.00  0.00     0.009 A 
ENDBRANCH   1   2
BRANCH   1   8
HETATM    8  N   UNL     1       6.180  28.822  55.968  1.00  0.00    -0.347 N 
HETATM    9  C   UNL     1       5.238  29.023  54.985  1.00  0.00     0.236 C 
HETATM   10  O   UNL     1       5.507  28.887  53.788  1.00  0.00    -0.272 OA
HETATM   11  H   UNL     1       5.836  28.626  56.906  1.00  0.00     0.163 HD
BRANCH   9  12
HETATM   12  C   UNL     1       3.792  29.209  55.464  1.00  0.00     0.236 C 
BRANCH  12  13
HETATM   13  N   UNL     1       3.374  30.576  55.681  1.00  0.00    -0.289 N 
HETATM   14  C   UNL     1       3.111  31.500  54.652  1.00  0.00     0.328 A 
HETATM   15  O   UNL     1       2.983  31.251  53.464  1.00  0.00    -0.247 OA
HETATM   16  N   UNL     1       3.014  32.762  55.246  1.00  0.00    -0.306 N 
HETATM   17  C   UNL     1       3.279  32.639  56.604  1.00  0.00     0.063 A 
HETATM   18  H   UNL     1       2.847  33.614  54.735  1.00  0.00     0.171 HD
HETATM   19  C   UNL     1       3.510  31.291  56.885  1.00  0.00     0.066 A 
HETATM   20  C   UNL     1       3.362  33.627  57.558  1.00  0.00     0.032 A 
HETATM   21  C   UNL     1       3.838  30.876  58.159  1.00  0.00     0.032 A 
HETATM   22  C   UNL     1       3.931  31.863  59.150  1.00  0.00     0.002 A 
HETATM   23  C   UNL     1       3.696  33.222  58.853  1.00  0.00     0.002 A 
ENDBRANCH  12  13
ENDBRANCH   9  12
ENDBRANCH   1   8
BRANCH   1  24
HETATM   24  C   UNL     1       7.556  26.814  55.806  1.00  0.00     0.013 A 
HETATM   25  C   UNL     1       7.517  26.268  57.105  1.00  0.00     0.075 A 
HETATM   26  C   UNL     1       7.405  24.902  57.321  1.00  0.00     0.038 A 
HETATM   27  C   UNL     1       7.384  24.033  56.239  1.00  0.00     0.015 A 
HETATM   28  C   UNL     1       7.502  24.516  54.929  1.00  0.00    -0.025 A 
HETATM   29  C   UNL     1       7.605  25.914  54.689  1.00  0.00    -0.015 A 
HETATM   30  C   UNL     1       7.518  23.603  53.861  1.00  0.00     0.012 A 
HETATM   31  C   UNL     1       7.750  26.311  53.336  1.00  0.00     0.013 A 
HETATM   32  C   UNL     1       7.775  25.391  52.283  1.00  0.00     0.001 A 
HETATM   33  C   UNL     1       7.653  24.037  52.545  1.00  0.00     0.001 A 
BRANCH  25  34
HETATM   34  O   UNL     1       7.606  27.040  58.231  1.00  0.00    -0.360 OA
HETATM   35  H   UNL     1       7.854  27.951  57.953  1.00  0.00     0.217 HD
ENDBRANCH  25  34
ENDBRANCH   1  24
TORSDOF 6
ENDMDL
MODEL 10
REMARK VINA RESULT:      -8.7      4.070      6.942
REMARK  6 active torsions:
REMARK  status: ('A' for Active; 'I' for Inactive)
REMARK    1  A    between atoms: C_4  and  C_5 
REMARK    2  A    between atoms: C_5  and  N_6 
REMARK    3  A    between atoms: C_5  and  C_20 
REMARK       I    between atoms: N_6  and  C_7 
REMARK    4  A    between atoms: C_7  and  C_8 
REMARK    5  A    between atoms: C_8  and  N_9 
REMARK    6  A    between atoms: C_21  and  O_22 
ROOT
HETATM    1  C   UNL     1       4.600  27.375  50.669  1.00  0.00     0.154 C 
ENDROOT
BRANCH   1   2
HETATM    2  C   UNL     1       3.793  27.116  49.394  1.00  0.00    -0.031 A 
HETATM    3  C   UNL     1       2.634  27.845  49.074  1.00  0.00     0.009 A 
HETATM    4  C   UNL     1       1.912  27.567  47.910  1.00  0.00     0.001 A 
HETATM    5  C   UNL     1       2.321  26.545  47.056  1.00  0.00     0.000 A 
HETATM    6  C   UNL     1       3.447  25.790  47.370  1.00  0.00     0.001 A 
HETATM    7  C   UNL     1       4.169  26.066  48.533  1.00  0.00     0.009 A 
ENDBRANCH   1   2
BRANCH   1   8
HETATM    8  N   UNL     1       4.511  26.311  51.657  1.00  0.00    -0.347 N 
HETATM    9  C   UNL     1       5.619  25.588  52.034  1.00  0.00     0.236 C 
HETATM   10  O   UNL     1       6.716  25.750  51.491  1.00  0.00    -0.272 OA
HETATM   11  H   UNL     1       3.750  26.378  52.331  1.00  0.00     0.163 HD
BRANCH   9  12
HETATM   12  C   UNL     1       5.470  24.734  53.300  1.00  0.00     0.236 C 
BRANCH  12  13
HETATM   13  N   UNL     1       6.695  24.450  54.014  1.00  0.00    -0.289 N 
HETATM   14  C   UNL     1       7.522  23.340  53.762  1.00  0.00     0.328 A 
HETATM   15  O   UNL     1       7.466  22.591  52.800  1.00  0.00    -0.247 OA
HETATM   16  N   UNL     1       8.434  23.257  54.818  1.00  0.00    -0.306 N 
HETATM   17  C   UNL     1       8.138  24.250  55.743  1.00  0.00     0.063 A 
HETATM   18  H   UNL     1       9.136  22.540  54.903  1.00  0.00     0.171 HD
HETATM   19  C   UNL     1       7.058  24.992  55.260  1.00  0.00     0.066 A 
HETATM   20  C   UNL     1       8.728  24.496  56.962  1.00  0.00     0.032 A 
HETATM   21  C   UNL     1       6.520  26.027  55.995  1.00  0.00     0.032 A 
HETATM   22  C   UNL     1       7.102  26.298  57.241  1.00  0.00     0.002 A 
HETATM   23  C   UNL     1       8.192  25.541  57.720  1.00  0.00     0.002 A 
ENDBRANCH  12  13
ENDBRANCH   9  12
ENDBRANCH   1   8
BRANCH   1  24
HETATM   24  C   UNL     1       4.321  28.725  51.349  1.00  0.00     0.013 A 
HETATM   25  C   UNL     1       3.544  28.739  52.524  1.00  0.00     0.075 A 
HETATM   26  C   UNL     1       3.370  29.895  53.272  1.00  0.00     0.038 A 
HETATM   27  C   UNL     1       3.926  31.089  52.833  1.00  0.00     0.015 A 
HETATM   28  C   UNL     1       4.640  31.148  51.630  1.00  0.00    -0.025 A 
HETATM   29  C   UNL     1       4.839  29.970  50.857  1.00  0.00    -0.015 A 
HETATM   30  C   UNL     1       5.153  32.382  51.197  1.00  0.00     0.012 A 
HETATM   31  C   UNL     1       5.546  30.128  49.639  1.00  0.00     0.013 A 
HETATM   32  C   UNL     1       6.043  31.364  49.216  1.00  0.00     0.001 A 
HETATM   33  C   UNL     1       5.852  32.491  49.998  1.00  0.00     0.001 A 
BRANCH  25  34
HETATM   34  O   UNL     1       2.897  27.627  52.993  1.00  0.00    -0.360 OA
HETATM   35  H   UNL     1       3.561  26.904  53.072  1.00  0.00     0.217 HD
ENDBRANCH  25  34
ENDBRANCH   1  24
TORSDOF 6
ENDMDL
