MODEL 1
REMARK VINA RESULT:     -10.4      0.000      0.000
REMARK  7 active torsions:
REMARK  status: ('A' for Active; 'I' for Inactive)
REMARK    1  A    between atoms: C_2  and  C_3 
REMARK    2  A    between atoms: N_4  and  C_5 
REMARK    3  A    between atoms: C_13  and  C_14 
REMARK       I    between atoms: C_14  and  N_15 
REMARK    4  A    between atoms: N_15  and  N_16 
REMARK       I    between atoms: N_16  and  C_17 
REMARK    5  A    between atoms: C_17  and  C_18 
REMARK    6  A    between atoms: C_22  and  C_23 
REMARK    7  A    between atoms: C_26  and  O_27 
ROOT
HETATM    1  N   UNL     1       7.975  28.614  58.318  1.00  0.00    -0.262 N 
HETATM    2  C   UNL     1       8.906  29.622  58.203  1.00  0.00     0.288 C 
HETATM    3  O   UNL     1       9.810  29.582  57.371  1.00  0.00    -0.264 OA
HETATM    4  H   UNL     1       7.163  28.666  58.929  1.00  0.00     0.190 HD
ENDROOT
BRANCH   1   5
HETATM    5  N   UNL     1       8.016  27.522  57.441  1.00  0.00    -0.263 N 
HETATM    6  C   UNL     1       6.814  27.026  56.984  1.00  0.00     0.273 C 
HETATM    7  O   UNL     1       5.748  27.519  57.362  1.00  0.00    -0.266 OA
HETATM    8  H   UNL     1       8.913  27.308  57.020  1.00  0.00     0.190 HD
BRANCH   6   9
HETATM    9  C   UNL     1       6.850  25.927  56.032  1.00  0.00     0.077 A 
HETATM   10  C   UNL     1       7.741  24.864  55.839  1.00  0.00     0.053 A 
HETATM   11  N   UNL     1       7.179  24.060  54.825  1.00  0.00    -0.237 N 
HETATM   12  N   UNL     1       6.019  24.610  54.372  1.00  0.00    -0.178 NA
HETATM   13  C   UNL     1       5.827  25.699  55.098  1.00  0.00     0.158 A 
BRANCH  10  14
HETATM   14  C   UNL     1       8.972  24.527  56.622  1.00  0.00     0.056 C 
HETATM   15  C   UNL     1       8.644  23.837  57.941  1.00  0.00     0.011 C 
ENDBRANCH  10  14
BRANCH  11  16
HETATM   16  C   UNL     1       7.576  22.808  54.238  1.00  0.00     0.058 A 
HETATM   17  C   UNL     1       7.912  22.638  52.893  1.00  0.00     0.031 A 
HETATM   18  C   UNL     1       8.310  21.386  52.405  1.00  0.00     0.002 A 
HETATM   19  C   UNL     1       8.375  20.283  53.249  1.00  0.00     0.000 A 
HETATM   20  C   UNL     1       8.030  20.424  54.586  1.00  0.00     0.002 A 
HETATM   21  C   UNL     1       7.630  21.672  55.076  1.00  0.00     0.031 A 
ENDBRANCH  11  16
ENDBRANCH   6   9
ENDBRANCH   1   5
BRANCH   2  22
HETATM   22  C   UNL     1       8.729  30.715  59.119  1.00  0.00     0.121 A 
HETATM   23  N   UNL     1       9.372  31.912  58.965  1.00  0.00    -0.272 N 
HETATM   24  H   UNL     1      10.023  32.165  58.228  1.00  0.00     0.189 HD
HETATM   25  N   UNL     1       9.071  32.823  59.903  1.00  0.00    -0.174 NA
HETATM   26  C   UNL     1       8.216  32.195  60.726  1.00  0.00     0.089 A 
HETATM   27  C   UNL     1       7.975  30.871  60.265  1.00  0.00     0.071 A 
BRANCH  26  28
HETATM   28  C   UNL     1       7.641  32.853  61.904  1.00  0.00    -0.005 A 
HETATM   29  C   UNL     1       6.571  33.745  61.771  1.00  0.00     0.016 A 
HETATM   30  C   UNL     1       6.002  34.346  62.898  1.00  0.00     0.037 A 
HETATM   31  C   UNL     1       6.489  34.071  64.177  1.00  0.00     0.068 A 
HETATM   32  C   UNL     1       7.565  33.197  64.319  1.00  0.00     0.037 A 
HETATM   33  C   UNL     1       8.136  32.592  63.190  1.00  0.00     0.016 A 
BRANCH  31  34
HETATM   34  O   UNL     1       5.838  34.715  65.192  1.00  0.00    -0.356 OA
HETATM   35  C   UNL     1       4.995  33.923  66.020  1.00  0.00     0.210 C 
ENDBRANCH  31  34
ENDBRANCH  26  28
ENDBRANCH   2  22
TORSDOF 7
ENDMDL
MODEL 2
REMARK VINA RESULT:     -10.1      1.916      2.898
REMARK  7 active torsions:
REMARK  status: ('A' for Active; 'I' for Inactive)
REMARK    1  A    between atoms: C_2  and  C_3 
REMARK    2  A    between atoms: N_4  and  C_5 
REMARK    3  A    between atoms: C_13  and  C_14 
REMARK       I    between atoms: C_14  and  N_15 
REMARK    4  A    between atoms: N_15  and  N_16 
REMARK       I    between atoms: N_16  and  C_17 
REMARK    5  A    between atoms: C_17  and  C_18 
REMARK    6  A    between atoms: C_22  and  C_23 
REMARK    7  A    between atoms: C_26  and  O_27 
ROOT
HETATM    1  N   UNL     1       7.202  30.487  59.246  1.00  0.00    -0.262 N 
HETATM    2  C   UNL     1       8.013  30.737  60.331  1.00  0.00     0.288 C 
HETATM    3  O   UNL     1       9.097  30.177  60.477  1.00  0.00    -0.264 OA
HETATM    4  H   UNL     1       6.349  31.006  59.051  1.00  0.00     0.190 HD
ENDROOT
BRANCH   1   5
HETATM    5  N   UNL     1       7.628  29.605  58.244  1.00  0.00    -0.263 N 
HETATM    6  C   UNL     1       6.659  28.934  57.530  1.00  0.00     0.273 C 
HETATM    7  O   UNL     1       5.464  29.096  57.791  1.00  0.00    -0.266 OA
HETATM    8  H   UNL     1       8.596  29.680  57.952  1.00  0.00     0.190 HD
BRANCH   6   9
HETATM    9  C   UNL     1       7.092  28.058  56.453  1.00  0.00     0.077 A 
HETATM   10  C   UNL     1       7.103  26.665  56.307  1.00  0.00     0.053 A 
HETATM   11  N   UNL     1       7.539  26.413  54.989  1.00  0.00    -0.237 N 
HETATM   12  N   UNL     1       7.827  27.582  54.353  1.00  0.00    -0.178 NA
HETATM   13  C   UNL     1       7.547  28.543  55.218  1.00  0.00     0.158 A 
BRANCH  10  14
HETATM   14  C   UNL     1       6.623  25.623  57.269  1.00  0.00     0.056 C 
HETATM   15  C   UNL     1       5.133  25.342  57.117  1.00  0.00     0.011 C 
ENDBRANCH  10  14
BRANCH  11  16
HETATM   16  C   UNL     1       7.690  25.203  54.224  1.00  0.00     0.058 A 
HETATM   17  C   UNL     1       8.015  23.960  54.772  1.00  0.00     0.031 A 
HETATM   18  C   UNL     1       8.123  22.823  53.959  1.00  0.00     0.002 A 
HETATM   19  C   UNL     1       7.913  22.909  52.587  1.00  0.00     0.000 A 
HETATM   20  C   UNL     1       7.605  24.138  52.018  1.00  0.00     0.002 A 
HETATM   21  C   UNL     1       7.500  25.274  52.827  1.00  0.00     0.031 A 
ENDBRANCH  11  16
ENDBRANCH   6   9
ENDBRANCH   1   5
BRANCH   2  22
HETATM   22  C   UNL     1       7.495  31.702  61.262  1.00  0.00     0.121 A 
HETATM   23  N   UNL     1       7.131  32.963  60.883  1.00  0.00    -0.272 N 
HETATM   24  H   UNL     1       7.181  33.359  59.949  1.00  0.00     0.189 HD
HETATM   25  N   UNL     1       6.650  33.720  61.881  1.00  0.00    -0.174 NA
HETATM   26  C   UNL     1       6.724  32.937  62.969  1.00  0.00     0.089 A 
HETATM   27  C   UNL     1       7.247  31.661  62.620  1.00  0.00     0.071 A 
BRANCH  26  28
HETATM   28  C   UNL     1       6.292  33.397  64.293  1.00  0.00    -0.005 A 
HETATM   29  C   UNL     1       4.931  33.515  64.598  1.00  0.00     0.016 A 
HETATM   30  C   UNL     1       4.520  33.921  65.872  1.00  0.00     0.037 A 
HETATM   31  C   UNL     1       5.456  34.219  66.863  1.00  0.00     0.068 A 
HETATM   32  C   UNL     1       6.814  34.122  66.564  1.00  0.00     0.037 A 
HETATM   33  C   UNL     1       7.229  33.712  65.288  1.00  0.00     0.016 A 
BRANCH  31  34
HETATM   34  O   UNL     1       4.924  34.594  68.065  1.00  0.00    -0.356 OA
HETATM   35  C   UNL     1       5.774  34.503  69.201  1.00  0.00     0.210 C 
ENDBRANCH  31  34
ENDBRANCH  26  28
ENDBRANCH   2  22
TORSDOF 7
ENDMDL
MODEL 3
REMARK VINA RESULT:      -9.7      2.444     12.092
REMARK  7 active torsions:
REMARK  status: ('A' for Active; 'I' for Inactive)
REMARK    1  A    between atoms: C_2  and  C_3 
REMARK    2  A    between atoms: N_4  and  C_5 
REMARK    3  A    between atoms: C_13  and  C_14 
REMARK       I    between atoms: C_14  and  N_15 
REMARK    4  A    between atoms: N_15  and  N_16 
REMARK       I    between atoms: N_16  and  C_17 
REMARK    5  A    between atoms: C_17  and  C_18 
REMARK    6  A    between atoms: C_22  and  C_23 
REMARK    7  A    between atoms: C_26  and  O_27 
ROOT
HETATM    1  N   UNL     1       7.254  29.976  58.474  1.00  0.00    -0.262 N 
HETATM    2  C   UNL     1       6.261  29.600  57.598  1.00  0.00     0.288 C 
HETATM    3  O   UNL     1       5.106  30.007  57.709  1.00  0.00    -0.264 OA
HETATM    4  H   UNL     1       8.234  29.733  58.350  1.00  0.00     0.190 HD
ENDROOT
BRANCH   1   5
HETATM    5  N   UNL     1       6.971  30.884  59.504  1.00  0.00    -0.263 N 
HETATM    6  C   UNL     1       7.859  30.952  60.555  1.00  0.00     0.273 C 
HETATM    7  O   UNL     1       8.849  30.218  60.589  1.00  0.00    -0.266 OA
HETATM    8  H   UNL     1       6.266  31.586  59.310  1.00  0.00     0.190 HD
BRANCH   6   9
HETATM    9  C   UNL     1       7.599  31.930  61.601  1.00  0.00     0.077 A 
HETATM   10  C   UNL     1       6.555  32.838  61.816  1.00  0.00     0.053 A 
HETATM   11  N   UNL     1       6.810  33.439  63.067  1.00  0.00    -0.237 N 
HETATM   12  N   UNL     1       7.974  32.967  63.591  1.00  0.00    -0.178 NA
HETATM   13  C   UNL     1       8.422  32.070  62.729  1.00  0.00     0.158 A 
BRANCH  10  14
HETATM   14  C   UNL     1       5.326  33.057  60.990  1.00  0.00     0.056 C 
HETATM   15  C   UNL     1       4.115  32.322  61.555  1.00  0.00     0.011 C 
ENDBRANCH  10  14
BRANCH  11  16
HETATM   16  C   UNL     1       6.076  34.388  63.862  1.00  0.00     0.058 A 
HETATM   17  C   UNL     1       5.844  35.715  63.491  1.00  0.00     0.031 A 
HETATM   18  C   UNL     1       5.099  36.570  64.315  1.00  0.00     0.002 A 
HETATM   19  C   UNL     1       4.580  36.118  65.524  1.00  0.00     0.000 A 
HETATM   20  C   UNL     1       4.812  34.807  65.920  1.00  0.00     0.002 A 
HETATM   21  C   UNL     1       5.557  33.953  65.101  1.00  0.00     0.031 A 
ENDBRANCH  11  16
ENDBRANCH   6   9
ENDBRANCH   1   5
BRANCH   2  22
HETATM   22  C   UNL     1       6.683  28.711  56.551  1.00  0.00     0.121 A 
HETATM   23  N   UNL     1       7.319  29.155  55.425  1.00  0.00    -0.272 N 
HETATM   24  H   UNL     1       7.556  30.115  55.195  1.00  0.00     0.189 HD
HETATM   25  N   UNL     1       7.658  28.182  54.565  1.00  0.00    -0.174 NA
HETATM   26  C   UNL     1       7.205  27.052  55.132  1.00  0.00     0.089 A 
HETATM   27  C   UNL     1       6.590  27.344  56.381  1.00  0.00     0.071 A 
BRANCH  26  28
HETATM   28  C   UNL     1       7.373  25.740  54.501  1.00  0.00    -0.005 A 
HETATM   29  C   UNL     1       7.747  25.638  53.156  1.00  0.00     0.016 A 
HETATM   30  C   UNL     1       7.940  24.386  52.563  1.00  0.00     0.037 A 
HETATM   31  C   UNL     1       7.761  23.213  53.299  1.00  0.00     0.068 A 
HETATM   32  C   UNL     1       7.371  23.303  54.634  1.00  0.00     0.037 A 
HETATM   33  C   UNL     1       7.180  24.558  55.230  1.00  0.00     0.016 A 
BRANCH  31  34
HETATM   34  O   UNL     1       7.990  22.057  52.606  1.00  0.00    -0.356 OA
HETATM   35  C   UNL     1       7.921  20.842  53.341  1.00  0.00     0.210 C 
ENDBRANCH  31  34
ENDBRANCH  26  28
ENDBRANCH   2  22
TORSDOF 7
ENDMDL
MODEL 4
REMARK VINA RESULT:      -9.5      2.674      3.876
REMARK  7 active torsions:
REMARK  status: ('A' for Active; 'I' for Inactive)
REMARK    1  A    between atoms: C_2  and  C_3 
REMARK    2  A    between atoms: N_4  and  C_5 
REMARK    3  A    between atoms: C_13  and  C_14 
REMARK       I    between atoms: C_14  and  N_15 
REMARK    4  A    between atoms: N_15  and  N_16 
REMARK       I    between atoms: N_16  and  C_17 
REMARK    5  A    between atoms: C_17  and  C_18 
REMARK    6  A    between atoms: C_22  and  C_23 
REMARK    7  A    between atoms: C_26  and  O_27 
ROOT
HETATM    1  N   UNL     1       5.569  31.179  59.147  1.00  0.00    -0.262 N 
HETATM    2  C   UNL     1       4.418  31.822  59.543  1.00  0.00     0.288 C 
HETATM    3  O   UNL     1       3.372  31.742  58.902  1.00  0.00    -0.264 OA
HETATM    4  H   UNL     1       6.417  31.148  59.707  1.00  0.00     0.190 HD
ENDROOT
BRANCH   1   5
HETATM    5  N   UNL     1       5.556  30.365  58.005  1.00  0.00    -0.263 N 
HETATM    6  C   UNL     1       6.706  29.666  57.708  1.00  0.00     0.273 C 
HETATM    7  O   UNL     1       7.709  29.780  58.416  1.00  0.00    -0.266 OA
HETATM    8  H   UNL     1       4.650  30.164  57.599  1.00  0.00     0.190 HD
BRANCH   6   9
HETATM    9  C   UNL     1       6.683  28.779  56.555  1.00  0.00     0.077 A 
HETATM   10  C   UNL     1       7.378  27.604  56.246  1.00  0.00     0.053 A 
HETATM   11  N   UNL     1       6.841  27.140  55.027  1.00  0.00    -0.237 N 
HETATM   12  N   UNL     1       5.889  28.000  54.571  1.00  0.00    -0.178 NA
HETATM   13  C   UNL     1       5.794  28.952  55.483  1.00  0.00     0.158 A 
BRANCH  10  14
HETATM   14  C   UNL     1       8.388  26.872  57.075  1.00  0.00     0.056 C 
HETATM   15  C   UNL     1       7.750  25.779  57.926  1.00  0.00     0.011 C 
ENDBRANCH  10  14
BRANCH  11  16
HETATM   16  C   UNL     1       7.083  25.960  54.238  1.00  0.00     0.058 A 
HETATM   17  C   UNL     1       6.724  24.667  54.624  1.00  0.00     0.031 A 
HETATM   18  C   UNL     1       6.977  23.572  53.787  1.00  0.00     0.002 A 
HETATM   19  C   UNL     1       7.596  23.749  52.554  1.00  0.00     0.000 A 
HETATM   20  C   UNL     1       7.976  25.024  52.157  1.00  0.00     0.002 A 
HETATM   21  C   UNL     1       7.728  26.118  52.992  1.00  0.00     0.031 A 
ENDBRANCH  11  16
ENDBRANCH   6   9
ENDBRANCH   1   5
BRANCH   2  22
HETATM   22  C   UNL     1       4.538  32.580  60.759  1.00  0.00     0.121 A 
HETATM   23  N   UNL     1       4.041  33.847  60.884  1.00  0.00    -0.272 N 
HETATM   24  H   UNL     1       3.555  34.386  60.174  1.00  0.00     0.189 HD
HETATM   25  N   UNL     1       4.226  34.394  62.095  1.00  0.00    -0.174 NA
HETATM   26  C   UNL     1       4.897  33.461  62.791  1.00  0.00     0.089 A 
HETATM   27  C   UNL     1       5.108  32.308  61.986  1.00  0.00     0.071 A 
BRANCH  26  28
HETATM   28  C   UNL     1       5.304  33.669  64.184  1.00  0.00    -0.005 A 
HETATM   29  C   UNL     1       6.659  33.707  64.533  1.00  0.00     0.016 A 
HETATM   30  C   UNL     1       7.047  33.939  65.857  1.00  0.00     0.037 A 
HETATM   31  C   UNL     1       6.093  34.133  66.857  1.00  0.00     0.068 A 
HETATM   32  C   UNL     1       4.741  34.079  66.523  1.00  0.00     0.037 A 
HETATM   33  C   UNL     1       4.350  33.849  65.196  1.00  0.00     0.016 A 
BRANCH  31  34
HETATM   34  O   UNL     1       6.603  34.359  68.104  1.00  0.00    -0.356 OA
HETATM   35  C   UNL     1       5.668  34.589  69.150  1.00  0.00     0.210 C 
ENDBRANCH  31  34
ENDBRANCH  26  28
ENDBRANCH   2  22
TORSDOF 7
ENDMDL
MODEL 5
REMARK VINA RESULT:      -9.4      2.796     12.056
REMARK  7 active torsions:
REMARK  status: ('A' for Active; 'I' for Inactive)
REMARK    1  A    between atoms: C_2  and  C_3 
REMARK    2  A    between atoms: N_4  and  C_5 
REMARK    3  A    between atoms: C_13  and  C_14 
REMARK       I    between atoms: C_14  and  N_15 
REMARK    4  A    between atoms: N_15  and  N_16 
REMARK       I    between atoms: N_16  and  C_17 
REMARK    5  A    between atoms: C_17  and  C_18 
REMARK    6  A    between atoms: C_22  and  C_23 
REMARK    7  A    between atoms: C_26  and  O_27 
ROOT
HETATM    1  N   UNL     1       5.783  29.467  57.525  1.00  0.00    -0.262 N 
HETATM    2  C   UNL     1       5.767  29.601  56.155  1.00  0.00     0.288 C 
HETATM    3  O   UNL     1       5.276  30.582  55.601  1.00  0.00    -0.264 OA
HETATM    4  H   UNL     1       6.266  28.716  58.011  1.00  0.00     0.190 HD
ENDROOT
BRANCH   1   5
HETATM    5  N   UNL     1       5.270  30.492  58.333  1.00  0.00    -0.263 N 
HETATM    6  C   UNL     1       6.173  31.327  58.954  1.00  0.00     0.273 C 
HETATM    7  O   UNL     1       7.386  31.152  58.814  1.00  0.00    -0.266 OA
HETATM    8  H   UNL     1       4.282  30.698  58.234  1.00  0.00     0.190 HD
BRANCH   6   9
HETATM    9  C   UNL     1       5.647  32.425  59.750  1.00  0.00     0.077 A 
HETATM   10  C   UNL     1       5.771  32.762  61.104  1.00  0.00     0.053 A 
HETATM   11  N   UNL     1       5.124  34.006  61.259  1.00  0.00    -0.237 N 
HETATM   12  N   UNL     1       4.585  34.411  60.076  1.00  0.00    -0.178 NA
HETATM   13  C   UNL     1       4.911  33.482  59.193  1.00  0.00     0.158 A 
BRANCH  10  14
HETATM   14  C   UNL     1       6.543  32.054  62.174  1.00  0.00     0.056 C 
HETATM   15  C   UNL     1       7.994  32.519  62.239  1.00  0.00     0.011 C 
ENDBRANCH  10  14
BRANCH  11  16
HETATM   16  C   UNL     1       4.972  34.895  62.380  1.00  0.00     0.058 A 
HETATM   17  C   UNL     1       5.715  36.063  62.567  1.00  0.00     0.031 A 
HETATM   18  C   UNL     1       5.490  36.887  63.678  1.00  0.00     0.002 A 
HETATM   19  C   UNL     1       4.524  36.558  64.623  1.00  0.00     0.000 A 
HETATM   20  C   UNL     1       3.785  35.393  64.466  1.00  0.00     0.002 A 
HETATM   21  C   UNL     1       4.009  34.567  63.360  1.00  0.00     0.031 A 
ENDBRANCH  11  16
ENDBRANCH   6   9
ENDBRANCH   1   5
BRANCH   2  22
HETATM   22  C   UNL     1       6.372  28.513  55.436  1.00  0.00     0.121 A 
HETATM   23  N   UNL     1       6.989  28.687  54.229  1.00  0.00    -0.272 N 
HETATM   24  H   UNL     1       7.090  29.556  53.713  1.00  0.00     0.189 HD
HETATM   25  N   UNL     1       7.515  27.565  53.713  1.00  0.00    -0.174 NA
HETATM   26  C   UNL     1       7.209  26.606  54.601  1.00  0.00     0.089 A 
HETATM   27  C   UNL     1       6.495  27.163  55.697  1.00  0.00     0.071 A 
BRANCH  26  28
HETATM   28  C   UNL     1       7.605  25.208  54.407  1.00  0.00    -0.005 A 
HETATM   29  C   UNL     1       7.933  24.401  55.504  1.00  0.00     0.016 A 
HETATM   30  C   UNL     1       8.279  23.058  55.321  1.00  0.00     0.037 A 
HETATM   31  C   UNL     1       8.307  22.495  54.044  1.00  0.00     0.068 A 
HETATM   32  C   UNL     1       7.998  23.294  52.944  1.00  0.00     0.037 A 
HETATM   33  C   UNL     1       7.649  24.641  53.126  1.00  0.00     0.016 A 
BRANCH  31  34
HETATM   34  O   UNL     1       8.649  21.173  54.004  1.00  0.00    -0.356 OA
HETATM   35  C   UNL     1       8.302  20.453  52.828  1.00  0.00     0.210 C 
ENDBRANCH  31  34
ENDBRANCH  26  28
ENDBRANCH   2  22
TORSDOF 7
ENDMDL
MODEL 6
REMARK VINA RESULT:      -9.2      3.061     12.144
REMARK  7 active torsions:
REMARK  status: ('A' for Active; 'I' for Inactive)
REMARK    1  A    between atoms: C_2  and  C_3 
REMARK    2  A    between atoms: N_4  and  C_5 
REMARK    3  A    between atoms: C_13  and  C_14 
REMARK       I    between atoms: C_14  and  N_15 
REMARK    4  A    between atoms: N_15  and  N_16 
REMARK       I    between atoms: N_16  and  C_17 
REMARK    5  A    between atoms: C_17  and  C_18 
REMARK    6  A    between atoms: C_22  and  C_23 
REMARK    7  A    between atoms: C_26  and  O_27 
ROOT
HETATM    1  N   UNL     1       5.508  29.921  57.802  1.00  0.00    -0.262 N 
HETATM    2  C   UNL     1       6.705  29.248  57.708  1.00  0.00     0.288 C 
HETATM    3  O   UNL     1       7.736  29.677  58.221  1.00  0.00    -0.264 OA
HETATM    4  H   UNL     1       4.623  29.543  57.472  1.00  0.00     0.190 HD
ENDROOT
BRANCH   1   5
HETATM    5  N   UNL     1       5.431  31.110  58.541  1.00  0.00    -0.263 N 
HETATM    6  C   UNL     1       4.178  31.627  58.790  1.00  0.00     0.273 C 
HETATM    7  O   UNL     1       3.171  31.065  58.352  1.00  0.00    -0.266 OA
HETATM    8  H   UNL     1       6.270  31.395  59.035  1.00  0.00     0.190 HD
BRANCH   6   9
HETATM    9  C   UNL     1       4.088  32.831  59.601  1.00  0.00     0.077 A 
HETATM   10  C   UNL     1       4.479  33.126  60.913  1.00  0.00     0.053 A 
HETATM   11  N   UNL     1       4.229  34.502  61.097  1.00  0.00    -0.237 N 
HETATM   12  N   UNL     1       3.671  35.036  59.976  1.00  0.00    -0.178 NA
HETATM   13  C   UNL     1       3.606  34.050  59.098  1.00  0.00     0.158 A 
BRANCH  10  14
HETATM   14  C   UNL     1       5.160  32.234  61.905  1.00  0.00     0.056 C 
HETATM   15  C   UNL     1       6.677  32.379  61.861  1.00  0.00     0.011 C 
ENDBRANCH  10  14
BRANCH  11  16
HETATM   16  C   UNL     1       4.480  35.403  62.191  1.00  0.00     0.058 A 
HETATM   17  C   UNL     1       3.673  35.508  63.326  1.00  0.00     0.031 A 
HETATM   18  C   UNL     1       3.999  36.398  64.359  1.00  0.00     0.002 A 
HETATM   19  C   UNL     1       5.133  37.199  64.274  1.00  0.00     0.000 A 
HETATM   20  C   UNL     1       5.941  37.123  63.147  1.00  0.00     0.002 A 
HETATM   21  C   UNL     1       5.616  36.238  62.114  1.00  0.00     0.031 A 
ENDBRANCH  11  16
ENDBRANCH   6   9
ENDBRANCH   1   5
BRANCH   2  22
HETATM   22  C   UNL     1       6.647  28.013  56.974  1.00  0.00     0.121 A 
HETATM   23  N   UNL     1       5.490  27.547  56.417  1.00  0.00    -0.272 N 
HETATM   24  H   UNL     1       4.575  27.985  56.451  1.00  0.00     0.189 HD
HETATM   25  N   UNL     1       5.627  26.389  55.752  1.00  0.00    -0.174 NA
HETATM   26  C   UNL     1       6.922  26.063  55.899  1.00  0.00     0.089 A 
HETATM   27  C   UNL     1       7.595  27.061  56.658  1.00  0.00     0.071 A 
BRANCH  26  28
HETATM   28  C   UNL     1       7.491  24.845  55.316  1.00  0.00    -0.005 A 
HETATM   29  C   UNL     1       7.071  24.391  54.060  1.00  0.00     0.016 A 
HETATM   30  C   UNL     1       7.639  23.247  53.489  1.00  0.00     0.037 A 
HETATM   31  C   UNL     1       8.633  22.533  54.161  1.00  0.00     0.068 A 
HETATM   32  C   UNL     1       9.045  22.966  55.419  1.00  0.00     0.037 A 
HETATM   33  C   UNL     1       8.479  24.114  55.992  1.00  0.00     0.016 A 
BRANCH  31  34
HETATM   34  O   UNL     1       9.111  21.442  53.490  1.00  0.00    -0.356 OA
HETATM   35  C   UNL     1       8.149  20.513  53.004  1.00  0.00     0.210 C 
ENDBRANCH  31  34
ENDBRANCH  26  28
ENDBRANCH   2  22
TORSDOF 7
ENDMDL
MODEL 7
REMARK VINA RESULT:      -9.1      3.057     12.057
REMARK  7 active torsions:
REMARK  status: ('A' for Active; 'I' for Inactive)
REMARK    1  A    between atoms: C_2  and  C_3 
REMARK    2  A    between atoms: N_4  and  C_5 
REMARK    3  A    between atoms: C_13  and  C_14 
REMARK       I    between atoms: C_14  and  N_15 
REMARK    4  A    between atoms: N_15  and  N_16 
REMARK       I    between atoms: N_16  and  C_17 
REMARK    5  A    between atoms: C_17  and  C_18 
REMARK    6  A    between atoms: C_22  and  C_23 
REMARK    7  A    between atoms: C_26  and  O_27 
ROOT
HETATM    1  N   UNL     1       5.707  30.738  58.300  1.00  0.00    -0.262 N 
HETATM    2  C   UNL     1       6.881  30.044  58.104  1.00  0.00     0.288 C 
HETATM    3  O   UNL     1       7.832  30.143  58.875  1.00  0.00    -0.264 OA
HETATM    4  H   UNL     1       4.873  30.601  57.734  1.00  0.00     0.190 HD
ENDROOT
BRANCH   1   5
HETATM    5  N   UNL     1       5.556  31.550  59.432  1.00  0.00    -0.263 N 
HETATM    6  C   UNL     1       4.274  31.882  59.812  1.00  0.00     0.273 C 
HETATM    7  O   UNL     1       3.305  31.490  59.158  1.00  0.00    -0.266 OA
HETATM    8  H   UNL     1       6.370  31.658  60.027  1.00  0.00     0.190 HD
BRANCH   6   9
HETATM    9  C   UNL     1       4.108  32.681  61.017  1.00  0.00     0.077 A 
HETATM   10  C   UNL     1       4.540  32.511  62.338  1.00  0.00     0.053 A 
HETATM   11  N   UNL     1       4.163  33.682  63.028  1.00  0.00    -0.237 N 
HETATM   12  N   UNL     1       3.491  34.526  62.197  1.00  0.00    -0.178 NA
HETATM   13  C   UNL     1       3.477  33.935  61.014  1.00  0.00     0.158 A 
BRANCH  10  14
HETATM   14  C   UNL     1       5.363  31.400  62.913  1.00  0.00     0.056 C 
HETATM   15  C   UNL     1       6.851  31.582  62.632  1.00  0.00     0.011 C 
ENDBRANCH  10  14
BRANCH  11  16
HETATM   16  C   UNL     1       4.382  34.136  64.376  1.00  0.00     0.058 A 
HETATM   17  C   UNL     1       5.547  33.897  65.108  1.00  0.00     0.031 A 
HETATM   18  C   UNL     1       5.690  34.393  66.411  1.00  0.00     0.002 A 
HETATM   19  C   UNL     1       4.672  35.130  67.006  1.00  0.00     0.000 A 
HETATM   20  C   UNL     1       3.498  35.365  66.303  1.00  0.00     0.002 A 
HETATM   21  C   UNL     1       3.351  34.869  65.004  1.00  0.00     0.031 A 
ENDBRANCH  11  16
ENDBRANCH   6   9
ENDBRANCH   1   5
BRANCH   2  22
HETATM   22  C   UNL     1       6.896  29.200  56.941  1.00  0.00     0.121 A 
HETATM   23  N   UNL     1       6.429  29.619  55.726  1.00  0.00    -0.272 N 
HETATM   24  H   UNL     1       6.029  30.525  55.504  1.00  0.00     0.189 HD
HETATM   25  N   UNL     1       6.541  28.705  54.750  1.00  0.00    -0.174 NA
HETATM   26  C   UNL     1       7.079  27.630  55.348  1.00  0.00     0.089 A 
HETATM   27  C   UNL     1       7.319  27.904  56.723  1.00  0.00     0.071 A 
BRANCH  26  28
HETATM   28  C   UNL     1       7.365  26.392  54.617  1.00  0.00    -0.005 A 
HETATM   29  C   UNL     1       7.396  25.161  55.285  1.00  0.00     0.016 A 
HETATM   30  C   UNL     1       7.636  23.976  54.581  1.00  0.00     0.037 A 
HETATM   31  C   UNL     1       7.853  23.996  53.203  1.00  0.00     0.068 A 
HETATM   32  C   UNL     1       7.842  25.217  52.532  1.00  0.00     0.037 A 
HETATM   33  C   UNL     1       7.599  26.407  53.235  1.00  0.00     0.016 A 
BRANCH  31  34
HETATM   34  O   UNL     1       8.066  22.770  52.635  1.00  0.00    -0.356 OA
HETATM   35  C   UNL     1       7.871  21.634  53.468  1.00  0.00     0.210 C 
ENDBRANCH  31  34
ENDBRANCH  26  28
ENDBRANCH   2  22
TORSDOF 7
ENDMDL
MODEL 8
REMARK VINA RESULT:      -9.1      3.073      3.880
REMARK  7 active torsions:
REMARK  status: ('A' for Active; 'I' for Inactive)
REMARK    1  A    between atoms: C_2  and  C_3 
REMARK    2  A    between atoms: N_4  and  C_5 
REMARK    3  A    between atoms: C_13  and  C_14 
REMARK       I    between atoms: C_14  and  N_15 
REMARK    4  A    between atoms: N_15  and  N_16 
REMARK       I    between atoms: N_16  and  C_17 
REMARK    5  A    between atoms: C_17  and  C_18 
REMARK    6  A    between atoms: C_22  and  C_23 
REMARK    7  A    between atoms: C_26  and  O_27 
ROOT
HETATM    1  N   UNL     1       5.398  29.056  57.602  1.00  0.00    -0.262 N 
HETATM    2  C   UNL     1       4.368  29.726  56.981  1.00  0.00     0.288 C 
HETATM    3  O   UNL     1       3.801  29.273  55.989  1.00  0.00    -0.264 OA
HETATM    4  H   UNL     1       5.818  29.359  58.478  1.00  0.00     0.190 HD
ENDROOT
BRANCH   1   5
HETATM    5  N   UNL     1       5.796  27.796  57.133  1.00  0.00    -0.263 N 
HETATM    6  C   UNL     1       7.055  27.356  57.477  1.00  0.00     0.273 C 
HETATM    7  O   UNL     1       7.804  28.065  58.154  1.00  0.00    -0.266 OA
HETATM    8  H   UNL     1       5.066  27.195  56.767  1.00  0.00     0.190 HD
BRANCH   6   9
HETATM    9  C   UNL     1       7.454  26.028  57.039  1.00  0.00     0.077 A 
HETATM   10  C   UNL     1       6.911  25.129  56.112  1.00  0.00     0.053 A 
HETATM   11  N   UNL     1       7.813  24.046  56.041  1.00  0.00    -0.237 N 
HETATM   12  N   UNL     1       8.846  24.232  56.908  1.00  0.00    -0.178 NA
HETATM   13  C   UNL     1       8.633  25.406  57.478  1.00  0.00     0.158 A 
BRANCH  10  14
HETATM   14  C   UNL     1       5.704  25.302  55.243  1.00  0.00     0.056 C 
HETATM   15  C   UNL     1       6.020  26.074  53.967  1.00  0.00     0.011 C 
ENDBRANCH  10  14
BRANCH  11  16
HETATM   16  C   UNL     1       7.851  22.858  55.230  1.00  0.00     0.058 A 
HETATM   17  C   UNL     1       7.777  21.557  55.735  1.00  0.00     0.031 A 
HETATM   18  C   UNL     1       7.799  20.451  54.873  1.00  0.00     0.002 A 
HETATM   19  C   UNL     1       7.900  20.625  53.497  1.00  0.00     0.000 A 
HETATM   20  C   UNL     1       7.991  21.908  52.975  1.00  0.00     0.002 A 
HETATM   21  C   UNL     1       7.972  23.013  53.832  1.00  0.00     0.031 A 
ENDBRANCH  11  16
ENDBRANCH   6   9
ENDBRANCH   1   5
BRANCH   2  22
HETATM   22  C   UNL     1       4.012  30.980  57.586  1.00  0.00     0.121 A 
HETATM   23  N   UNL     1       3.410  31.987  56.884  1.00  0.00    -0.272 N 
HETATM   24  H   UNL     1       3.157  31.980  55.901  1.00  0.00     0.189 HD
HETATM   25  N   UNL     1       3.132  33.077  57.615  1.00  0.00    -0.174 NA
HETATM   26  C   UNL     1       3.593  32.791  58.843  1.00  0.00     0.089 A 
HETATM   27  C   UNL     1       4.149  31.482  58.864  1.00  0.00     0.071 A 
BRANCH  26  28
HETATM   28  C   UNL     1       3.486  33.737  59.958  1.00  0.00    -0.005 A 
HETATM   29  C   UNL     1       4.212  34.934  59.950  1.00  0.00     0.016 A 
HETATM   30  C   UNL     1       4.083  35.851  60.998  1.00  0.00     0.037 A 
HETATM   31  C   UNL     1       3.232  35.592  62.073  1.00  0.00     0.068 A 
HETATM   32  C   UNL     1       2.518  34.396  62.099  1.00  0.00     0.037 A 
HETATM   33  C   UNL     1       2.644  33.475  61.048  1.00  0.00     0.016 A 
BRANCH  31  34
HETATM   34  O   UNL     1       3.191  36.573  63.024  1.00  0.00    -0.356 OA
HETATM   35  C   UNL     1       4.428  36.949  63.615  1.00  0.00     0.210 C 
ENDBRANCH  31  34
ENDBRANCH  26  28
ENDBRANCH   2  22
TORSDOF 7
ENDMDL
MODEL 9
REMARK VINA RESULT:      -8.9      3.155      3.661
REMARK  7 active torsions:
REMARK  status: ('A' for Active; 'I' for Inactive)
REMARK    1  A    between atoms: C_2  and  C_3 
REMARK    2  A    between atoms: N_4  and  C_5 
REMARK    3  A    between atoms: C_13  and  C_14 
REMARK       I    between atoms: C_14  and  N_15 
REMARK    4  A    between atoms: N_15  and  N_16 
REMARK       I    between atoms: N_16  and  C_17 
REMARK    5  A    between atoms: C_17  and  C_18 
REMARK    6  A    between atoms: C_22  and  C_23 
REMARK    7  A    between atoms: C_26  and  O_27 
ROOT
HETATM    1  N   UNL     1       4.989  28.731  57.573  1.00  0.00    -0.262 N 
HETATM    2  C   UNL     1       5.755  29.872  57.649  1.00  0.00     0.288 C 
HETATM    3  O   UNL     1       6.923  29.899  57.266  1.00  0.00    -0.264 OA
HETATM    4  H   UNL     1       3.995  28.706  57.791  1.00  0.00     0.190 HD
ENDROOT
BRANCH   1   5
HETATM    5  N   UNL     1       5.523  27.566  57.005  1.00  0.00    -0.263 N 
HETATM    6  C   UNL     1       5.134  27.246  55.722  1.00  0.00     0.273 C 
HETATM    7  O   UNL     1       4.326  27.955  55.118  1.00  0.00    -0.266 OA
HETATM    8  H   UNL     1       6.324  27.157  57.472  1.00  0.00     0.190 HD
BRANCH   6   9
HETATM    9  C   UNL     1       5.725  26.069  55.106  1.00  0.00     0.077 A 
HETATM   10  C   UNL     1       6.501  25.019  55.613  1.00  0.00     0.053 A 
HETATM   11  N   UNL     1       6.679  24.112  54.546  1.00  0.00    -0.237 N 
HETATM   12  N   UNL     1       6.084  24.586  53.417  1.00  0.00    -0.178 NA
HETATM   13  C   UNL     1       5.514  25.729  53.761  1.00  0.00     0.158 A 
BRANCH  10  14
HETATM   14  C   UNL     1       6.950  24.788  57.022  1.00  0.00     0.056 C 
HETATM   15  C   UNL     1       8.383  25.255  57.253  1.00  0.00     0.011 C 
ENDBRANCH  10  14
BRANCH  11  16
HETATM   16  C   UNL     1       7.314  22.824  54.454  1.00  0.00     0.058 A 
HETATM   17  C   UNL     1       7.588  22.000  55.549  1.00  0.00     0.031 A 
HETATM   18  C   UNL     1       8.192  20.748  55.371  1.00  0.00     0.002 A 
HETATM   19  C   UNL     1       8.536  20.300  54.100  1.00  0.00     0.000 A 
HETATM   20  C   UNL     1       8.288  21.109  52.999  1.00  0.00     0.002 A 
HETATM   21  C   UNL     1       7.689  22.360  53.174  1.00  0.00     0.031 A 
ENDBRANCH  11  16
ENDBRANCH   6   9
ENDBRANCH   1   5
BRANCH   2  22
HETATM   22  C   UNL     1       5.081  31.017  58.198  1.00  0.00     0.121 A 
HETATM   23  N   UNL     1       3.786  30.965  58.633  1.00  0.00    -0.272 N 
HETATM   24  H   UNL     1       3.169  30.159  58.620  1.00  0.00     0.189 HD
HETATM   25  N   UNL     1       3.328  32.122  59.133  1.00  0.00    -0.174 NA
HETATM   26  C   UNL     1       4.351  32.981  58.999  1.00  0.00     0.089 A 
HETATM   27  C   UNL     1       5.470  32.323  58.418  1.00  0.00     0.071 A 
BRANCH  26  28
HETATM   28  C   UNL     1       4.258  34.380  59.429  1.00  0.00    -0.005 A 
HETATM   29  C   UNL     1       4.010  35.397  58.499  1.00  0.00     0.016 A 
HETATM   30  C   UNL     1       3.888  36.727  58.915  1.00  0.00     0.037 A 
HETATM   31  C   UNL     1       4.015  37.068  60.262  1.00  0.00     0.068 A 
HETATM   32  C   UNL     1       4.279  36.065  61.194  1.00  0.00     0.037 A 
HETATM   33  C   UNL     1       4.399  34.731  60.779  1.00  0.00     0.016 A 
BRANCH  31  34
HETATM   34  O   UNL     1       3.864  38.399  60.537  1.00  0.00    -0.356 OA
HETATM   35  C   UNL     1       4.622  38.922  61.620  1.00  0.00     0.210 C 
ENDBRANCH  31  34
ENDBRANCH  26  28
ENDBRANCH   2  22
TORSDOF 7
ENDMDL
MODEL 10
REMARK VINA RESULT:      -8.8      1.896      2.417
REMARK  7 active torsions:
REMARK  status: ('A' for Active; 'I' for Inactive)
REMARK    1  A    between atoms: C_2  and  C_3 
REMARK    2  A    between atoms: N_4  and  C_5 
REMARK    3  A    between atoms: C_13  and  C_14 
REMARK       I    between atoms: C_14  and  N_15 
REMARK    4  A    between atoms: N_15  and  N_16 
REMARK       I    between atoms: N_16  and  C_17 
REMARK    5  A    between atoms: C_17  and  C_18 
REMARK    6  A    between atoms: C_22  and  C_23 
REMARK    7  A    between atoms: C_26  and  O_27 
ROOT
HETATM    1  N   UNL     1       6.539  29.191  57.769  1.00  0.00    -0.262 N 
HETATM    2  C   UNL     1       6.161  30.346  57.121  1.00  0.00     0.288 C 
HETATM    3  O   UNL     1       6.159  30.434  55.895  1.00  0.00    -0.264 OA
HETATM    4  H   UNL     1       6.457  29.058  58.774  1.00  0.00     0.190 HD
ENDROOT
BRANCH   1   5
HETATM    5  N   UNL     1       6.890  28.056  57.025  1.00  0.00    -0.263 N 
HETATM    6  C   UNL     1       5.883  27.178  56.687  1.00  0.00     0.273 C 
HETATM    7  O   UNL     1       4.724  27.383  57.052  1.00  0.00    -0.266 OA
HETATM    8  H   UNL     1       7.807  28.061  56.592  1.00  0.00     0.190 HD
BRANCH   6   9
HETATM    9  C   UNL     1       6.232  26.025  55.871  1.00  0.00     0.077 A 
HETATM   10  C   UNL     1       7.029  24.898  56.107  1.00  0.00     0.053 A 
HETATM   11  N   UNL     1       6.891  24.075  54.970  1.00  0.00    -0.237 N 
HETATM   12  N   UNL     1       6.085  24.670  54.049  1.00  0.00    -0.178 NA
HETATM   13  C   UNL     1       5.692  25.809  54.594  1.00  0.00     0.158 A 
BRANCH  10  14
HETATM   14  C   UNL     1       7.775  24.530  57.352  1.00  0.00     0.056 C 
HETATM   15  C   UNL     1       9.283  24.692  57.188  1.00  0.00     0.011 C 
ENDBRANCH  10  14
BRANCH  11  16
HETATM   16  C   UNL     1       7.396  22.767  54.644  1.00  0.00     0.058 A 
HETATM   17  C   UNL     1       7.551  21.729  55.566  1.00  0.00     0.031 A 
HETATM   18  C   UNL     1       8.031  20.476  55.161  1.00  0.00     0.002 A 
HETATM   19  C   UNL     1       8.369  20.240  53.833  1.00  0.00     0.000 A 
HETATM   20  C   UNL     1       8.240  21.262  52.903  1.00  0.00     0.002 A 
HETATM   21  C   UNL     1       7.764  22.515  53.304  1.00  0.00     0.031 A 
ENDBRANCH  11  16
ENDBRANCH   6   9
ENDBRANCH   1   5
BRANCH   2  22
HETATM   22  C   UNL     1       5.768  31.423  57.987  1.00  0.00     0.121 A 
HETATM   23  N   UNL     1       4.915  32.412  57.584  1.00  0.00    -0.272 N 
HETATM   24  H   UNL     1       4.478  32.510  56.672  1.00  0.00     0.189 HD
HETATM   25  N   UNL     1       4.643  33.323  58.531  1.00  0.00    -0.174 NA
HETATM   26  C   UNL     1       5.366  32.937  59.594  1.00  0.00     0.089 A 
HETATM   27  C   UNL     1       6.083  31.746  59.291  1.00  0.00     0.071 A 
BRANCH  26  28
HETATM   28  C   UNL     1       5.354  33.679  60.859  1.00  0.00    -0.005 A 
HETATM   29  C   UNL     1       6.284  33.389  61.864  1.00  0.00     0.016 A 
HETATM   30  C   UNL     1       6.293  34.120  63.057  1.00  0.00     0.037 A 
HETATM   31  C   UNL     1       5.375  35.149  63.271  1.00  0.00     0.068 A 
HETATM   32  C   UNL     1       4.434  35.434  62.283  1.00  0.00     0.037 A 
HETATM   33  C   UNL     1       4.424  34.704  61.085  1.00  0.00     0.016 A 
BRANCH  31  34
HETATM   34  O   UNL     1       5.497  35.790  64.471  1.00  0.00    -0.356 OA
HETATM   35  C   UNL     1       5.070  35.079  65.627  1.00  0.00     0.210 C 
ENDBRANCH  31  34
ENDBRANCH  26  28
ENDBRANCH   2  22
TORSDOF 7
ENDMDL
