MODEL 1
REMARK VINA RESULT:      -8.3      0.000      0.000
REMARK  4 active torsions:
REMARK  status: ('A' for Active; 'I' for Inactive)
REMARK    1  A    between atoms: C_2  and  N_3 
REMARK    2  A    between atoms: C_2  and  C_13 
REMARK       I    between atoms: N_3  and  C_4 
REMARK    3  A    between atoms: C_4  and  C_5 
REMARK    4  A    between atoms: C_6  and  C_7 
ROOT
HETATM    1  C   UNL     1       6.352  25.442  51.753  1.00  0.00     0.040 C 
HETATM    2  C   UNL     1       6.339  25.368  53.278  1.00  0.00     0.150 C 
ENDROOT
BRANCH   2   3
HETATM    3  N   UNL     1       7.156  26.411  53.863  1.00  0.00    -0.346 N 
HETATM    4  C   UNL     1       6.696  27.223  54.861  1.00  0.00     0.241 C 
HETATM    5  O   UNL     1       5.589  27.117  55.373  1.00  0.00    -0.269 OA
HETATM    6  H   UNL     1       8.067  26.549  53.437  1.00  0.00     0.163 HD
BRANCH   4   7
HETATM    7  C   UNL     1       7.675  28.261  55.264  1.00  0.00     0.075 C 
HETATM    8  C   UNL     1       8.098  28.316  56.537  1.00  0.00     0.017 C 
BRANCH   8   9
HETATM    9  C   UNL     1       9.031  29.262  57.074  1.00  0.00    -0.029 A 
HETATM   10  C   UNL     1       8.654  30.187  58.028  1.00  0.00     0.061 A 
HETATM   11  S   UNL     1       9.946  31.203  58.505  1.00  0.00    -0.113 SA
HETATM   12  C   UNL     1      11.028  30.411  57.445  1.00  0.00     0.050 A 
HETATM   13  C   UNL     1      10.415  29.397  56.741  1.00  0.00     0.019 A 
ENDBRANCH   8   9
ENDBRANCH   4   7
ENDBRANCH   2   3
BRANCH   2  14
HETATM   14  C   UNL     1       6.900  24.059  53.746  1.00  0.00     0.127 A 
HETATM   15  N   UNL     1       6.987  23.638  54.997  1.00  0.00    -0.231 NA
HETATM   16  C   UNL     1       7.578  22.399  54.926  1.00  0.00     0.085 A 
HETATM   17  C   UNL     1       7.848  22.051  53.609  1.00  0.00     0.062 A 
HETATM   18  C   UNL     1       7.919  21.508  55.955  1.00  0.00     0.034 A 
HETATM   19  N   UNL     1       7.398  23.119  52.877  1.00  0.00    -0.341 N 
HETATM   20  C   UNL     1       8.451  20.846  53.242  1.00  0.00     0.032 A 
HETATM   21  H   UNL     1       7.434  23.203  51.871  1.00  0.00     0.167 HD
HETATM   22  C   UNL     1       8.787  19.970  54.282  1.00  0.00     0.002 A 
HETATM   23  C   UNL     1       8.527  20.293  55.616  1.00  0.00     0.002 A 
ENDBRANCH   2  14
TORSDOF 4
ENDMDL
MODEL 2
REMARK VINA RESULT:      -8.1      2.957      7.408
REMARK  4 active torsions:
REMARK  status: ('A' for Active; 'I' for Inactive)
REMARK    1  A    between atoms: C_2  and  N_3 
REMARK    2  A    between atoms: C_2  and  C_13 
REMARK       I    between atoms: N_3  and  C_4 
REMARK    3  A    between atoms: C_4  and  C_5 
REMARK    4  A    between atoms: C_6  and  C_7 
ROOT
HETATM    1  C   UNL     1       4.572  28.344  54.611  1.00  0.00     0.040 C 
HETATM    2  C   UNL     1       5.992  28.011  54.159  1.00  0.00     0.150 C 
ENDROOT
BRANCH   2   3
HETATM    3  N   UNL     1       6.208  26.580  54.113  1.00  0.00    -0.346 N 
HETATM    4  C   UNL     1       6.223  25.883  52.938  1.00  0.00     0.241 C 
HETATM    5  O   UNL     1       6.101  26.400  51.835  1.00  0.00    -0.269 OA
HETATM    6  H   UNL     1       6.277  26.115  55.013  1.00  0.00     0.163 HD
BRANCH   4   7
HETATM    7  C   UNL     1       6.395  24.423  53.130  1.00  0.00     0.075 C 
HETATM    8  C   UNL     1       7.500  23.959  53.734  1.00  0.00     0.017 C 
BRANCH   8   9
HETATM    9  C   UNL     1       7.809  22.581  53.984  1.00  0.00    -0.029 A 
HETATM   10  C   UNL     1       7.822  22.064  55.265  1.00  0.00     0.061 A 
HETATM   11  S   UNL     1       8.221  20.400  55.298  1.00  0.00    -0.113 SA
HETATM   12  C   UNL     1       8.374  20.351  53.596  1.00  0.00     0.050 A 
HETATM   13  C   UNL     1       8.129  21.578  53.017  1.00  0.00     0.019 A 
ENDBRANCH   8   9
ENDBRANCH   4   7
ENDBRANCH   2   3
BRANCH   2  14
HETATM   14  C   UNL     1       6.996  28.575  55.119  1.00  0.00     0.127 A 
HETATM   15  N   UNL     1       6.774  28.943  56.370  1.00  0.00    -0.231 NA
HETATM   16  C   UNL     1       7.981  29.406  56.836  1.00  0.00     0.085 A 
HETATM   17  C   UNL     1       8.962  29.310  55.856  1.00  0.00     0.062 A 
HETATM   18  C   UNL     1       8.316  29.929  58.093  1.00  0.00     0.034 A 
HETATM   19  N   UNL     1       8.313  28.769  54.777  1.00  0.00    -0.341 N 
HETATM   20  C   UNL     1      10.285  29.712  56.054  1.00  0.00     0.032 A 
HETATM   21  H   UNL     1       8.729  28.557  53.882  1.00  0.00     0.167 HD
HETATM   22  C   UNL     1      10.601  30.235  57.314  1.00  0.00     0.002 A 
HETATM   23  C   UNL     1       9.636  30.342  58.318  1.00  0.00     0.002 A 
ENDBRANCH   2  14
TORSDOF 4
ENDMDL
MODEL 3
REMARK VINA RESULT:      -8.0      4.183      6.034
REMARK  4 active torsions:
REMARK  status: ('A' for Active; 'I' for Inactive)
REMARK    1  A    between atoms: C_2  and  N_3 
REMARK    2  A    between atoms: C_2  and  C_13 
REMARK       I    between atoms: N_3  and  C_4 
REMARK    3  A    between atoms: C_4  and  C_5 
REMARK    4  A    between atoms: C_6  and  C_7 
ROOT
HETATM    1  C   UNL     1       5.348  25.572  56.409  1.00  0.00     0.040 C 
HETATM    2  C   UNL     1       6.246  25.548  55.173  1.00  0.00     0.150 C 
ENDROOT
BRANCH   2   3
HETATM    3  N   UNL     1       5.498  25.860  53.973  1.00  0.00    -0.346 N 
HETATM    4  C   UNL     1       5.876  26.856  53.118  1.00  0.00     0.241 C 
HETATM    5  O   UNL     1       6.887  27.533  53.261  1.00  0.00    -0.269 OA
HETATM    6  H   UNL     1       4.635  25.341  53.843  1.00  0.00     0.163 HD
BRANCH   4   7
HETATM    7  C   UNL     1       4.932  27.045  51.991  1.00  0.00     0.075 C 
HETATM    8  C   UNL     1       5.301  26.693  50.749  1.00  0.00     0.017 C 
BRANCH   8   9
HETATM    9  C   UNL     1       4.504  26.821  49.565  1.00  0.00    -0.029 A 
HETATM   10  C   UNL     1       4.308  28.045  48.954  1.00  0.00     0.061 A 
HETATM   11  S   UNL     1       3.319  27.935  47.563  1.00  0.00    -0.113 SA
HETATM   12  C   UNL     1       3.146  26.245  47.757  1.00  0.00     0.050 A 
HETATM   13  C   UNL     1       3.826  25.778  48.861  1.00  0.00     0.019 A 
ENDBRANCH   8   9
ENDBRANCH   4   7
ENDBRANCH   2   3
BRANCH   2  14
HETATM   14  C   UNL     1       6.838  24.184  54.978  1.00  0.00     0.127 A 
HETATM   15  N   UNL     1       7.227  23.349  55.926  1.00  0.00    -0.231 NA
HETATM   16  C   UNL     1       7.710  22.245  55.266  1.00  0.00     0.085 A 
HETATM   17  C   UNL     1       7.606  22.403  53.889  1.00  0.00     0.062 A 
HETATM   18  C   UNL     1       8.260  21.061  55.780  1.00  0.00     0.034 A 
HETATM   19  N   UNL     1       7.038  23.641  53.732  1.00  0.00    -0.341 N 
HETATM   20  C   UNL     1       8.025  21.437  52.972  1.00  0.00     0.032 A 
HETATM   21  H   UNL     1       6.814  24.081  52.852  1.00  0.00     0.167 HD
HETATM   22  C   UNL     1       8.574  20.263  53.503  1.00  0.00     0.002 A 
HETATM   23  C   UNL     1       8.690  20.076  54.882  1.00  0.00     0.002 A 
ENDBRANCH   2  14
TORSDOF 4
ENDMDL
MODEL 4
REMARK VINA RESULT:      -7.7      1.382      2.173
REMARK  4 active torsions:
REMARK  status: ('A' for Active; 'I' for Inactive)
REMARK    1  A    between atoms: C_2  and  N_3 
REMARK    2  A    between atoms: C_2  and  C_13 
REMARK       I    between atoms: N_3  and  C_4 
REMARK    3  A    between atoms: C_4  and  C_5 
REMARK    4  A    between atoms: C_6  and  C_7 
ROOT
HETATM    1  C   UNL     1       6.741  26.179  52.713  1.00  0.00     0.040 C 
HETATM    2  C   UNL     1       6.335  25.555  54.047  1.00  0.00     0.150 C 
ENDROOT
BRANCH   2   3
HETATM    3  N   UNL     1       6.825  26.335  55.164  1.00  0.00    -0.346 N 
HETATM    4  C   UNL     1       6.053  27.271  55.793  1.00  0.00     0.241 C 
HETATM    5  O   UNL     1       4.885  27.500  55.503  1.00  0.00    -0.269 OA
HETATM    6  H   UNL     1       7.801  26.194  55.406  1.00  0.00     0.163 HD
BRANCH   4   7
HETATM    7  C   UNL     1       6.776  27.995  56.865  1.00  0.00     0.075 C 
HETATM    8  C   UNL     1       6.456  29.271  57.137  1.00  0.00     0.017 C 
BRANCH   8   9
HETATM    9  C   UNL     1       7.067  30.098  58.135  1.00  0.00    -0.029 A 
HETATM   10  C   UNL     1       8.218  29.707  58.792  1.00  0.00     0.061 A 
HETATM   11  S   UNL     1       8.747  30.865  59.936  1.00  0.00    -0.113 SA
HETATM   12  C   UNL     1       7.445  31.906  59.561  1.00  0.00     0.050 A 
HETATM   13  C   UNL     1       6.624  31.380  58.586  1.00  0.00     0.019 A 
ENDBRANCH   8   9
ENDBRANCH   4   7
ENDBRANCH   2   3
BRANCH   2  14
HETATM   14  C   UNL     1       6.918  24.180  54.184  1.00  0.00     0.127 A 
HETATM   15  N   UNL     1       7.333  23.396  53.203  1.00  0.00    -0.231 NA
HETATM   16  C   UNL     1       7.766  22.243  53.814  1.00  0.00     0.085 A 
HETATM   17  C   UNL     1       7.622  22.327  55.194  1.00  0.00     0.062 A 
HETATM   18  C   UNL     1       8.296  21.074  53.249  1.00  0.00     0.034 A 
HETATM   19  N   UNL     1       7.090  23.572  55.404  1.00  0.00    -0.341 N 
HETATM   20  C   UNL     1       7.979  21.296  56.066  1.00  0.00     0.032 A 
HETATM   21  H   UNL     1       6.857  23.971  56.302  1.00  0.00     0.167 HD
HETATM   22  C   UNL     1       8.504  20.135  55.484  1.00  0.00     0.002 A 
HETATM   23  C   UNL     1       8.661  20.023  54.101  1.00  0.00     0.002 A 
ENDBRANCH   2  14
TORSDOF 4
ENDMDL
MODEL 5
REMARK VINA RESULT:      -7.7      3.704      7.422
REMARK  4 active torsions:
REMARK  status: ('A' for Active; 'I' for Inactive)
REMARK    1  A    between atoms: C_2  and  N_3 
REMARK    2  A    between atoms: C_2  and  C_13 
REMARK       I    between atoms: N_3  and  C_4 
REMARK    3  A    between atoms: C_4  and  C_5 
REMARK    4  A    between atoms: C_6  and  C_7 
ROOT
HETATM    1  C   UNL     1       6.626  28.436  53.852  1.00  0.00     0.040 C 
HETATM    2  C   UNL     1       5.567  27.409  53.457  1.00  0.00     0.150 C 
ENDROOT
BRANCH   2   3
HETATM    3  N   UNL     1       5.984  26.065  53.799  1.00  0.00    -0.346 N 
HETATM    4  C   UNL     1       5.892  25.576  55.072  1.00  0.00     0.241 C 
HETATM    5  O   UNL     1       5.416  26.201  56.012  1.00  0.00    -0.269 OA
HETATM    6  H   UNL     1       6.416  25.532  53.051  1.00  0.00     0.163 HD
BRANCH   4   7
HETATM    7  C   UNL     1       6.435  24.203  55.208  1.00  0.00     0.075 C 
HETATM    8  C   UNL     1       7.131  23.662  54.196  1.00  0.00     0.017 C 
BRANCH   8   9
HETATM    9  C   UNL     1       7.709  22.350  54.177  1.00  0.00    -0.029 A 
HETATM   10  C   UNL     1       8.085  21.710  55.343  1.00  0.00     0.061 A 
HETATM   11  S   UNL     1       8.750  20.160  55.056  1.00  0.00    -0.113 SA
HETATM   12  C   UNL     1       8.538  20.325  53.368  1.00  0.00     0.050 A 
HETATM   13  C   UNL     1       7.974  21.537  53.032  1.00  0.00     0.019 A 
ENDBRANCH   8   9
ENDBRANCH   4   7
ENDBRANCH   2   3
BRANCH   2  14
HETATM   14  C   UNL     1       5.338  27.432  51.975  1.00  0.00     0.127 A 
HETATM   15  N   UNL     1       5.683  28.395  51.137  1.00  0.00    -0.231 NA
HETATM   16  C   UNL     1       5.255  27.975  49.901  1.00  0.00     0.085 A 
HETATM   17  C   UNL     1       4.646  26.729  49.982  1.00  0.00     0.062 A 
HETATM   18  C   UNL     1       5.351  28.612  48.655  1.00  0.00     0.034 A 
HETATM   19  N   UNL     1       4.721  26.400  51.311  1.00  0.00    -0.341 N 
HETATM   20  C   UNL     1       4.113  26.062  48.876  1.00  0.00     0.032 A 
HETATM   21  H   UNL     1       4.374  25.549  51.729  1.00  0.00     0.167 HD
HETATM   22  C   UNL     1       4.216  26.714  47.640  1.00  0.00     0.002 A 
HETATM   23  C   UNL     1       4.823  27.967  47.529  1.00  0.00     0.002 A 
ENDBRANCH   2  14
TORSDOF 4
ENDMDL
MODEL 6
REMARK VINA RESULT:      -7.6     12.273     15.745
REMARK  4 active torsions:
REMARK  status: ('A' for Active; 'I' for Inactive)
REMARK    1  A    between atoms: C_2  and  N_3 
REMARK    2  A    between atoms: C_2  and  C_13 
REMARK       I    between atoms: N_3  and  C_4 
REMARK    3  A    between atoms: C_4  and  C_5 
REMARK    4  A    between atoms: C_6  and  C_7 
ROOT
HETATM    1  C   UNL     1       3.487  35.711  66.785  1.00  0.00     0.040 C 
HETATM    2  C   UNL     1       4.234  34.445  67.200  1.00  0.00     0.150 C 
ENDROOT
BRANCH   2   3
HETATM    3  N   UNL     1       5.222  34.727  68.221  1.00  0.00    -0.346 N 
HETATM    4  C   UNL     1       5.439  33.886  69.275  1.00  0.00     0.241 C 
HETATM    5  O   UNL     1       4.862  32.817  69.428  1.00  0.00    -0.269 OA
HETATM    6  H   UNL     1       5.693  35.623  68.143  1.00  0.00     0.163 HD
BRANCH   4   7
HETATM    7  C   UNL     1       6.447  34.402  70.231  1.00  0.00     0.075 C 
HETATM    8  C   UNL     1       6.720  35.716  70.265  1.00  0.00     0.017 C 
BRANCH   8   9
HETATM    9  C   UNL     1       7.669  36.359  71.125  1.00  0.00    -0.029 A 
HETATM   10  C   UNL     1       8.224  35.702  72.206  1.00  0.00     0.061 A 
HETATM   11  S   UNL     1       9.324  36.683  73.076  1.00  0.00    -0.113 SA
HETATM   12  C   UNL     1       9.075  37.996  72.012  1.00  0.00     0.050 A 
HETATM   13  C   UNL     1       8.170  37.693  71.017  1.00  0.00     0.019 A 
ENDBRANCH   8   9
ENDBRANCH   4   7
ENDBRANCH   2   3
BRANCH   2  14
HETATM   14  C   UNL     1       4.968  33.859  66.030  1.00  0.00     0.127 A 
HETATM   15  N   UNL     1       4.434  33.229  64.998  1.00  0.00    -0.231 NA
HETATM   16  C   UNL     1       5.494  32.866  64.202  1.00  0.00     0.085 A 
HETATM   17  C   UNL     1       6.698  33.291  64.753  1.00  0.00     0.062 A 
HETATM   18  C   UNL     1       5.506  32.166  62.987  1.00  0.00     0.034 A 
HETATM   19  N   UNL     1       6.334  33.929  65.911  1.00  0.00    -0.341 N 
HETATM   20  C   UNL     1       7.939  33.055  64.158  1.00  0.00     0.032 A 
HETATM   21  H   UNL     1       6.965  34.367  66.566  1.00  0.00     0.167 HD
HETATM   22  C   UNL     1       7.931  32.352  62.946  1.00  0.00     0.002 A 
HETATM   23  C   UNL     1       6.737  31.914  62.369  1.00  0.00     0.002 A 
ENDBRANCH   2  14
TORSDOF 4
ENDMDL
MODEL 7
REMARK VINA RESULT:      -7.5     11.209     15.436
REMARK  4 active torsions:
REMARK  status: ('A' for Active; 'I' for Inactive)
REMARK    1  A    between atoms: C_2  and  N_3 
REMARK    2  A    between atoms: C_2  and  C_13 
REMARK       I    between atoms: N_3  and  C_4 
REMARK    3  A    between atoms: C_4  and  C_5 
REMARK    4  A    between atoms: C_6  and  C_7 
ROOT
HETATM    1  C   UNL     1       4.056  34.255  66.837  1.00  0.00     0.040 C 
HETATM    2  C   UNL     1       5.536  34.628  66.894  1.00  0.00     0.150 C 
ENDROOT
BRANCH   2   3
HETATM    3  N   UNL     1       6.319  33.813  65.988  1.00  0.00    -0.346 N 
HETATM    4  C   UNL     1       6.541  34.176  64.689  1.00  0.00     0.241 C 
HETATM    5  O   UNL     1       6.143  35.223  64.195  1.00  0.00    -0.269 OA
HETATM    6  H   UNL     1       6.633  32.921  66.356  1.00  0.00     0.163 HD
BRANCH   4   7
HETATM    7  C   UNL     1       7.311  33.165  63.927  1.00  0.00     0.075 C 
HETATM    8  C   UNL     1       7.130  33.053  62.601  1.00  0.00     0.017 C 
BRANCH   8   9
HETATM    9  C   UNL     1       7.793  32.124  61.735  1.00  0.00    -0.029 A 
HETATM   10  C   UNL     1       7.336  31.876  60.455  1.00  0.00     0.061 A 
HETATM   11  S   UNL     1       8.296  30.727  59.626  1.00  0.00    -0.113 SA
HETATM   12  C   UNL     1       9.339  30.553  60.969  1.00  0.00     0.050 A 
HETATM   13  C   UNL     1       8.961  31.351  62.027  1.00  0.00     0.019 A 
ENDBRANCH   8   9
ENDBRANCH   4   7
ENDBRANCH   2   3
BRANCH   2  14
HETATM   14  C   UNL     1       6.084  34.400  68.271  1.00  0.00     0.127 A 
HETATM   15  N   UNL     1       5.449  33.852  69.294  1.00  0.00    -0.231 NA
HETATM   16  C   UNL     1       6.345  33.873  70.335  1.00  0.00     0.085 A 
HETATM   17  C   UNL     1       7.553  34.435  69.941  1.00  0.00     0.062 A 
HETATM   18  C   UNL     1       6.194  33.428  71.657  1.00  0.00     0.034 A 
HETATM   19  N   UNL     1       7.365  34.753  68.621  1.00  0.00    -0.341 N 
HETATM   20  C   UNL     1       8.645  34.586  70.799  1.00  0.00     0.032 A 
HETATM   21  H   UNL     1       8.048  35.180  68.013  1.00  0.00     0.167 HD
HETATM   22  C   UNL     1       8.476  34.139  72.115  1.00  0.00     0.002 A 
HETATM   23  C   UNL     1       7.273  33.570  72.540  1.00  0.00     0.002 A 
ENDBRANCH   2  14
TORSDOF 4
ENDMDL
MODEL 8
REMARK VINA RESULT:      -7.5      3.864      8.671
REMARK  4 active torsions:
REMARK  status: ('A' for Active; 'I' for Inactive)
REMARK    1  A    between atoms: C_2  and  N_3 
REMARK    2  A    between atoms: C_2  and  C_13 
REMARK       I    between atoms: N_3  and  C_4 
REMARK    3  A    between atoms: C_4  and  C_5 
REMARK    4  A    between atoms: C_6  and  C_7 
ROOT
HETATM    1  C   UNL     1       4.718  29.768  57.160  1.00  0.00     0.040 C 
HETATM    2  C   UNL     1       6.236  29.751  56.991  1.00  0.00     0.150 C 
ENDROOT
BRANCH   2   3
HETATM    3  N   UNL     1       6.729  28.404  56.790  1.00  0.00    -0.346 N 
HETATM    4  C   UNL     1       6.839  27.847  55.547  1.00  0.00     0.241 C 
HETATM    5  O   UNL     1       6.578  28.439  54.507  1.00  0.00    -0.269 OA
HETATM    6  H   UNL     1       6.920  27.874  57.634  1.00  0.00     0.163 HD
BRANCH   4   7
HETATM    7  C   UNL     1       7.302  26.440  55.580  1.00  0.00     0.075 C 
HETATM    8  C   UNL     1       7.118  25.654  54.507  1.00  0.00     0.017 C 
BRANCH   8   9
HETATM    9  C   UNL     1       7.503  24.279  54.393  1.00  0.00    -0.029 A 
HETATM   10  C   UNL     1       7.360  23.399  55.448  1.00  0.00     0.061 A 
HETATM   11  S   UNL     1       7.894  21.819  55.063  1.00  0.00    -0.113 SA
HETATM   12  C   UNL     1       8.317  22.293  53.477  1.00  0.00     0.050 A 
HETATM   13  C   UNL     1       8.060  23.628  53.248  1.00  0.00     0.019 A 
ENDBRANCH   8   9
ENDBRANCH   4   7
ENDBRANCH   2   3
BRANCH   2  14
HETATM   14  C   UNL     1       6.908  30.285  58.220  1.00  0.00     0.127 A 
HETATM   15  N   UNL     1       8.045  29.861  58.746  1.00  0.00    -0.231 NA
HETATM   16  C   UNL     1       8.244  30.637  59.863  1.00  0.00     0.085 A 
HETATM   17  C   UNL     1       7.216  31.559  60.018  1.00  0.00     0.062 A 
HETATM   18  C   UNL     1       9.288  30.610  60.799  1.00  0.00     0.034 A 
HETATM   19  N   UNL     1       6.384  31.321  58.954  1.00  0.00    -0.341 N 
HETATM   20  C   UNL     1       7.158  32.474  61.071  1.00  0.00     0.032 A 
HETATM   21  H   UNL     1       5.529  31.817  58.751  1.00  0.00     0.167 HD
HETATM   22  C   UNL     1       8.207  32.431  61.998  1.00  0.00     0.002 A 
HETATM   23  C   UNL     1       9.254  31.516  61.867  1.00  0.00     0.002 A 
ENDBRANCH   2  14
TORSDOF 4
ENDMDL
MODEL 9
REMARK VINA RESULT:      -7.4      5.913     10.242
REMARK  4 active torsions:
REMARK  status: ('A' for Active; 'I' for Inactive)
REMARK    1  A    between atoms: C_2  and  N_3 
REMARK    2  A    between atoms: C_2  and  C_13 
REMARK       I    between atoms: N_3  and  C_4 
REMARK    3  A    between atoms: C_4  and  C_5 
REMARK    4  A    between atoms: C_6  and  C_7 
ROOT
HETATM    1  C   UNL     1       9.593  31.567  59.185  1.00  0.00     0.040 C 
HETATM    2  C   UNL     1       8.594  30.648  59.886  1.00  0.00     0.150 C 
ENDROOT
BRANCH   2   3
HETATM    3  N   UNL     1       7.496  30.298  59.009  1.00  0.00    -0.346 N 
HETATM    4  C   UNL     1       7.559  29.235  58.153  1.00  0.00     0.241 C 
HETATM    5  O   UNL     1       8.513  28.470  58.081  1.00  0.00    -0.269 OA
HETATM    6  H   UNL     1       6.704  30.933  59.018  1.00  0.00     0.163 HD
BRANCH   4   7
HETATM    7  C   UNL     1       6.351  29.100  57.304  1.00  0.00     0.075 C 
HETATM    8  C   UNL     1       6.407  29.452  56.009  1.00  0.00     0.017 C 
BRANCH   8   9
HETATM    9  C   UNL     1       5.325  29.385  55.071  1.00  0.00    -0.029 A 
HETATM   10  C   UNL     1       5.030  28.218  54.392  1.00  0.00     0.061 A 
HETATM   11  S   UNL     1       3.700  28.396  53.329  1.00  0.00    -0.113 SA
HETATM   12  C   UNL     1       3.500  30.035  53.771  1.00  0.00     0.050 A 
HETATM   13  C   UNL     1       4.430  30.437  54.706  1.00  0.00     0.019 A 
ENDBRANCH   8   9
ENDBRANCH   4   7
ENDBRANCH   2   3
BRANCH   2  14
HETATM   14  C   UNL     1       7.998  31.332  61.081  1.00  0.00     0.127 A 
HETATM   15  N   UNL     1       8.658  31.921  62.064  1.00  0.00    -0.231 NA
HETATM   16  C   UNL     1       7.692  32.384  62.926  1.00  0.00     0.085 A 
HETATM   17  C   UNL     1       6.420  32.083  62.457  1.00  0.00     0.062 A 
HETATM   18  C   UNL     1       7.830  33.075  64.139  1.00  0.00     0.034 A 
HETATM   19  N   UNL     1       6.642  31.422  61.276  1.00  0.00    -0.341 N 
HETATM   20  C   UNL     1       5.250  32.432  63.134  1.00  0.00     0.032 A 
HETATM   21  H   UNL     1       5.929  31.058  60.660  1.00  0.00     0.167 HD
HETATM   22  C   UNL     1       5.406  33.119  64.345  1.00  0.00     0.002 A 
HETATM   23  C   UNL     1       6.673  33.436  64.841  1.00  0.00     0.002 A 
ENDBRANCH   2  14
TORSDOF 4
ENDMDL
MODEL 10
REMARK VINA RESULT:      -7.3      3.687      5.425
REMARK  4 active torsions:
REMARK  status: ('A' for Active; 'I' for Inactive)
REMARK    1  A    between atoms: C_2  and  N_3 
REMARK    2  A    between atoms: C_2  and  C_13 
REMARK       I    between atoms: N_3  and  C_4 
REMARK    3  A    between atoms: C_4  and  C_5 
REMARK    4  A    between atoms: C_6  and  C_7 
ROOT
HETATM    1  C   UNL     1       6.865  25.752  57.304  1.00  0.00     0.040 C 
HETATM    2  C   UNL     1       7.395  25.818  55.873  1.00  0.00     0.150 C 
ENDROOT
BRANCH   2   3
HETATM    3  N   UNL     1       6.428  26.425  54.981  1.00  0.00    -0.346 N 
HETATM    4  C   UNL     1       6.749  27.473  54.165  1.00  0.00     0.241 C 
HETATM    5  O   UNL     1       7.871  27.956  54.082  1.00  0.00    -0.269 OA
HETATM    6  H   UNL     1       5.479  26.072  55.052  1.00  0.00     0.163 HD
BRANCH   4   7
HETATM    7  C   UNL     1       5.593  27.979  53.387  1.00  0.00     0.075 C 
HETATM    8  C   UNL     1       5.495  27.690  52.080  1.00  0.00     0.017 C 
BRANCH   8   9
HETATM    9  C   UNL     1       4.445  28.112  51.200  1.00  0.00    -0.029 A 
HETATM   10  C   UNL     1       4.291  27.561  49.942  1.00  0.00     0.061 A 
HETATM   11  S   UNL     1       2.969  28.232  49.088  1.00  0.00    -0.113 SA
HETATM   12  C   UNL     1       2.583  29.264  50.394  1.00  0.00     0.050 A 
HETATM   13  C   UNL     1       3.446  29.102  51.457  1.00  0.00     0.019 A 
ENDBRANCH   8   9
ENDBRANCH   4   7
ENDBRANCH   2   3
BRANCH   2  14
HETATM   14  C   UNL     1       7.668  24.440  55.349  1.00  0.00     0.127 A 
HETATM   15  N   UNL     1       7.673  24.063  54.081  1.00  0.00    -0.231 NA
HETATM   16  C   UNL     1       7.956  22.718  54.100  1.00  0.00     0.085 A 
HETATM   17  C   UNL     1       8.137  22.266  55.402  1.00  0.00     0.062 A 
HETATM   18  C   UNL     1       8.074  21.811  53.037  1.00  0.00     0.034 A 
HETATM   19  N   UNL     1       7.959  23.383  56.177  1.00  0.00    -0.341 N 
HETATM   20  C   UNL     1       8.433  20.938  55.718  1.00  0.00     0.032 A 
HETATM   21  H   UNL     1       8.022  23.419  57.184  1.00  0.00     0.167 HD
HETATM   22  C   UNL     1       8.544  20.046  54.644  1.00  0.00     0.002 A 
HETATM   23  C   UNL     1       8.368  20.473  53.326  1.00  0.00     0.002 A 
ENDBRANCH   2  14
TORSDOF 4
ENDMDL
