MODEL 1
REMARK VINA RESULT:      -9.3      0.000      0.000
REMARK  7 active torsions:
REMARK  status: ('A' for Active; 'I' for Inactive)
REMARK    1  A    between atoms: C_2  and  O_3 
REMARK    2  A    between atoms: O_3  and  C_4 
REMARK    3  A    between atoms: C_7  and  N_8 
REMARK    4  A    between atoms: C_9  and  C_11 
REMARK    5  A    between atoms: C_9  and  O_10 
REMARK       I    between atoms: C_11  and  N_12 
REMARK    6  A    between atoms: N_12  and  C_13 
REMARK    7  A    between atoms: C_13  and  C_14 
ROOT
HETATM    1  N   UNL     1       5.204  27.461  53.897  1.00  0.00    -0.254 N 
HETATM    2  C   UNL     1       5.161  26.538  52.745  1.00  0.00     0.256 C 
HETATM    3  C   UNL     1       4.630  27.187  51.480  1.00  0.00     0.034 A 
HETATM    4  C   UNL     1       3.819  28.310  51.610  1.00  0.00     0.048 A 
HETATM    5  N   UNL     1       3.588  28.829  52.877  1.00  0.00    -0.308 N 
HETATM    6  C   UNL     1       4.238  28.451  54.015  1.00  0.00     0.330 C 
HETATM    7  O   UNL     1       3.973  29.063  55.050  1.00  0.00    -0.246 OA
HETATM    8  C   UNL     1       4.831  26.661  50.191  1.00  0.00     0.015 A 
HETATM    9  C   UNL     1       4.263  27.275  49.071  1.00  0.00     0.001 A 
HETATM   10  C   UNL     1       3.464  28.404  49.226  1.00  0.00     0.002 A 
HETATM   11  C   UNL     1       3.232  28.919  50.499  1.00  0.00     0.030 A 
HETATM   12  H   UNL     1       2.967  29.617  52.995  1.00  0.00     0.170 HD
ENDROOT
BRANCH   2  13
HETATM   13  C   UNL     1       6.543  25.818  52.437  1.00  0.00     0.279 C 
HETATM   14  N   UNL     1       6.517  24.450  52.657  1.00  0.00    -0.352 N 
HETATM   15  H   UNL     1       5.597  24.021  52.714  1.00  0.00     0.162 HD
HETATM   16  O   UNL     1       7.561  26.398  52.060  1.00  0.00    -0.268 OA
BRANCH  14  17
HETATM   17  C   UNL     1       7.660  23.622  52.369  1.00  0.00     0.161 C 
BRANCH  17  18
HETATM   18  C   UNL     1       7.808  22.543  53.407  1.00  0.00    -0.040 A 
HETATM   19  C   UNL     1       8.245  21.259  53.048  1.00  0.00     0.012 A 
HETATM   20  C   UNL     1       8.357  20.255  54.013  1.00  0.00     0.043 A 
HETATM   21  C   UNL     1       8.027  20.535  55.333  1.00  0.00     0.116 A 
HETATM   22  F   UNL     1       8.135  19.571  56.258  1.00  0.00    -0.206 F 
HETATM   23  C   UNL     1       7.582  21.796  55.708  1.00  0.00     0.043 A 
HETATM   24  C   UNL     1       7.467  22.801  54.747  1.00  0.00     0.012 A 
ENDBRANCH  17  18
ENDBRANCH  14  17
ENDBRANCH   2  13
BRANCH   2  25
HETATM   25  O   UNL     1       4.196  25.520  53.080  1.00  0.00    -0.359 OA
HETATM   26  H   UNL     1       4.182  24.946  52.297  1.00  0.00     0.213 HD
ENDBRANCH   2  25
BRANCH   1  27
HETATM   27  C   UNL     1       5.926  27.071  55.069  1.00  0.00     0.043 A 
HETATM   28  C   UNL     1       7.114  27.718  55.436  1.00  0.00     0.032 A 
HETATM   29  C   UNL     1       7.827  27.322  56.576  1.00  0.00     0.039 A 
HETATM   30  C   UNL     1       7.371  26.259  57.352  1.00  0.00     0.068 A 
HETATM   31  C   UNL     1       6.197  25.602  56.981  1.00  0.00     0.039 A 
HETATM   32  C   UNL     1       5.488  25.994  55.844  1.00  0.00     0.032 A 
BRANCH  30  33
HETATM   33  O   UNL     1       7.972  25.763  58.475  1.00  0.00    -0.352 OA
BRANCH  33  34
HETATM   34  C   UNL     1       8.624  24.501  58.358  1.00  0.00     0.171 C 
HETATM   35  C   UNL     1       9.510  24.548  57.127  1.00  0.00     0.034 C 
ENDBRANCH  33  34
ENDBRANCH  30  33
ENDBRANCH   1  27
TORSDOF 7
ENDMDL
MODEL 2
REMARK VINA RESULT:      -9.2      1.759      5.809
REMARK  7 active torsions:
REMARK  status: ('A' for Active; 'I' for Inactive)
REMARK    1  A    between atoms: C_2  and  O_3 
REMARK    2  A    between atoms: O_3  and  C_4 
REMARK    3  A    between atoms: C_7  and  N_8 
REMARK    4  A    between atoms: C_9  and  C_11 
REMARK    5  A    between atoms: C_9  and  O_10 
REMARK       I    between atoms: C_11  and  N_12 
REMARK    6  A    between atoms: N_12  and  C_13 
REMARK    7  A    between atoms: C_13  and  C_14 
ROOT
HETATM    1  N   UNL     1       5.219  27.177  52.845  1.00  0.00    -0.254 N 
HETATM    2  C   UNL     1       6.571  27.010  53.415  1.00  0.00     0.256 C 
HETATM    3  C   UNL     1       6.571  26.878  54.927  1.00  0.00     0.034 A 
HETATM    4  C   UNL     1       5.487  27.395  55.629  1.00  0.00     0.048 A 
HETATM    5  N   UNL     1       4.427  27.944  54.920  1.00  0.00    -0.308 N 
HETATM    6  C   UNL     1       4.253  27.860  53.571  1.00  0.00     0.330 C 
HETATM    7  O   UNL     1       3.217  28.334  53.101  1.00  0.00    -0.246 OA
HETATM    8  C   UNL     1       7.647  26.348  55.663  1.00  0.00     0.015 A 
HETATM    9  C   UNL     1       7.607  26.310  57.059  1.00  0.00     0.001 A 
HETATM   10  C   UNL     1       6.507  26.825  57.740  1.00  0.00     0.002 A 
HETATM   11  C   UNL     1       5.447  27.378  57.025  1.00  0.00     0.030 A 
HETATM   12  H   UNL     1       3.652  28.364  55.415  1.00  0.00     0.170 HD
ENDROOT
BRANCH   2  13
HETATM   13  C   UNL     1       7.404  25.819  52.773  1.00  0.00     0.279 C 
HETATM   14  N   UNL     1       6.889  24.564  53.062  1.00  0.00    -0.352 N 
HETATM   15  H   UNL     1       5.929  24.537  53.393  1.00  0.00     0.162 HD
HETATM   16  O   UNL     1       8.423  25.966  52.100  1.00  0.00    -0.268 OA
BRANCH  14  17
HETATM   17  C   UNL     1       7.476  23.369  52.511  1.00  0.00     0.161 C 
BRANCH  17  18
HETATM   18  C   UNL     1       7.988  22.476  53.608  1.00  0.00    -0.040 A 
HETATM   19  C   UNL     1       8.267  22.995  54.882  1.00  0.00     0.012 A 
HETATM   20  C   UNL     1       8.766  22.165  55.888  1.00  0.00     0.043 A 
HETATM   21  C   UNL     1       8.990  20.820  55.619  1.00  0.00     0.116 A 
HETATM   22  F   UNL     1       9.468  20.026  56.586  1.00  0.00    -0.206 F 
HETATM   23  C   UNL     1       8.731  20.289  54.362  1.00  0.00     0.043 A 
HETATM   24  C   UNL     1       8.235  21.115  53.353  1.00  0.00     0.012 A 
ENDBRANCH  17  18
ENDBRANCH  14  17
ENDBRANCH   2  13
BRANCH   2  25
HETATM   25  O   UNL     1       7.276  28.239  53.145  1.00  0.00    -0.359 OA
HETATM   26  H   UNL     1       7.418  28.220  52.184  1.00  0.00     0.213 HD
ENDBRANCH   2  25
BRANCH   1  27
HETATM   27  C   UNL     1       5.041  27.043  51.432  1.00  0.00     0.043 A 
HETATM   28  C   UNL     1       5.291  28.116  50.565  1.00  0.00     0.032 A 
HETATM   29  C   UNL     1       5.100  27.984  49.183  1.00  0.00     0.039 A 
HETATM   30  C   UNL     1       4.634  26.783  48.652  1.00  0.00     0.068 A 
HETATM   31  C   UNL     1       4.370  25.718  49.513  1.00  0.00     0.039 A 
HETATM   32  C   UNL     1       4.558  25.849  50.891  1.00  0.00     0.032 A 
BRANCH  30  33
HETATM   33  O   UNL     1       4.392  26.524  47.332  1.00  0.00    -0.352 OA
BRANCH  33  34
HETATM   34  C   UNL     1       3.109  25.998  47.000  1.00  0.00     0.171 C 
HETATM   35  C   UNL     1       2.117  27.147  47.023  1.00  0.00     0.034 C 
ENDBRANCH  33  34
ENDBRANCH  30  33
ENDBRANCH   1  27
TORSDOF 7
ENDMDL
MODEL 3
REMARK VINA RESULT:      -9.2      3.287      6.062
REMARK  7 active torsions:
REMARK  status: ('A' for Active; 'I' for Inactive)
REMARK    1  A    between atoms: C_2  and  O_3 
REMARK    2  A    between atoms: O_3  and  C_4 
REMARK    3  A    between atoms: C_7  and  N_8 
REMARK    4  A    between atoms: C_9  and  C_11 
REMARK    5  A    between atoms: C_9  and  O_10 
REMARK       I    between atoms: C_11  and  N_12 
REMARK    6  A    between atoms: N_12  and  C_13 
REMARK    7  A    between atoms: C_13  and  C_14 
ROOT
HETATM    1  N   UNL     1       5.704  26.694  53.058  1.00  0.00    -0.254 N 
HETATM    2  C   UNL     1       5.978  27.924  53.829  1.00  0.00     0.256 C 
HETATM    3  C   UNL     1       4.903  28.982  53.668  1.00  0.00     0.034 A 
HETATM    4  C   UNL     1       4.106  28.937  52.529  1.00  0.00     0.048 A 
HETATM    5  N   UNL     1       4.277  27.894  51.629  1.00  0.00    -0.308 N 
HETATM    6  C   UNL     1       5.040  26.784  51.843  1.00  0.00     0.330 C 
HETATM    7  O   UNL     1       5.028  25.910  50.975  1.00  0.00    -0.246 OA
HETATM    8  C   UNL     1       4.731  30.060  54.555  1.00  0.00     0.015 A 
HETATM    9  C   UNL     1       3.759  31.034  54.316  1.00  0.00     0.001 A 
HETATM   10  C   UNL     1       2.965  30.963  53.174  1.00  0.00     0.002 A 
HETATM   11  C   UNL     1       3.144  29.917  52.272  1.00  0.00     0.030 A 
HETATM   12  H   UNL     1       3.737  27.870  50.774  1.00  0.00     0.170 HD
ENDROOT
BRANCH   2  13
HETATM   13  C   UNL     1       6.257  27.674  55.373  1.00  0.00     0.279 C 
HETATM   14  N   UNL     1       7.604  27.671  55.700  1.00  0.00    -0.352 N 
HETATM   15  H   UNL     1       8.233  28.087  55.019  1.00  0.00     0.162 HD
HETATM   16  O   UNL     1       5.381  27.479  56.215  1.00  0.00    -0.268 OA
BRANCH  14  17
HETATM   17  C   UNL     1       8.043  27.524  57.064  1.00  0.00     0.161 C 
BRANCH  17  18
HETATM   18  C   UNL     1       8.679  28.797  57.555  1.00  0.00    -0.040 A 
HETATM   19  C   UNL     1       9.924  29.213  57.058  1.00  0.00     0.012 A 
HETATM   20  C   UNL     1      10.519  30.383  57.536  1.00  0.00     0.043 A 
HETATM   21  C   UNL     1       9.873  31.131  58.514  1.00  0.00     0.116 A 
HETATM   22  F   UNL     1      10.445  32.252  58.970  1.00  0.00    -0.206 F 
HETATM   23  C   UNL     1       8.646  30.730  59.027  1.00  0.00     0.043 A 
HETATM   24  C   UNL     1       8.049  29.561  58.553  1.00  0.00     0.012 A 
ENDBRANCH  17  18
ENDBRANCH  14  17
ENDBRANCH   2  13
BRANCH   2  25
HETATM   25  O   UNL     1       7.166  28.503  53.253  1.00  0.00    -0.359 OA
HETATM   26  H   UNL     1       7.318  27.976  52.452  1.00  0.00     0.213 HD
ENDBRANCH   2  25
BRANCH   1  27
HETATM   27  C   UNL     1       6.482  25.522  53.324  1.00  0.00     0.043 A 
HETATM   28  C   UNL     1       6.137  24.643  54.359  1.00  0.00     0.032 A 
HETATM   29  C   UNL     1       6.911  23.506  54.625  1.00  0.00     0.039 A 
HETATM   30  C   UNL     1       8.054  23.245  53.873  1.00  0.00     0.068 A 
HETATM   31  C   UNL     1       8.410  24.126  52.851  1.00  0.00     0.039 A 
HETATM   32  C   UNL     1       7.640  25.262  52.587  1.00  0.00     0.032 A 
BRANCH  30  33
HETATM   33  O   UNL     1       8.902  22.186  54.033  1.00  0.00    -0.352 OA
BRANCH  33  34
HETATM   34  C   UNL     1       8.313  20.890  54.109  1.00  0.00     0.171 C 
HETATM   35  C   UNL     1       8.208  20.344  52.697  1.00  0.00     0.034 C 
ENDBRANCH  33  34
ENDBRANCH  30  33
ENDBRANCH   1  27
TORSDOF 7
ENDMDL
MODEL 4
REMARK VINA RESULT:      -9.1      1.401      2.201
REMARK  7 active torsions:
REMARK  status: ('A' for Active; 'I' for Inactive)
REMARK    1  A    between atoms: C_2  and  O_3 
REMARK    2  A    between atoms: O_3  and  C_4 
REMARK    3  A    between atoms: C_7  and  N_8 
REMARK    4  A    between atoms: C_9  and  C_11 
REMARK    5  A    between atoms: C_9  and  O_10 
REMARK       I    between atoms: C_11  and  N_12 
REMARK    6  A    between atoms: N_12  and  C_13 
REMARK    7  A    between atoms: C_13  and  C_14 
ROOT
HETATM    1  N   UNL     1       5.222  28.009  53.265  1.00  0.00    -0.254 N 
HETATM    2  C   UNL     1       5.166  26.762  52.477  1.00  0.00     0.256 C 
HETATM    3  C   UNL     1       4.651  26.970  51.065  1.00  0.00     0.034 A 
HETATM    4  C   UNL     1       3.861  28.086  50.814  1.00  0.00     0.048 A 
HETATM    5  N   UNL     1       3.636  28.995  51.839  1.00  0.00    -0.308 N 
HETATM    6  C   UNL     1       4.275  29.000  53.043  1.00  0.00     0.330 C 
HETATM    7  O   UNL     1       4.018  29.921  53.820  1.00  0.00    -0.246 OA
HETATM    8  C   UNL     1       4.847  26.048  50.020  1.00  0.00     0.015 A 
HETATM    9  C   UNL     1       4.294  26.272  48.756  1.00  0.00     0.001 A 
HETATM   10  C   UNL     1       3.515  27.402  48.526  1.00  0.00     0.002 A 
HETATM   11  C   UNL     1       3.288  28.308  49.559  1.00  0.00     0.030 A 
HETATM   12  H   UNL     1       3.028  29.789  51.687  1.00  0.00     0.170 HD
ENDROOT
BRANCH   2  13
HETATM   13  C   UNL     1       6.536  25.958  52.434  1.00  0.00     0.279 C 
HETATM   14  N   UNL     1       6.421  24.644  52.860  1.00  0.00    -0.352 N 
HETATM   15  H   UNL     1       5.481  24.259  52.884  1.00  0.00     0.162 HD
HETATM   16  O   UNL     1       7.613  26.438  52.082  1.00  0.00    -0.268 OA
BRANCH  14  17
HETATM   17  C   UNL     1       7.547  23.745  52.828  1.00  0.00     0.161 C 
BRANCH  17  18
HETATM   18  C   UNL     1       7.744  23.095  54.170  1.00  0.00    -0.040 A 
HETATM   19  C   UNL     1       7.955  23.873  55.319  1.00  0.00     0.012 A 
HETATM   20  C   UNL     1       8.161  23.262  56.558  1.00  0.00     0.043 A 
HETATM   21  C   UNL     1       8.162  21.875  56.646  1.00  0.00     0.116 A 
HETATM   22  F   UNL     1       8.359  21.290  57.835  1.00  0.00    -0.206 F 
HETATM   23  C   UNL     1       7.965  21.086  55.519  1.00  0.00     0.043 A 
HETATM   24  C   UNL     1       7.761  21.693  54.280  1.00  0.00     0.012 A 
ENDBRANCH  17  18
ENDBRANCH  14  17
ENDBRANCH   2  13
BRANCH   2  25
HETATM   25  O   UNL     1       4.182  25.925  53.117  1.00  0.00    -0.359 OA
HETATM   26  H   UNL     1       3.891  25.325  52.412  1.00  0.00     0.213 HD
ENDBRANCH   2  25
BRANCH   1  27
HETATM   27  C   UNL     1       5.934  28.013  54.506  1.00  0.00     0.043 A 
HETATM   28  C   UNL     1       5.402  27.399  55.648  1.00  0.00     0.032 A 
HETATM   29  C   UNL     1       6.095  27.420  56.865  1.00  0.00     0.039 A 
HETATM   30  C   UNL     1       7.321  28.076  56.962  1.00  0.00     0.068 A 
HETATM   31  C   UNL     1       7.846  28.702  55.832  1.00  0.00     0.039 A 
HETATM   32  C   UNL     1       7.154  28.684  54.618  1.00  0.00     0.032 A 
BRANCH  30  33
HETATM   33  O   UNL     1       8.092  28.184  58.085  1.00  0.00    -0.352 OA
BRANCH  33  34
HETATM   34  C   UNL     1       8.861  29.376  58.230  1.00  0.00     0.171 C 
HETATM   35  C   UNL     1       8.263  30.179  59.371  1.00  0.00     0.034 C 
ENDBRANCH  33  34
ENDBRANCH  30  33
ENDBRANCH   1  27
TORSDOF 7
ENDMDL
MODEL 5
REMARK VINA RESULT:      -9.0      3.386      6.523
REMARK  7 active torsions:
REMARK  status: ('A' for Active; 'I' for Inactive)
REMARK    1  A    between atoms: C_2  and  O_3 
REMARK    2  A    between atoms: O_3  and  C_4 
REMARK    3  A    between atoms: C_7  and  N_8 
REMARK    4  A    between atoms: C_9  and  C_11 
REMARK    5  A    between atoms: C_9  and  O_10 
REMARK       I    between atoms: C_11  and  N_12 
REMARK    6  A    between atoms: N_12  and  C_13 
REMARK    7  A    between atoms: C_13  and  C_14 
ROOT
HETATM    1  N   UNL     1       5.173  27.298  54.465  1.00  0.00    -0.254 N 
HETATM    2  C   UNL     1       4.354  28.106  53.539  1.00  0.00     0.256 C 
HETATM    3  C   UNL     1       3.905  29.427  54.137  1.00  0.00     0.034 A 
HETATM    4  C   UNL     1       3.850  29.533  55.523  1.00  0.00     0.048 A 
HETATM    5  N   UNL     1       4.272  28.461  56.297  1.00  0.00    -0.308 N 
HETATM    6  C   UNL     1       4.921  27.357  55.829  1.00  0.00     0.330 C 
HETATM    7  O   UNL     1       5.298  26.526  56.656  1.00  0.00    -0.246 OA
HETATM    8  C   UNL     1       3.450  30.515  53.370  1.00  0.00     0.015 A 
HETATM    9  C   UNL     1       2.993  31.683  53.987  1.00  0.00     0.001 A 
HETATM   10  C   UNL     1       2.957  31.770  55.376  1.00  0.00     0.002 A 
HETATM   11  C   UNL     1       3.377  30.689  56.148  1.00  0.00     0.030 A 
HETATM   12  H   UNL     1       4.198  28.504  57.305  1.00  0.00     0.170 HD
ENDROOT
BRANCH   2  13
HETATM   13  C   UNL     1       5.032  28.362  52.126  1.00  0.00     0.279 C 
HETATM   14  N   UNL     1       4.387  27.722  51.078  1.00  0.00    -0.352 N 
HETATM   15  H   UNL     1       3.439  27.406  51.259  1.00  0.00     0.162 HD
HETATM   16  O   UNL     1       6.043  29.040  51.952  1.00  0.00    -0.268 OA
BRANCH  14  17
HETATM   17  C   UNL     1       4.822  27.892  49.715  1.00  0.00     0.161 C 
BRANCH  17  18
HETATM   18  C   UNL     1       3.694  27.614  48.760  1.00  0.00    -0.040 A 
HETATM   19  C   UNL     1       2.523  28.388  48.790  1.00  0.00     0.012 A 
HETATM   20  C   UNL     1       1.469  28.109  47.917  1.00  0.00     0.043 A 
HETATM   21  C   UNL     1       1.584  27.053  47.020  1.00  0.00     0.116 A 
HETATM   22  F   UNL     1       0.573  26.787  46.183  1.00  0.00    -0.206 F 
HETATM   23  C   UNL     1       2.730  26.268  46.981  1.00  0.00     0.043 A 
HETATM   24  C   UNL     1       3.784  26.543  47.853  1.00  0.00     0.012 A 
ENDBRANCH  17  18
ENDBRANCH  14  17
ENDBRANCH   2  13
BRANCH   2  25
HETATM   25  O   UNL     1       3.140  27.360  53.320  1.00  0.00    -0.359 OA
HETATM   26  H   UNL     1       3.168  27.141  52.374  1.00  0.00     0.213 HD
ENDBRANCH   2  25
BRANCH   1  27
HETATM   27  C   UNL     1       5.885  26.167  53.952  1.00  0.00     0.043 A 
HETATM   28  C   UNL     1       5.207  25.020  53.518  1.00  0.00     0.032 A 
HETATM   29  C   UNL     1       5.910  23.910  53.032  1.00  0.00     0.039 A 
HETATM   30  C   UNL     1       7.302  23.923  52.996  1.00  0.00     0.068 A 
HETATM   31  C   UNL     1       7.981  25.058  53.442  1.00  0.00     0.039 A 
HETATM   32  C   UNL     1       7.282  26.164  53.929  1.00  0.00     0.032 A 
BRANCH  30  33
HETATM   33  O   UNL     1       8.109  22.909  52.561  1.00  0.00    -0.352 OA
BRANCH  33  34
HETATM   34  C   UNL     1       8.541  21.963  53.535  1.00  0.00     0.171 C 
HETATM   35  C   UNL     1       8.053  20.593  53.101  1.00  0.00     0.034 C 
ENDBRANCH  33  34
ENDBRANCH  30  33
ENDBRANCH   1  27
TORSDOF 7
ENDMDL
MODEL 6
REMARK VINA RESULT:      -9.0      3.004      6.926
REMARK  7 active torsions:
REMARK  status: ('A' for Active; 'I' for Inactive)
REMARK    1  A    between atoms: C_2  and  O_3 
REMARK    2  A    between atoms: O_3  and  C_4 
REMARK    3  A    between atoms: C_7  and  N_8 
REMARK    4  A    between atoms: C_9  and  C_11 
REMARK    5  A    between atoms: C_9  and  O_10 
REMARK       I    between atoms: C_11  and  N_12 
REMARK    6  A    between atoms: N_12  and  C_13 
REMARK    7  A    between atoms: C_13  and  C_14 
ROOT
HETATM    1  N   UNL     1       7.202  25.333  55.368  1.00  0.00    -0.254 N 
HETATM    2  C   UNL     1       7.294  24.756  54.012  1.00  0.00     0.256 C 
HETATM    3  C   UNL     1       7.694  23.292  54.012  1.00  0.00     0.034 A 
HETATM    4  C   UNL     1       8.382  22.801  55.117  1.00  0.00     0.048 A 
HETATM    5  N   UNL     1       8.610  23.644  56.196  1.00  0.00    -0.308 N 
HETATM    6  C   UNL     1       8.057  24.879  56.363  1.00  0.00     0.330 C 
HETATM    7  O   UNL     1       8.299  25.473  57.415  1.00  0.00    -0.246 OA
HETATM    8  C   UNL     1       7.494  22.430  52.919  1.00  0.00     0.015 A 
HETATM    9  C   UNL     1       7.941  21.106  52.962  1.00  0.00     0.001 A 
HETATM   10  C   UNL     1       8.618  20.634  54.083  1.00  0.00     0.002 A 
HETATM   11  C   UNL     1       8.849  21.485  55.161  1.00  0.00     0.030 A 
HETATM   12  H   UNL     1       9.146  23.317  56.989  1.00  0.00     0.170 HD
ENDROOT
BRANCH   2  13
HETATM   13  C   UNL     1       5.987  24.953  53.132  1.00  0.00     0.279 C 
HETATM   14  N   UNL     1       6.204  25.683  51.973  1.00  0.00    -0.352 N 
HETATM   15  H   UNL     1       7.170  25.771  51.671  1.00  0.00     0.162 HD
HETATM   16  O   UNL     1       4.873  24.529  53.435  1.00  0.00    -0.268 OA
BRANCH  14  17
HETATM   17  C   UNL     1       5.148  25.907  51.019  1.00  0.00     0.161 C 
BRANCH  17  18
HETATM   18  C   UNL     1       5.209  27.310  50.480  1.00  0.00    -0.040 A 
HETATM   19  C   UNL     1       5.062  27.556  49.106  1.00  0.00     0.012 A 
HETATM   20  C   UNL     1       5.144  28.859  48.610  1.00  0.00     0.043 A 
HETATM   21  C   UNL     1       5.378  29.913  49.486  1.00  0.00     0.116 A 
HETATM   22  F   UNL     1       5.456  31.162  49.008  1.00  0.00    -0.206 F 
HETATM   23  C   UNL     1       5.537  29.689  50.848  1.00  0.00     0.043 A 
HETATM   24  C   UNL     1       5.458  28.389  51.347  1.00  0.00     0.012 A 
ENDBRANCH  17  18
ENDBRANCH  14  17
ENDBRANCH   2  13
BRANCH   2  25
HETATM   25  O   UNL     1       8.379  25.443  53.356  1.00  0.00    -0.359 OA
HETATM   26  H   UNL     1       8.800  25.948  54.069  1.00  0.00     0.213 HD
ENDBRANCH   2  25
BRANCH   1  27
HETATM   27  C   UNL     1       6.579  26.611  55.536  1.00  0.00     0.043 A 
HETATM   28  C   UNL     1       5.322  26.729  56.145  1.00  0.00     0.032 A 
HETATM   29  C   UNL     1       4.710  27.981  56.293  1.00  0.00     0.039 A 
HETATM   30  C   UNL     1       5.337  29.129  55.812  1.00  0.00     0.068 A 
HETATM   31  C   UNL     1       6.581  29.013  55.192  1.00  0.00     0.039 A 
HETATM   32  C   UNL     1       7.191  27.765  55.042  1.00  0.00     0.032 A 
BRANCH  30  33
HETATM   33  O   UNL     1       4.849  30.403  55.877  1.00  0.00    -0.352 OA
BRANCH  33  34
HETATM   34  C   UNL     1       3.505  30.605  55.446  1.00  0.00     0.171 C 
HETATM   35  C   UNL     1       3.496  30.586  53.928  1.00  0.00     0.034 C 
ENDBRANCH  33  34
ENDBRANCH  30  33
ENDBRANCH   1  27
TORSDOF 7
ENDMDL
MODEL 7
REMARK VINA RESULT:      -8.8      3.752      6.684
REMARK  7 active torsions:
REMARK  status: ('A' for Active; 'I' for Inactive)
REMARK    1  A    between atoms: C_2  and  O_3 
REMARK    2  A    between atoms: O_3  and  C_4 
REMARK    3  A    between atoms: C_7  and  N_8 
REMARK    4  A    between atoms: C_9  and  C_11 
REMARK    5  A    between atoms: C_9  and  O_10 
REMARK       I    between atoms: C_11  and  N_12 
REMARK    6  A    between atoms: N_12  and  C_13 
REMARK    7  A    between atoms: C_13  and  C_14 
ROOT
HETATM    1  N   UNL     1       5.815  26.929  54.302  1.00  0.00    -0.254 N 
HETATM    2  C   UNL     1       6.459  28.163  54.796  1.00  0.00     0.256 C 
HETATM    3  C   UNL     1       5.483  29.305  55.004  1.00  0.00     0.034 A 
HETATM    4  C   UNL     1       4.286  29.281  54.296  1.00  0.00     0.048 A 
HETATM    5  N   UNL     1       4.005  28.187  53.488  1.00  0.00    -0.308 N 
HETATM    6  C   UNL     1       4.715  27.024  53.460  1.00  0.00     0.330 C 
HETATM    7  O   UNL     1       4.291  26.116  52.744  1.00  0.00    -0.246 OA
HETATM    8  C   UNL     1       5.761  30.433  55.797  1.00  0.00     0.015 A 
HETATM    9  C   UNL     1       4.841  31.480  55.899  1.00  0.00     0.001 A 
HETATM   10  C   UNL     1       3.645  31.429  55.188  1.00  0.00     0.002 A 
HETATM   11  C   UNL     1       3.369  30.331  54.376  1.00  0.00     0.030 A 
HETATM   12  H   UNL     1       3.160  28.173  52.932  1.00  0.00     0.170 HD
ENDROOT
BRANCH   2  13
HETATM   13  C   UNL     1       7.333  27.959  56.107  1.00  0.00     0.279 C 
HETATM   14  N   UNL     1       8.552  28.618  56.069  1.00  0.00    -0.352 N 
HETATM   15  H   UNL     1       8.645  29.353  55.374  1.00  0.00     0.162 HD
HETATM   16  O   UNL     1       6.993  27.272  57.069  1.00  0.00    -0.268 OA
BRANCH  14  17
HETATM   17  C   UNL     1       9.449  28.600  57.196  1.00  0.00     0.161 C 
BRANCH  17  18
HETATM   18  C   UNL     1       9.219  29.801  58.074  1.00  0.00    -0.040 A 
HETATM   19  C   UNL     1       8.044  29.918  58.833  1.00  0.00     0.012 A 
HETATM   20  C   UNL     1       7.826  31.046  59.627  1.00  0.00     0.043 A 
HETATM   21  C   UNL     1       8.778  32.057  59.657  1.00  0.00     0.116 A 
HETATM   22  F   UNL     1       8.568  33.138  60.419  1.00  0.00    -0.206 F 
HETATM   23  C   UNL     1       9.943  31.966  58.905  1.00  0.00     0.043 A 
HETATM   24  C   UNL     1      10.164  30.841  58.109  1.00  0.00     0.012 A 
ENDBRANCH  17  18
ENDBRANCH  14  17
ENDBRANCH   2  13
BRANCH   2  25
HETATM   25  O   UNL     1       7.339  28.606  53.743  1.00  0.00    -0.359 OA
HETATM   26  H   UNL     1       7.927  29.242  54.182  1.00  0.00     0.213 HD
ENDBRANCH   2  25
BRANCH   1  27
HETATM   27  C   UNL     1       6.556  25.705  54.319  1.00  0.00     0.043 A 
HETATM   28  C   UNL     1       7.523  25.431  53.343  1.00  0.00     0.032 A 
HETATM   29  C   UNL     1       8.235  24.224  53.355  1.00  0.00     0.039 A 
HETATM   30  C   UNL     1       7.972  23.265  54.331  1.00  0.00     0.068 A 
HETATM   31  C   UNL     1       6.999  23.529  55.296  1.00  0.00     0.039 A 
HETATM   32  C   UNL     1       6.287  24.730  55.283  1.00  0.00     0.032 A 
BRANCH  30  33
HETATM   33  O   UNL     1       8.579  22.047  54.451  1.00  0.00    -0.352 OA
BRANCH  33  34
HETATM   34  C   UNL     1       9.086  21.456  53.257  1.00  0.00     0.171 C 
HETATM   35  C   UNL     1       8.073  20.431  52.779  1.00  0.00     0.034 C 
ENDBRANCH  33  34
ENDBRANCH  30  33
ENDBRANCH   1  27
TORSDOF 7
ENDMDL
MODEL 8
REMARK VINA RESULT:      -8.6      2.044      4.638
REMARK  7 active torsions:
REMARK  status: ('A' for Active; 'I' for Inactive)
REMARK    1  A    between atoms: C_2  and  O_3 
REMARK    2  A    between atoms: O_3  and  C_4 
REMARK    3  A    between atoms: C_7  and  N_8 
REMARK    4  A    between atoms: C_9  and  C_11 
REMARK    5  A    between atoms: C_9  and  O_10 
REMARK       I    between atoms: C_11  and  N_12 
REMARK    6  A    between atoms: N_12  and  C_13 
REMARK    7  A    between atoms: C_13  and  C_14 
ROOT
HETATM    1  N   UNL     1       4.860  27.367  51.407  1.00  0.00    -0.254 N 
HETATM    2  C   UNL     1       4.876  28.702  52.038  1.00  0.00     0.256 C 
HETATM    3  C   UNL     1       3.818  29.638  51.483  1.00  0.00     0.034 A 
HETATM    4  C   UNL     1       3.322  29.384  50.209  1.00  0.00     0.048 A 
HETATM    5  N   UNL     1       3.760  28.255  49.530  1.00  0.00    -0.308 N 
HETATM    6  C   UNL     1       4.504  27.248  50.071  1.00  0.00     0.330 C 
HETATM    7  O   UNL     1       4.748  26.275  49.357  1.00  0.00    -0.246 OA
HETATM    8  C   UNL     1       3.381  30.800  52.145  1.00  0.00     0.015 A 
HETATM    9  C   UNL     1       2.446  31.652  51.551  1.00  0.00     0.001 A 
HETATM   10  C   UNL     1       1.957  31.372  50.278  1.00  0.00     0.002 A 
HETATM   11  C   UNL     1       2.402  30.240  49.599  1.00  0.00     0.030 A 
HETATM   12  H   UNL     1       3.444  28.078  48.586  1.00  0.00     0.170 HD
ENDROOT
BRANCH   2  13
HETATM   13  C   UNL     1       4.786  28.673  53.624  1.00  0.00     0.279 C 
HETATM   14  N   UNL     1       6.005  28.871  54.253  1.00  0.00    -0.352 N 
HETATM   15  H   UNL     1       6.743  29.277  53.684  1.00  0.00     0.162 HD
HETATM   16  O   UNL     1       3.751  28.473  54.258  1.00  0.00    -0.268 OA
BRANCH  14  17
HETATM   17  C   UNL     1       6.106  28.942  55.688  1.00  0.00     0.161 C 
BRANCH  17  18
HETATM   18  C   UNL     1       6.709  27.678  56.239  1.00  0.00    -0.040 A 
HETATM   19  C   UNL     1       5.981  26.478  56.238  1.00  0.00     0.012 A 
HETATM   20  C   UNL     1       6.537  25.314  56.774  1.00  0.00     0.043 A 
HETATM   21  C   UNL     1       7.817  25.353  57.315  1.00  0.00     0.116 A 
HETATM   22  F   UNL     1       8.349  24.236  57.827  1.00  0.00    -0.206 F 
HETATM   23  C   UNL     1       8.550  26.533  57.335  1.00  0.00     0.043 A 
HETATM   24  C   UNL     1       7.997  27.698  56.803  1.00  0.00     0.012 A 
ENDBRANCH  17  18
ENDBRANCH  14  17
ENDBRANCH   2  13
BRANCH   2  25
HETATM   25  O   UNL     1       6.136  29.303  51.678  1.00  0.00    -0.359 OA
HETATM   26  H   UNL     1       6.078  30.203  52.038  1.00  0.00     0.213 HD
ENDBRANCH   2  25
BRANCH   1  27
HETATM   27  C   UNL     1       5.610  26.308  52.009  1.00  0.00     0.043 A 
HETATM   28  C   UNL     1       7.007  26.262  51.910  1.00  0.00     0.032 A 
HETATM   29  C   UNL     1       7.735  25.213  52.488  1.00  0.00     0.039 A 
HETATM   30  C   UNL     1       7.073  24.183  53.153  1.00  0.00     0.068 A 
HETATM   31  C   UNL     1       5.681  24.218  53.240  1.00  0.00     0.039 A 
HETATM   32  C   UNL     1       4.954  25.261  52.663  1.00  0.00     0.032 A 
BRANCH  30  33
HETATM   33  O   UNL     1       7.655  23.100  53.747  1.00  0.00    -0.352 OA
BRANCH  33  34
HETATM   34  C   UNL     1       7.899  21.962  52.922  1.00  0.00     0.171 C 
HETATM   35  C   UNL     1       7.878  20.731  53.810  1.00  0.00     0.034 C 
ENDBRANCH  33  34
ENDBRANCH  30  33
ENDBRANCH   1  27
TORSDOF 7
ENDMDL
MODEL 9
REMARK VINA RESULT:      -8.6      3.110      6.910
REMARK  7 active torsions:
REMARK  status: ('A' for Active; 'I' for Inactive)
REMARK    1  A    between atoms: C_2  and  O_3 
REMARK    2  A    between atoms: O_3  and  C_4 
REMARK    3  A    between atoms: C_7  and  N_8 
REMARK    4  A    between atoms: C_9  and  C_11 
REMARK    5  A    between atoms: C_9  and  O_10 
REMARK       I    between atoms: C_11  and  N_12 
REMARK    6  A    between atoms: N_12  and  C_13 
REMARK    7  A    between atoms: C_13  and  C_14 
ROOT
HETATM    1  N   UNL     1       7.055  25.687  55.450  1.00  0.00    -0.254 N 
HETATM    2  C   UNL     1       7.199  25.152  54.081  1.00  0.00     0.256 C 
HETATM    3  C   UNL     1       7.648  23.703  54.050  1.00  0.00     0.034 A 
HETATM    4  C   UNL     1       8.326  23.204  55.157  1.00  0.00     0.048 A 
HETATM    5  N   UNL     1       8.501  24.023  56.264  1.00  0.00    -0.308 N 
HETATM    6  C   UNL     1       7.902  25.233  56.452  1.00  0.00     0.330 C 
HETATM    7  O   UNL     1       8.099  25.804  57.526  1.00  0.00    -0.246 OA
HETATM    8  C   UNL     1       7.504  22.866  52.928  1.00  0.00     0.015 A 
HETATM    9  C   UNL     1       7.994  21.558  52.945  1.00  0.00     0.001 A 
HETATM   10  C   UNL     1       8.660  21.077  54.068  1.00  0.00     0.002 A 
HETATM   11  C   UNL     1       8.837  21.904  55.175  1.00  0.00     0.030 A 
HETATM   12  H   UNL     1       9.029  23.691  57.060  1.00  0.00     0.170 HD
ENDROOT
BRANCH   2  13
HETATM   13  C   UNL     1       5.906  25.331  53.175  1.00  0.00     0.279 C 
HETATM   14  N   UNL     1       6.092  26.201  52.111  1.00  0.00    -0.352 N 
HETATM   15  H   UNL     1       7.055  26.405  51.859  1.00  0.00     0.162 HD
HETATM   16  O   UNL     1       4.827  24.781  53.386  1.00  0.00    -0.268 OA
BRANCH  14  17
HETATM   17  C   UNL     1       5.049  26.435  51.145  1.00  0.00     0.161 C 
BRANCH  17  18
HETATM   18  C   UNL     1       4.433  27.793  51.349  1.00  0.00    -0.040 A 
HETATM   19  C   UNL     1       4.026  28.210  52.626  1.00  0.00     0.012 A 
HETATM   20  C   UNL     1       3.433  29.461  52.805  1.00  0.00     0.043 A 
HETATM   21  C   UNL     1       3.242  30.292  51.707  1.00  0.00     0.116 A 
HETATM   22  F   UNL     1       2.674  31.492  51.880  1.00  0.00    -0.206 F 
HETATM   23  C   UNL     1       3.628  29.894  50.433  1.00  0.00     0.043 A 
HETATM   24  C   UNL     1       4.219  28.644  50.250  1.00  0.00     0.012 A 
ENDBRANCH  17  18
ENDBRANCH  14  17
ENDBRANCH   2  13
BRANCH   2  25
HETATM   25  O   UNL     1       8.274  25.893  53.470  1.00  0.00    -0.359 OA
HETATM   26  H   UNL     1       7.854  26.334  52.714  1.00  0.00     0.213 HD
ENDBRANCH   2  25
BRANCH   1  27
HETATM   27  C   UNL     1       6.386  26.937  55.639  1.00  0.00     0.043 A 
HETATM   28  C   UNL     1       7.020  28.151  55.339  1.00  0.00     0.032 A 
HETATM   29  C   UNL     1       6.365  29.373  55.541  1.00  0.00     0.039 A 
HETATM   30  C   UNL     1       5.075  29.399  56.067  1.00  0.00     0.068 A 
HETATM   31  C   UNL     1       4.447  28.193  56.381  1.00  0.00     0.039 A 
HETATM   32  C   UNL     1       5.099  26.974  56.182  1.00  0.00     0.032 A 
BRANCH  30  33
HETATM   33  O   UNL     1       4.330  30.515  56.325  1.00  0.00    -0.352 OA
BRANCH  33  34
HETATM   34  C   UNL     1       4.744  31.728  55.701  1.00  0.00     0.171 C 
HETATM   35  C   UNL     1       5.009  32.747  56.795  1.00  0.00     0.034 C 
ENDBRANCH  33  34
ENDBRANCH  30  33
ENDBRANCH   1  27
TORSDOF 7
ENDMDL
MODEL 10
REMARK VINA RESULT:      -8.6      2.421      3.198
REMARK  7 active torsions:
REMARK  status: ('A' for Active; 'I' for Inactive)
REMARK    1  A    between atoms: C_2  and  O_3 
REMARK    2  A    between atoms: O_3  and  C_4 
REMARK    3  A    between atoms: C_7  and  N_8 
REMARK    4  A    between atoms: C_9  and  C_11 
REMARK    5  A    between atoms: C_9  and  O_10 
REMARK       I    between atoms: C_11  and  N_12 
REMARK    6  A    between atoms: N_12  and  C_13 
REMARK    7  A    between atoms: C_13  and  C_14 
ROOT
HETATM    1  N   UNL     1       5.655  28.913  54.495  1.00  0.00    -0.254 N 
HETATM    2  C   UNL     1       5.633  27.492  54.096  1.00  0.00     0.256 C 
HETATM    3  C   UNL     1       5.278  27.287  52.635  1.00  0.00     0.034 A 
HETATM    4  C   UNL     1       4.564  28.289  51.988  1.00  0.00     0.048 A 
HETATM    5  N   UNL     1       4.268  29.457  52.678  1.00  0.00    -0.308 N 
HETATM    6  C   UNL     1       4.776  29.804  53.895  1.00  0.00     0.330 C 
HETATM    7  O   UNL     1       4.475  30.912  54.341  1.00  0.00    -0.246 OA
HETATM    8  C   UNL     1       5.547  26.101  51.927  1.00  0.00     0.015 A 
HETATM    9  C   UNL     1       5.139  25.955  50.598  1.00  0.00     0.001 A 
HETATM   10  C   UNL     1       4.434  26.976  49.968  1.00  0.00     0.002 A 
HETATM   11  C   UNL     1       4.136  28.144  50.666  1.00  0.00     0.030 A 
HETATM   12  H   UNL     1       3.712  30.177  52.238  1.00  0.00     0.170 HD
ENDROOT
BRANCH   2  13
HETATM   13  C   UNL     1       6.967  26.700  54.439  1.00  0.00     0.279 C 
HETATM   14  N   UNL     1       6.792  25.703  55.387  1.00  0.00    -0.352 N 
HETATM   15  H   UNL     1       5.836  25.401  55.550  1.00  0.00     0.162 HD
HETATM   16  O   UNL     1       8.066  26.941  53.943  1.00  0.00    -0.268 OA
BRANCH  14  17
HETATM   17  C   UNL     1       7.877  24.839  55.774  1.00  0.00     0.161 C 
BRANCH  17  18
HETATM   18  C   UNL     1       7.846  23.561  54.981  1.00  0.00    -0.040 A 
HETATM   19  C   UNL     1       7.800  22.317  55.629  1.00  0.00     0.012 A 
HETATM   20  C   UNL     1       7.795  21.134  54.887  1.00  0.00     0.043 A 
HETATM   21  C   UNL     1       7.842  21.195  53.499  1.00  0.00     0.116 A 
HETATM   22  F   UNL     1       7.837  20.060  52.789  1.00  0.00    -0.206 F 
HETATM   23  C   UNL     1       7.899  22.416  52.838  1.00  0.00     0.043 A 
HETATM   24  C   UNL     1       7.906  23.600  53.576  1.00  0.00     0.012 A 
ENDBRANCH  17  18
ENDBRANCH  14  17
ENDBRANCH   2  13
BRANCH   2  25
HETATM   25  O   UNL     1       4.554  26.883  54.834  1.00  0.00    -0.359 OA
HETATM   26  H   UNL     1       3.759  27.322  54.490  1.00  0.00     0.213 HD
ENDBRANCH   2  25
BRANCH   1  27
HETATM   27  C   UNL     1       6.231  29.270  55.755  1.00  0.00     0.043 A 
HETATM   28  C   UNL     1       5.429  29.475  56.886  1.00  0.00     0.032 A 
HETATM   29  C   UNL     1       5.997  29.841  58.114  1.00  0.00     0.039 A 
HETATM   30  C   UNL     1       7.374  30.028  58.221  1.00  0.00     0.068 A 
HETATM   31  C   UNL     1       8.174  29.840  57.093  1.00  0.00     0.039 A 
HETATM   32  C   UNL     1       7.608  29.478  55.868  1.00  0.00     0.032 A 
BRANCH  30  33
HETATM   33  O   UNL     1       8.054  30.395  59.348  1.00  0.00    -0.352 OA
BRANCH  33  34
HETATM   34  C   UNL     1       8.954  31.495  59.232  1.00  0.00     0.171 C 
HETATM   35  C   UNL     1       9.008  32.195  60.578  1.00  0.00     0.034 C 
ENDBRANCH  33  34
ENDBRANCH  30  33
ENDBRANCH   1  27
TORSDOF 7
ENDMDL
