MODEL 1
REMARK VINA RESULT:      -9.7      0.000      0.000
REMARK  2 active torsions:
REMARK  status: ('A' for Active; 'I' for Inactive)
REMARK       I    between atoms: N_4  and  C_5 
REMARK       I    between atoms: C_5  and  N_6 
REMARK    1  A    between atoms: N_6  and  C_7 
REMARK    2  A    between atoms: C_20  and  C_21 
ROOT
HETATM    1  C   UNL     1       6.017  30.173  49.351  1.00  0.00     0.011 C 
HETATM    2  C   UNL     1       5.222  30.290  50.647  1.00  0.00     0.002 C 
HETATM    3  C   UNL     1       5.730  29.340  51.727  1.00  0.00     0.132 C 
HETATM    4  N   UNL     1       4.903  28.147  51.627  1.00  0.00    -0.325 N 
HETATM    5  C   UNL     1       5.064  26.967  52.329  1.00  0.00     0.323 C 
HETATM    6  N   UNL     1       6.164  26.944  53.156  1.00  0.00    -0.309 N 
HETATM    7  O   UNL     1       4.290  26.024  52.193  1.00  0.00    -0.247 OA
HETATM    8  C   UNL     1       3.710  28.377  50.808  1.00  0.00     0.125 C 
HETATM    9  C   UNL     1       3.752  29.884  50.497  1.00  0.00     0.036 C 
HETATM   10  H   UNL     1       6.429  27.830  53.558  1.00  0.00     0.170 HD
ENDROOT
BRANCH   6  11
HETATM   11  C   UNL     1       6.761  25.793  53.710  1.00  0.00     0.038 A 
HETATM   12  C   UNL     1       6.858  24.584  53.013  1.00  0.00     0.062 A 
HETATM   13  C   UNL     1       7.518  23.496  53.588  1.00  0.00     0.070 A 
HETATM   14  C   UNL     1       8.072  23.599  54.863  1.00  0.00     0.096 A 
HETATM   15  N   UNL     1       7.662  22.321  52.853  1.00  0.00    -0.323 N 
HETATM   16  O   UNL     1       8.758  22.590  55.479  1.00  0.00    -0.335 OA
HETATM   17  C   UNL     1       7.984  24.803  55.558  1.00  0.00     0.041 A 
HETATM   18  C   UNL     1       8.649  21.310  54.859  1.00  0.00     0.217 C 
HETATM   19  C   UNL     1       8.293  21.225  53.367  1.00  0.00     0.251 C 
HETATM   20  C   UNL     1       7.639  20.484  55.652  1.00  0.00     0.050 C 
HETATM   21  O   UNL     1       8.486  20.220  52.686  1.00  0.00    -0.270 OA
HETATM   22  C   UNL     1       7.338  25.900  54.981  1.00  0.00     0.032 A 
HETATM   23  H   UNL     1       7.344  22.265  51.894  1.00  0.00     0.169 HD
ENDBRANCH   6  11
BRANCH   8  24
HETATM   24  C   UNL     1       3.591  27.531  49.554  1.00  0.00     0.003 A 
HETATM   25  C   UNL     1       2.331  27.411  48.952  1.00  0.00     0.124 A 
HETATM   26  F   UNL     1       1.281  28.063  49.475  1.00  0.00    -0.205 F 
HETATM   27  C   UNL     1       2.129  26.630  47.816  1.00  0.00     0.043 A 
HETATM   28  C   UNL     1       3.202  25.944  47.254  1.00  0.00     0.003 A 
HETATM   29  C   UNL     1       4.466  26.048  47.831  1.00  0.00     0.001 A 
HETATM   30  C   UNL     1       4.660  26.835  48.971  1.00  0.00     0.012 A 
ENDBRANCH   8  24
TORSDOF 2
ENDMDL
MODEL 2
REMARK VINA RESULT:      -9.4      2.682      4.362
REMARK  2 active torsions:
REMARK  status: ('A' for Active; 'I' for Inactive)
REMARK       I    between atoms: N_4  and  C_5 
REMARK       I    between atoms: C_5  and  N_6 
REMARK    1  A    between atoms: N_6  and  C_7 
REMARK    2  A    between atoms: C_20  and  C_21 
ROOT
HETATM    1  C   UNL     1       1.200  27.076  47.994  1.00  0.00     0.011 C 
HETATM    2  C   UNL     1       2.597  26.866  47.419  1.00  0.00     0.002 C 
HETATM    3  C   UNL     1       3.552  26.239  48.430  1.00  0.00     0.132 C 
HETATM    4  N   UNL     1       4.254  27.350  49.054  1.00  0.00    -0.325 N 
HETATM    5  C   UNL     1       5.139  27.279  50.113  1.00  0.00     0.323 C 
HETATM    6  N   UNL     1       5.303  26.015  50.633  1.00  0.00    -0.309 N 
HETATM    7  O   UNL     1       5.705  28.278  50.550  1.00  0.00    -0.247 OA
HETATM    8  C   UNL     1       4.072  28.599  48.309  1.00  0.00     0.125 C 
HETATM    9  C   UNL     1       3.303  28.173  47.046  1.00  0.00     0.036 C 
HETATM   10  H   UNL     1       5.215  25.256  49.975  1.00  0.00     0.170 HD
ENDROOT
BRANCH   6  11
HETATM   11  C   UNL     1       5.853  25.701  51.892  1.00  0.00     0.038 A 
HETATM   12  C   UNL     1       5.138  25.850  53.086  1.00  0.00     0.062 A 
HETATM   13  C   UNL     1       5.711  25.462  54.298  1.00  0.00     0.070 A 
HETATM   14  C   UNL     1       7.002  24.936  54.334  1.00  0.00     0.096 A 
HETATM   15  N   UNL     1       4.960  25.557  55.468  1.00  0.00    -0.323 N 
HETATM   16  O   UNL     1       7.618  24.506  55.476  1.00  0.00    -0.335 OA
HETATM   17  C   UNL     1       7.715  24.778  53.147  1.00  0.00     0.041 A 
HETATM   18  C   UNL     1       6.974  24.874  56.693  1.00  0.00     0.217 C 
HETATM   19  C   UNL     1       5.472  25.197  56.682  1.00  0.00     0.251 C 
HETATM   20  C   UNL     1       7.725  26.063  57.286  1.00  0.00     0.050 C 
HETATM   21  O   UNL     1       4.778  25.208  57.697  1.00  0.00    -0.270 OA
HETATM   22  C   UNL     1       7.140  25.152  51.929  1.00  0.00     0.032 A 
HETATM   23  H   UNL     1       3.992  25.851  55.443  1.00  0.00     0.169 HD
ENDBRANCH   6  11
BRANCH   8  24
HETATM   24  C   UNL     1       3.382  29.724  49.056  1.00  0.00     0.003 A 
HETATM   25  C   UNL     1       3.804  31.039  48.812  1.00  0.00     0.124 A 
HETATM   26  F   UNL     1       4.775  31.268  47.914  1.00  0.00    -0.205 F 
HETATM   27  C   UNL     1       3.245  32.127  49.477  1.00  0.00     0.043 A 
HETATM   28  C   UNL     1       2.236  31.916  50.412  1.00  0.00     0.003 A 
HETATM   29  C   UNL     1       1.795  30.620  50.672  1.00  0.00     0.001 A 
HETATM   30  C   UNL     1       2.363  29.533  50.000  1.00  0.00     0.012 A 
ENDBRANCH   8  24
TORSDOF 2
ENDMDL
MODEL 3
REMARK VINA RESULT:      -9.0      6.495      8.956
REMARK  2 active torsions:
REMARK  status: ('A' for Active; 'I' for Inactive)
REMARK       I    between atoms: N_4  and  C_5 
REMARK       I    between atoms: C_5  and  N_6 
REMARK    1  A    between atoms: N_6  and  C_7 
REMARK    2  A    between atoms: C_20  and  C_21 
ROOT
HETATM    1  C   UNL     1       3.583  31.819  60.564  1.00  0.00     0.011 C 
HETATM    2  C   UNL     1       3.934  32.288  59.156  1.00  0.00     0.002 C 
HETATM    3  C   UNL     1       4.379  31.140  58.256  1.00  0.00     0.132 C 
HETATM    4  N   UNL     1       5.832  31.116  58.334  1.00  0.00    -0.325 N 
HETATM    5  C   UNL     1       6.676  30.175  57.774  1.00  0.00     0.323 C 
HETATM    6  N   UNL     1       6.029  29.144  57.130  1.00  0.00    -0.309 N 
HETATM    7  O   UNL     1       7.896  30.261  57.873  1.00  0.00    -0.247 OA
HETATM    8  C   UNL     1       6.367  32.340  58.937  1.00  0.00     0.125 C 
HETATM    9  C   UNL     1       5.132  33.241  59.114  1.00  0.00     0.036 C 
HETATM   10  H   UNL     1       5.150  29.381  56.697  1.00  0.00     0.170 HD
ENDROOT
BRANCH   6  11
HETATM   11  C   UNL     1       6.594  27.901  56.779  1.00  0.00     0.038 A 
HETATM   12  C   UNL     1       6.614  27.426  55.463  1.00  0.00     0.062 A 
HETATM   13  C   UNL     1       7.246  26.217  55.165  1.00  0.00     0.070 A 
HETATM   14  C   UNL     1       7.850  25.468  56.174  1.00  0.00     0.096 A 
HETATM   15  N   UNL     1       7.312  25.792  53.840  1.00  0.00    -0.323 N 
HETATM   16  O   UNL     1       8.512  24.292  55.956  1.00  0.00    -0.335 OA
HETATM   17  C   UNL     1       7.839  25.940  57.484  1.00  0.00     0.041 A 
HETATM   18  C   UNL     1       8.325  23.716  54.666  1.00  0.00     0.217 C 
HETATM   19  C   UNL     1       7.913  24.617  53.492  1.00  0.00     0.251 C 
HETATM   20  C   UNL     1       7.310  22.584  54.794  1.00  0.00     0.050 C 
HETATM   21  O   UNL     1       8.038  24.287  52.314  1.00  0.00    -0.270 OA
HETATM   22  C   UNL     1       7.220  27.157  57.786  1.00  0.00     0.032 A 
HETATM   23  H   UNL     1       6.959  26.372  53.089  1.00  0.00     0.169 HD
ENDBRANCH   6  11
BRANCH   8  24
HETATM   24  C   UNL     1       7.143  32.161  60.228  1.00  0.00     0.003 A 
HETATM   25  C   UNL     1       8.541  32.260  60.181  1.00  0.00     0.124 A 
HETATM   26  F   UNL     1       9.147  32.536  59.016  1.00  0.00    -0.205 F 
HETATM   27  C   UNL     1       9.330  32.079  61.314  1.00  0.00     0.043 A 
HETATM   28  C   UNL     1       8.726  31.793  62.534  1.00  0.00     0.003 A 
HETATM   29  C   UNL     1       7.338  31.691  62.610  1.00  0.00     0.001 A 
HETATM   30  C   UNL     1       6.552  31.874  61.467  1.00  0.00     0.012 A 
ENDBRANCH   8  24
TORSDOF 2
ENDMDL
MODEL 4
REMARK VINA RESULT:      -8.9      4.197      8.567
REMARK  2 active torsions:
REMARK  status: ('A' for Active; 'I' for Inactive)
REMARK       I    between atoms: N_4  and  C_5 
REMARK       I    between atoms: C_5  and  N_6 
REMARK    1  A    between atoms: N_6  and  C_7 
REMARK    2  A    between atoms: C_20  and  C_21 
ROOT
HETATM    1  C   UNL     1       8.746  25.021  56.728  1.00  0.00     0.011 C 
HETATM    2  C   UNL     1       7.327  25.290  57.219  1.00  0.00     0.002 C 
HETATM    3  C   UNL     1       6.374  25.638  56.081  1.00  0.00     0.132 C 
HETATM    4  N   UNL     1       6.352  27.091  56.011  1.00  0.00    -0.325 N 
HETATM    5  C   UNL     1       5.715  27.865  55.059  1.00  0.00     0.323 C 
HETATM    6  N   UNL     1       5.095  27.144  54.064  1.00  0.00    -0.309 N 
HETATM    7  O   UNL     1       5.733  29.092  55.107  1.00  0.00    -0.247 OA
HETATM    8  C   UNL     1       6.944  27.704  57.204  1.00  0.00     0.125 C 
HETATM    9  C   UNL     1       7.224  26.513  58.137  1.00  0.00     0.036 C 
HETATM   10  H   UNL     1       4.728  26.246  54.337  1.00  0.00     0.170 HD
ENDROOT
BRANCH   6  11
HETATM   11  C   UNL     1       4.680  27.645  52.814  1.00  0.00     0.038 A 
HETATM   12  C   UNL     1       5.313  27.301  51.614  1.00  0.00     0.062 A 
HETATM   13  C   UNL     1       4.816  27.777  50.399  1.00  0.00     0.070 A 
HETATM   14  C   UNL     1       3.697  28.607  50.369  1.00  0.00     0.096 A 
HETATM   15  N   UNL     1       5.421  27.371  49.211  1.00  0.00    -0.323 N 
HETATM   16  O   UNL     1       3.135  29.088  49.219  1.00  0.00    -0.335 OA
HETATM   17  C   UNL     1       3.059  28.947  51.560  1.00  0.00     0.041 A 
HETATM   18  C   UNL     1       3.919  28.918  48.040  1.00  0.00     0.217 C 
HETATM   19  C   UNL     1       4.981  27.809  47.995  1.00  0.00     0.251 C 
HETATM   20  C   UNL     1       4.590  30.252  47.721  1.00  0.00     0.050 C 
HETATM   21  O   UNL     1       5.467  27.385  46.948  1.00  0.00    -0.270 OA
HETATM   22  C   UNL     1       3.543  28.461  52.778  1.00  0.00     0.032 A 
HETATM   23  H   UNL     1       6.176  26.697  49.214  1.00  0.00     0.169 HD
ENDBRANCH   6  11
BRANCH   8  24
HETATM   24  C   UNL     1       8.174  28.559  56.971  1.00  0.00     0.003 A 
HETATM   25  C   UNL     1       8.596  29.410  58.003  1.00  0.00     0.124 A 
HETATM   26  F   UNL     1       7.927  29.423  59.166  1.00  0.00    -0.205 F 
HETATM   27  C   UNL     1       9.698  30.250  57.861  1.00  0.00     0.043 A 
HETATM   28  C   UNL     1      10.409  30.254  56.665  1.00  0.00     0.003 A 
HETATM   29  C   UNL     1      10.014  29.417  55.624  1.00  0.00     0.001 A 
HETATM   30  C   UNL     1       8.906  28.576  55.775  1.00  0.00     0.012 A 
ENDBRANCH   8  24
TORSDOF 2
ENDMDL
MODEL 5
REMARK VINA RESULT:      -8.9      3.386      8.483
REMARK  2 active torsions:
REMARK  status: ('A' for Active; 'I' for Inactive)
REMARK       I    between atoms: N_4  and  C_5 
REMARK       I    between atoms: C_5  and  N_6 
REMARK    1  A    between atoms: N_6  and  C_7 
REMARK    2  A    between atoms: C_20  and  C_21 
ROOT
HETATM    1  C   UNL     1       4.780  25.200  57.331  1.00  0.00     0.011 C 
HETATM    2  C   UNL     1       5.633  26.462  57.247  1.00  0.00     0.002 C 
HETATM    3  C   UNL     1       5.439  27.207  55.931  1.00  0.00     0.132 C 
HETATM    4  N   UNL     1       6.499  26.740  55.051  1.00  0.00    -0.325 N 
HETATM    5  C   UNL     1       6.663  27.051  53.714  1.00  0.00     0.323 C 
HETATM    6  N   UNL     1       5.667  27.845  53.190  1.00  0.00    -0.309 N 
HETATM    7  O   UNL     1       7.614  26.627  53.063  1.00  0.00    -0.247 OA
HETATM    8  C   UNL     1       7.540  26.016  55.786  1.00  0.00     0.125 C 
HETATM    9  C   UNL     1       7.138  26.179  57.263  1.00  0.00     0.036 C 
HETATM   10  H   UNL     1       5.246  28.500  53.830  1.00  0.00     0.170 HD
ENDROOT
BRANCH   6  11
HETATM   11  C   UNL     1       5.389  28.030  51.821  1.00  0.00     0.038 A 
HETATM   12  C   UNL     1       5.362  29.293  51.220  1.00  0.00     0.062 A 
HETATM   13  C   UNL     1       5.145  29.410  49.845  1.00  0.00     0.070 A 
HETATM   14  C   UNL     1       4.941  28.275  49.063  1.00  0.00     0.096 A 
HETATM   15  N   UNL     1       5.186  30.671  49.255  1.00  0.00    -0.323 N 
HETATM   16  O   UNL     1       4.753  28.306  47.709  1.00  0.00    -0.335 OA
HETATM   17  C   UNL     1       4.975  27.014  49.655  1.00  0.00     0.041 A 
HETATM   18  C   UNL     1       4.500  29.597  47.158  1.00  0.00     0.217 C 
HETATM   19  C   UNL     1       4.975  30.845  47.917  1.00  0.00     0.251 C 
HETATM   20  C   UNL     1       3.000  29.719  46.904  1.00  0.00     0.050 C 
HETATM   21  O   UNL     1       5.091  31.949  47.389  1.00  0.00    -0.270 OA
HETATM   22  C   UNL     1       5.206  26.891  51.029  1.00  0.00     0.032 A 
HETATM   23  H   UNL     1       5.423  31.493  49.796  1.00  0.00     0.169 HD
ENDBRANCH   6  11
BRANCH   8  24
HETATM   24  C   UNL     1       7.740  24.564  55.398  1.00  0.00     0.003 A 
HETATM   25  C   UNL     1       8.776  23.849  56.016  1.00  0.00     0.124 A 
HETATM   26  F   UNL     1       9.535  24.450  56.944  1.00  0.00    -0.205 F 
HETATM   27  C   UNL     1       9.047  22.521  55.695  1.00  0.00     0.043 A 
HETATM   28  C   UNL     1       8.274  21.874  54.735  1.00  0.00     0.003 A 
HETATM   29  C   UNL     1       7.236  22.560  54.108  1.00  0.00     0.001 A 
HETATM   30  C   UNL     1       6.971  23.894  54.436  1.00  0.00     0.012 A 
ENDBRANCH   8  24
TORSDOF 2
ENDMDL
MODEL 6
REMARK VINA RESULT:      -8.7      3.159      8.417
REMARK  2 active torsions:
REMARK  status: ('A' for Active; 'I' for Inactive)
REMARK       I    between atoms: N_4  and  C_5 
REMARK       I    between atoms: C_5  and  N_6 
REMARK    1  A    between atoms: N_6  and  C_7 
REMARK    2  A    between atoms: C_20  and  C_21 
ROOT
HETATM    1  C   UNL     1       5.238  25.015  57.050  1.00  0.00     0.011 C 
HETATM    2  C   UNL     1       5.986  26.302  56.719  1.00  0.00     0.002 C 
HETATM    3  C   UNL     1       5.513  26.929  55.412  1.00  0.00     0.132 C 
HETATM    4  N   UNL     1       6.421  26.439  54.385  1.00  0.00    -0.325 N 
HETATM    5  C   UNL     1       6.320  26.648  53.023  1.00  0.00     0.323 C 
HETATM    6  N   UNL     1       5.201  27.352  52.637  1.00  0.00    -0.309 N 
HETATM    7  O   UNL     1       7.160  26.214  52.239  1.00  0.00    -0.247 OA
HETATM    8  C   UNL     1       7.618  25.823  54.964  1.00  0.00     0.125 C 
HETATM    9  C   UNL     1       7.483  26.088  56.475  1.00  0.00     0.036 C 
HETATM   10  H   UNL     1       4.867  28.037  53.296  1.00  0.00     0.170 HD
ENDROOT
BRANCH   6  11
HETATM   11  C   UNL     1       4.669  27.412  51.334  1.00  0.00     0.038 A 
HETATM   12  C   UNL     1       3.924  28.503  50.873  1.00  0.00     0.062 A 
HETATM   13  C   UNL     1       3.476  28.537  49.551  1.00  0.00     0.070 A 
HETATM   14  C   UNL     1       3.754  27.482  48.683  1.00  0.00     0.096 A 
HETATM   15  N   UNL     1       2.792  29.661  49.092  1.00  0.00    -0.323 N 
HETATM   16  O   UNL     1       3.377  27.456  47.370  1.00  0.00    -0.335 OA
HETATM   17  C   UNL     1       4.502  26.397  49.135  1.00  0.00     0.041 A 
HETATM   18  C   UNL     1       2.434  28.455  46.986  1.00  0.00     0.217 C 
HETATM   19  C   UNL     1       2.327  29.746  47.811  1.00  0.00     0.251 C 
HETATM   20  C   UNL     1       1.056  27.803  46.915  1.00  0.00     0.050 C 
HETATM   21  O   UNL     1       1.795  30.771  47.390  1.00  0.00    -0.270 OA
HETATM   22  C   UNL     1       4.965  26.365  50.454  1.00  0.00     0.032 A 
HETATM   23  H   UNL     1       2.664  30.471  49.685  1.00  0.00     0.169 HD
ENDBRANCH   6  11
BRANCH   8  24
HETATM   24  C   UNL     1       7.829  24.355  54.651  1.00  0.00     0.003 A 
HETATM   25  C   UNL     1       8.771  23.643  55.407  1.00  0.00     0.124 A 
HETATM   26  F   UNL     1       9.432  24.263  56.396  1.00  0.00    -0.205 F 
HETATM   27  C   UNL     1       9.046  22.299  55.165  1.00  0.00     0.043 A 
HETATM   28  C   UNL     1       8.373  21.633  54.145  1.00  0.00     0.003 A 
HETATM   29  C   UNL     1       7.430  22.315  53.379  1.00  0.00     0.001 A 
HETATM   30  C   UNL     1       7.159  23.665  53.630  1.00  0.00     0.012 A 
ENDBRANCH   8  24
TORSDOF 2
ENDMDL
MODEL 7
REMARK VINA RESULT:      -8.5      3.499      8.572
REMARK  2 active torsions:
REMARK  status: ('A' for Active; 'I' for Inactive)
REMARK       I    between atoms: N_4  and  C_5 
REMARK       I    between atoms: C_5  and  N_6 
REMARK    1  A    between atoms: N_6  and  C_7 
REMARK    2  A    between atoms: C_20  and  C_21 
ROOT
HETATM    1  C   UNL     1       8.605  24.436  56.399  1.00  0.00     0.011 C 
HETATM    2  C   UNL     1       7.092  24.243  56.404  1.00  0.00     0.002 C 
HETATM    3  C   UNL     1       6.453  24.624  55.073  1.00  0.00     0.132 C 
HETATM    4  N   UNL     1       6.021  26.006  55.221  1.00  0.00    -0.325 N 
HETATM    5  C   UNL     1       5.488  26.817  54.237  1.00  0.00     0.323 C 
HETATM    6  N   UNL     1       5.429  26.234  52.992  1.00  0.00    -0.309 N 
HETATM    7  O   UNL     1       5.125  27.966  54.474  1.00  0.00    -0.247 OA
HETATM    8  C   UNL     1       6.029  26.433  56.624  1.00  0.00     0.125 C 
HETATM    9  C   UNL     1       6.368  25.150  57.404  1.00  0.00     0.036 C 
HETATM   10  H   UNL     1       5.282  25.237  52.981  1.00  0.00     0.170 HD
ENDROOT
BRANCH   6  11
HETATM   11  C   UNL     1       5.265  26.911  51.766  1.00  0.00     0.038 A 
HETATM   12  C   UNL     1       5.437  28.294  51.640  1.00  0.00     0.062 A 
HETATM   13  C   UNL     1       5.326  28.902  50.388  1.00  0.00     0.070 A 
HETATM   14  C   UNL     1       5.031  28.142  49.257  1.00  0.00     0.096 A 
HETATM   15  N   UNL     1       5.564  30.270  50.271  1.00  0.00    -0.323 N 
HETATM   16  O   UNL     1       4.936  28.659  47.995  1.00  0.00    -0.335 OA
HETATM   17  C   UNL     1       4.867  26.763  49.376  1.00  0.00     0.041 A 
HETATM   18  C   UNL     1       4.885  30.082  47.921  1.00  0.00     0.217 C 
HETATM   19  C   UNL     1       5.464  30.917  49.073  1.00  0.00     0.251 C 
HETATM   20  C   UNL     1       3.432  30.493  47.699  1.00  0.00     0.050 C 
HETATM   21  O   UNL     1       5.753  32.107  48.962  1.00  0.00    -0.270 OA
HETATM   22  C   UNL     1       4.991  26.148  50.626  1.00  0.00     0.032 A 
HETATM   23  H   UNL     1       5.868  30.815  51.067  1.00  0.00     0.169 HD
ENDBRANCH   6  11
BRANCH   8  24
HETATM   24  C   UNL     1       6.961  27.580  56.964  1.00  0.00     0.003 A 
HETATM   25  C   UNL     1       6.404  28.751  57.497  1.00  0.00     0.124 A 
HETATM   26  F   UNL     1       5.083  28.816  57.719  1.00  0.00    -0.205 F 
HETATM   27  C   UNL     1       7.185  29.862  57.809  1.00  0.00     0.043 A 
HETATM   28  C   UNL     1       8.559  29.820  57.590  1.00  0.00     0.003 A 
HETATM   29  C   UNL     1       9.139  28.667  57.063  1.00  0.00     0.001 A 
HETATM   30  C   UNL     1       8.348  27.556  56.753  1.00  0.00     0.012 A 
ENDBRANCH   8  24
TORSDOF 2
ENDMDL
MODEL 8
REMARK VINA RESULT:      -8.4      3.144      8.533
REMARK  2 active torsions:
REMARK  status: ('A' for Active; 'I' for Inactive)
REMARK       I    between atoms: N_4  and  C_5 
REMARK       I    between atoms: C_5  and  N_6 
REMARK    1  A    between atoms: N_6  and  C_7 
REMARK    2  A    between atoms: C_20  and  C_21 
ROOT
HETATM    1  C   UNL     1       8.608  23.910  54.179  1.00  0.00     0.011 C 
HETATM    2  C   UNL     1       7.167  23.424  54.063  1.00  0.00     0.002 C 
HETATM    3  C   UNL     1       6.455  24.001  52.845  1.00  0.00     0.132 C 
HETATM    4  N   UNL     1       5.749  25.181  53.319  1.00  0.00    -0.325 N 
HETATM    5  C   UNL     1       5.055  26.096  52.550  1.00  0.00     0.323 C 
HETATM    6  N   UNL     1       5.108  25.856  51.196  1.00  0.00    -0.309 N 
HETATM    7  O   UNL     1       4.465  27.048  53.054  1.00  0.00    -0.247 OA
HETATM    8  C   UNL     1       5.679  25.224  54.783  1.00  0.00     0.125 C 
HETATM    9  C   UNL     1       6.278  23.878  55.226  1.00  0.00     0.036 C 
HETATM   10  H   UNL     1       5.169  24.887  50.925  1.00  0.00     0.170 HD
ENDROOT
BRANCH   6  11
HETATM   11  C   UNL     1       4.801  26.780  50.177  1.00  0.00     0.038 A 
HETATM   12  C   UNL     1       5.176  28.126  50.241  1.00  0.00     0.062 A 
HETATM   13  C   UNL     1       4.902  28.981  49.172  1.00  0.00     0.070 A 
HETATM   14  C   UNL     1       4.241  28.508  48.040  1.00  0.00     0.096 A 
HETATM   15  N   UNL     1       5.340  30.303  49.227  1.00  0.00    -0.323 N 
HETATM   16  O   UNL     1       3.965  29.274  46.943  1.00  0.00    -0.335 OA
HETATM   17  C   UNL     1       3.873  27.166  47.967  1.00  0.00     0.041 A 
HETATM   18  C   UNL     1       4.145  30.678  47.118  1.00  0.00     0.217 C 
HETATM   19  C   UNL     1       5.095  31.184  48.213  1.00  0.00     0.251 C 
HETATM   20  C   UNL     1       2.771  31.309  47.331  1.00  0.00     0.050 C 
HETATM   21  O   UNL     1       5.553  32.325  48.233  1.00  0.00    -0.270 OA
HETATM   22  C   UNL     1       4.158  26.302  49.029  1.00  0.00     0.032 A 
HETATM   23  H   UNL     1       5.900  30.634  50.003  1.00  0.00     0.169 HD
ENDBRANCH   6  11
BRANCH   8  24
HETATM   24  C   UNL     1       6.358  26.407  55.447  1.00  0.00     0.003 A 
HETATM   25  C   UNL     1       5.894  26.817  56.705  1.00  0.00     0.124 A 
HETATM   26  F   UNL     1       4.895  26.144  57.295  1.00  0.00    -0.205 F 
HETATM   27  C   UNL     1       6.441  27.912  57.370  1.00  0.00     0.043 A 
HETATM   28  C   UNL     1       7.479  28.626  56.779  1.00  0.00     0.003 A 
HETATM   29  C   UNL     1       7.962  28.238  55.531  1.00  0.00     0.001 A 
HETATM   30  C   UNL     1       7.406  27.138  54.869  1.00  0.00     0.012 A 
ENDBRANCH   8  24
TORSDOF 2
ENDMDL
MODEL 9
REMARK VINA RESULT:      -8.2      9.138     11.494
REMARK  2 active torsions:
REMARK  status: ('A' for Active; 'I' for Inactive)
REMARK       I    between atoms: N_4  and  C_5 
REMARK       I    between atoms: C_5  and  N_6 
REMARK    1  A    between atoms: N_6  and  C_7 
REMARK    2  A    between atoms: C_20  and  C_21 
ROOT
HETATM    1  C   UNL     1       7.134  27.290  57.411  1.00  0.00     0.011 C 
HETATM    2  C   UNL     1       8.217  28.357  57.287  1.00  0.00     0.002 C 
HETATM    3  C   UNL     1       8.312  29.235  58.530  1.00  0.00     0.132 C 
HETATM    4  N   UNL     1       7.489  30.403  58.255  1.00  0.00    -0.325 N 
HETATM    5  C   UNL     1       7.178  31.423  59.134  1.00  0.00     0.323 C 
HETATM    6  N   UNL     1       7.678  31.249  60.405  1.00  0.00    -0.309 N 
HETATM    7  O   UNL     1       6.496  32.385  58.793  1.00  0.00    -0.247 OA
HETATM    8  C   UNL     1       7.144  30.505  56.834  1.00  0.00     0.125 C 
HETATM    9  C   UNL     1       7.945  29.371  56.171  1.00  0.00     0.036 C 
HETATM   10  H   UNL     1       8.554  30.754  60.467  1.00  0.00     0.170 HD
ENDROOT
BRANCH   6  11
HETATM   11  C   UNL     1       7.247  31.924  61.565  1.00  0.00     0.038 A 
HETATM   12  C   UNL     1       5.914  32.298  61.769  1.00  0.00     0.062 A 
HETATM   13  C   UNL     1       5.534  32.907  62.967  1.00  0.00     0.070 A 
HETATM   14  C   UNL     1       6.476  33.160  63.962  1.00  0.00     0.096 A 
HETATM   15  N   UNL     1       4.191  33.213  63.178  1.00  0.00    -0.323 N 
HETATM   16  O   UNL     1       6.176  33.724  65.170  1.00  0.00    -0.335 OA
HETATM   17  C   UNL     1       7.803  32.783  63.766  1.00  0.00     0.041 A 
HETATM   18  C   UNL     1       4.876  34.301  65.268  1.00  0.00     0.217 C 
HETATM   19  C   UNL     1       3.763  33.814  64.327  1.00  0.00     0.251 C 
HETATM   20  C   UNL     1       5.016  35.814  65.118  1.00  0.00     0.050 C 
HETATM   21  O   UNL     1       2.568  34.008  64.541  1.00  0.00    -0.270 OA
HETATM   22  C   UNL     1       8.186  32.159  62.575  1.00  0.00     0.032 A 
HETATM   23  H   UNL     1       3.484  32.951  62.502  1.00  0.00     0.169 HD
ENDBRANCH   6  11
BRANCH   8  24
HETATM   24  C   UNL     1       5.665  30.440  56.502  1.00  0.00     0.003 A 
HETATM   25  C   UNL     1       5.058  31.578  55.952  1.00  0.00     0.124 A 
HETATM   26  F   UNL     1       5.796  32.671  55.708  1.00  0.00    -0.205 F 
HETATM   27  C   UNL     1       3.699  31.612  55.646  1.00  0.00     0.043 A 
HETATM   28  C   UNL     1       2.912  30.490  55.889  1.00  0.00     0.003 A 
HETATM   29  C   UNL     1       3.490  29.345  56.432  1.00  0.00     0.001 A 
HETATM   30  C   UNL     1       4.855  29.319  56.736  1.00  0.00     0.012 A 
ENDBRANCH   8  24
TORSDOF 2
ENDMDL
MODEL 10
REMARK VINA RESULT:      -8.2      3.586      9.001
REMARK  2 active torsions:
REMARK  status: ('A' for Active; 'I' for Inactive)
REMARK       I    between atoms: N_4  and  C_5 
REMARK       I    between atoms: C_5  and  N_6 
REMARK    1  A    between atoms: N_6  and  C_7 
REMARK    2  A    between atoms: C_20  and  C_21 
ROOT
HETATM    1  C   UNL     1       7.966  24.371  53.078  1.00  0.00     0.011 C 
HETATM    2  C   UNL     1       6.467  24.198  53.301  1.00  0.00     0.002 C 
HETATM    3  C   UNL     1       5.636  24.983  52.293  1.00  0.00     0.132 C 
HETATM    4  N   UNL     1       5.326  26.251  52.936  1.00  0.00    -0.325 N 
HETATM    5  C   UNL     1       4.686  27.335  52.365  1.00  0.00     0.323 C 
HETATM    6  N   UNL     1       4.375  27.173  51.034  1.00  0.00    -0.309 N 
HETATM    7  O   UNL     1       4.444  28.354  53.006  1.00  0.00    -0.247 OA
HETATM    8  C   UNL     1       5.603  26.216  54.375  1.00  0.00     0.125 C 
HETATM    9  C   UNL     1       5.987  24.750  54.647  1.00  0.00     0.036 C 
HETATM   10  H   UNL     1       4.164  26.231  50.744  1.00  0.00     0.170 HD
ENDROOT
BRANCH   6  11
HETATM   11  C   UNL     1       4.047  28.203  50.129  1.00  0.00     0.038 A 
HETATM   12  C   UNL     1       2.732  28.630  49.916  1.00  0.00     0.062 A 
HETATM   13  C   UNL     1       2.474  29.699  49.055  1.00  0.00     0.070 A 
HETATM   14  C   UNL     1       3.518  30.340  48.391  1.00  0.00     0.096 A 
HETATM   15  N   UNL     1       1.164  30.152  48.906  1.00  0.00    -0.323 N 
HETATM   16  O   UNL     1       3.349  31.410  47.558  1.00  0.00    -0.335 OA
HETATM   17  C   UNL     1       4.830  29.923  48.605  1.00  0.00     0.041 A 
HETATM   18  C   UNL     1       2.001  31.680  47.178  1.00  0.00     0.217 C 
HETATM   19  C   UNL     1       0.854  31.189  48.074  1.00  0.00     0.251 C 
HETATM   20  C   UNL     1       1.788  31.137  45.768  1.00  0.00     0.050 C 
HETATM   21  O   UNL     1      -0.290  31.635  48.008  1.00  0.00    -0.270 OA
HETATM   22  C   UNL     1       5.095  28.862  49.478  1.00  0.00     0.032 A 
HETATM   23  H   UNL     1       0.411  29.755  49.452  1.00  0.00     0.169 HD
ENDBRANCH   6  11
BRANCH   8  24
HETATM   24  C   UNL     1       6.652  27.191  54.875  1.00  0.00     0.003 A 
HETATM   25  C   UNL     1       6.590  27.604  56.213  1.00  0.00     0.124 A 
HETATM   26  F   UNL     1       5.636  27.110  57.016  1.00  0.00    -0.205 F 
HETATM   27  C   UNL     1       7.496  28.520  56.743  1.00  0.00     0.043 A 
HETATM   28  C   UNL     1       8.497  29.046  55.932  1.00  0.00     0.003 A 
HETATM   29  C   UNL     1       8.583  28.650  54.598  1.00  0.00     0.001 A 
HETATM   30  C   UNL     1       7.669  27.730  54.073  1.00  0.00     0.012 A 
ENDBRANCH   8  24
TORSDOF 2
ENDMDL
