MODEL 1
REMARK VINA RESULT:      -7.6      0.000      0.000
REMARK  5 active torsions:
REMARK  status: ('A' for Active; 'I' for Inactive)
REMARK    1  A    between atoms: C_2  and  C_3 
REMARK    2  A    between atoms: C_3  and  C_4 
REMARK    3  A    between atoms: C_10  and  C_11 
REMARK    4  A    between atoms: C_12  and  O_13 
REMARK    5  A    between atoms: C_22  and  N_23 
ROOT
HETATM    1  C   UNL     1       7.416  23.790  54.765  1.00  0.00     0.066 A 
HETATM    2  N   UNL     1       8.309  23.098  54.037  1.00  0.00    -0.177 NA
HETATM    3  N   UNL     1       8.281  23.688  52.824  1.00  0.00    -0.256 N 
HETATM    4  H   UNL     1       8.871  23.320  52.087  1.00  0.00     0.191 HD
HETATM    5  C   UNL     1       7.398  24.715  52.762  1.00  0.00     0.175 A 
HETATM    6  C   UNL     1       6.837  24.835  54.007  1.00  0.00     0.035 A 
HETATM    7  C   UNL     1       5.797  25.874  54.261  1.00  0.00     0.107 A 
HETATM    8  C   UNL     1       5.414  26.554  52.948  1.00  0.00     0.067 A 
HETATM    9  C   UNL     1       4.189  27.454  52.979  1.00  0.00     0.020 C 
HETATM   10  N   UNL     1       3.173  28.200  53.006  1.00  0.00    -0.096 N 
HETATM   11  C   UNL     1       6.052  26.325  51.768  1.00  0.00     0.139 A 
HETATM   12  O   UNL     1       7.129  25.423  51.671  1.00  0.00    -0.279 OA
ENDROOT
BRANCH   7  13
HETATM   13  C   UNL     1       6.407  26.845  55.264  1.00  0.00    -0.010 A 
HETATM   14  C   UNL     1       5.759  27.121  56.478  1.00  0.00     0.073 A 
HETATM   15  C   UNL     1       6.290  28.026  57.399  1.00  0.00     0.038 A 
HETATM   16  C   UNL     1       7.488  28.683  57.117  1.00  0.00     0.022 A 
HETATM   17  C   UNL     1       8.142  28.432  55.915  1.00  0.00     0.011 A 
HETATM   18 BR   UNL     1       9.762  29.325  55.524  1.00  0.00    -0.051 Br
HETATM   19  C   UNL     1       7.612  27.528  54.993  1.00  0.00     0.030 A 
BRANCH  14  20
HETATM   20  O   UNL     1       4.582  26.487  56.755  1.00  0.00    -0.360 OA
HETATM   21  H   UNL     1       4.072  26.387  55.933  1.00  0.00     0.217 HD
ENDBRANCH  14  20
ENDBRANCH   7  13
BRANCH  11  22
HETATM   22  N   UNL     1       5.736  26.908  50.563  1.00  0.00    -0.282 NA
HETATM   23  H   UNL     1       4.884  26.574  50.120  1.00  0.00     0.126 HD
HETATM   24  H   UNL     1       5.795  27.923  50.600  1.00  0.00     0.126 HD
ENDBRANCH  11  22
BRANCH   1  25
HETATM   25  C   UNL     1       7.132  23.393  56.176  1.00  0.00     0.061 C 
BRANCH  25  26
HETATM   26  C   UNL     1       8.372  23.462  57.067  1.00  0.00     0.002 C 
HETATM   27  C   UNL     1       8.736  24.901  57.399  1.00  0.00     0.005 C 
ENDBRANCH  25  26
ENDBRANCH   1  25
TORSDOF 5
ENDMDL
MODEL 2
REMARK VINA RESULT:      -6.9      9.254     11.030
REMARK  5 active torsions:
REMARK  status: ('A' for Active; 'I' for Inactive)
REMARK    1  A    between atoms: C_2  and  C_3 
REMARK    2  A    between atoms: C_3  and  C_4 
REMARK    3  A    between atoms: C_10  and  C_11 
REMARK    4  A    between atoms: C_12  and  O_13 
REMARK    5  A    between atoms: C_22  and  N_23 
ROOT
HETATM    1  C   UNL     1       6.394  32.329  61.679  1.00  0.00     0.066 A 
HETATM    2  N   UNL     1       7.274  31.955  60.734  1.00  0.00    -0.177 NA
HETATM    3  N   UNL     1       6.725  32.379  59.577  1.00  0.00    -0.256 N 
HETATM    4  H   UNL     1       7.210  32.192  58.707  1.00  0.00     0.191 HD
HETATM    5  C   UNL     1       5.530  32.994  59.760  1.00  0.00     0.175 A 
HETATM    6  C   UNL     1       5.291  33.010  61.110  1.00  0.00     0.035 A 
HETATM    7  C   UNL     1       4.031  33.605  61.639  1.00  0.00     0.107 A 
HETATM    8  C   UNL     1       3.105  33.972  60.479  1.00  0.00     0.067 A 
HETATM    9  C   UNL     1       1.678  34.349  60.840  1.00  0.00     0.020 C 
HETATM   10  N   UNL     1       0.494  34.663  61.140  1.00  0.00    -0.096 N 
HETATM   11  C   UNL     1       3.471  33.890  59.171  1.00  0.00     0.139 A 
HETATM   12  O   UNL     1       4.751  33.448  58.785  1.00  0.00    -0.279 OA
ENDROOT
BRANCH   7  13
HETATM   13  C   UNL     1       4.449  34.821  62.457  1.00  0.00    -0.010 A 
HETATM   14  C   UNL     1       4.102  34.925  63.812  1.00  0.00     0.073 A 
HETATM   15  C   UNL     1       4.455  36.042  64.572  1.00  0.00     0.038 A 
HETATM   16  C   UNL     1       5.163  37.089  63.981  1.00  0.00     0.022 A 
HETATM   17  C   UNL     1       5.509  37.011  62.636  1.00  0.00     0.011 A 
HETATM   18 BR   UNL     1       6.462  38.430  61.828  1.00  0.00    -0.051 Br
HETATM   19  C   UNL     1       5.156  35.895  61.876  1.00  0.00     0.030 A 
BRANCH  14  20
HETATM   20  O   UNL     1       3.402  33.907  64.393  1.00  0.00    -0.360 OA
HETATM   21  H   UNL     1       3.995  33.148  64.527  1.00  0.00     0.217 HD
ENDBRANCH  14  20
ENDBRANCH   7  13
BRANCH  11  22
HETATM   22  N   UNL     1       2.669  34.201  58.097  1.00  0.00    -0.282 NA
HETATM   23  H   UNL     1       1.796  34.673  58.319  1.00  0.00     0.126 HD
HETATM   24  H   UNL     1       3.188  34.652  57.348  1.00  0.00     0.126 HD
ENDBRANCH  11  22
BRANCH   1  25
HETATM   25  C   UNL     1       6.641  31.985  63.110  1.00  0.00     0.061 C 
BRANCH  25  26
HETATM   26  C   UNL     1       7.807  32.771  63.710  1.00  0.00     0.002 C 
HETATM   27  C   UNL     1       7.347  33.654  64.859  1.00  0.00     0.005 C 
ENDBRANCH  25  26
ENDBRANCH   1  25
TORSDOF 5
ENDMDL
MODEL 3
REMARK VINA RESULT:      -6.8      2.243      3.467
REMARK  5 active torsions:
REMARK  status: ('A' for Active; 'I' for Inactive)
REMARK    1  A    between atoms: C_2  and  C_3 
REMARK    2  A    between atoms: C_3  and  C_4 
REMARK    3  A    between atoms: C_10  and  C_11 
REMARK    4  A    between atoms: C_12  and  O_13 
REMARK    5  A    between atoms: C_22  and  N_23 
ROOT
HETATM    1  C   UNL     1       5.293  26.206  52.684  1.00  0.00     0.066 A 
HETATM    2  N   UNL     1       5.554  26.295  51.368  1.00  0.00    -0.177 NA
HETATM    3  N   UNL     1       5.461  27.612  51.096  1.00  0.00    -0.256 N 
HETATM    4  H   UNL     1       5.603  27.927  50.143  1.00  0.00     0.191 HD
HETATM    5  C   UNL     1       5.141  28.351  52.187  1.00  0.00     0.175 A 
HETATM    6  C   UNL     1       5.052  27.483  53.245  1.00  0.00     0.035 A 
HETATM    7  C   UNL     1       4.690  27.990  54.599  1.00  0.00     0.107 A 
HETATM    8  C   UNL     1       4.304  29.466  54.513  1.00  0.00     0.067 A 
HETATM    9  C   UNL     1       3.661  30.075  55.748  1.00  0.00     0.020 C 
HETATM   10  N   UNL     1       3.128  30.581  56.773  1.00  0.00    -0.096 N 
HETATM   11  C   UNL     1       4.429  30.211  53.380  1.00  0.00     0.139 A 
HETATM   12  O   UNL     1       4.925  29.661  52.183  1.00  0.00    -0.279 OA
ENDROOT
BRANCH   7  13
HETATM   13  C   UNL     1       5.912  27.757  55.478  1.00  0.00    -0.010 A 
HETATM   14  C   UNL     1       5.897  26.774  56.479  1.00  0.00     0.073 A 
HETATM   15  C   UNL     1       6.999  26.562  57.310  1.00  0.00     0.038 A 
HETATM   16  C   UNL     1       8.145  27.343  57.158  1.00  0.00     0.022 A 
HETATM   17  C   UNL     1       8.178  28.331  56.179  1.00  0.00     0.011 A 
HETATM   18 BR   UNL     1       9.725  29.397  55.973  1.00  0.00    -0.051 Br
HETATM   19  C   UNL     1       7.077  28.544  55.348  1.00  0.00     0.030 A 
BRANCH  14  20
HETATM   20  O   UNL     1       4.775  26.012  56.637  1.00  0.00    -0.360 OA
HETATM   21  H   UNL     1       4.691  25.759  57.572  1.00  0.00     0.217 HD
ENDBRANCH  14  20
ENDBRANCH   7  13
BRANCH  11  22
HETATM   22  N   UNL     1       4.087  31.538  53.256  1.00  0.00    -0.282 NA
HETATM   23  H   UNL     1       4.817  32.206  53.492  1.00  0.00     0.126 HD
HETATM   24  H   UNL     1       3.637  31.736  52.366  1.00  0.00     0.126 HD
ENDBRANCH  11  22
BRANCH   1  25
HETATM   25  C   UNL     1       5.259  24.872  53.352  1.00  0.00     0.061 C 
BRANCH  25  26
HETATM   26  C   UNL     1       6.585  24.121  53.233  1.00  0.00     0.002 C 
HETATM   27  C   UNL     1       7.722  24.897  53.880  1.00  0.00     0.005 C 
ENDBRANCH  25  26
ENDBRANCH   1  25
TORSDOF 5
ENDMDL
MODEL 4
REMARK VINA RESULT:      -6.6      1.842      2.164
REMARK  5 active torsions:
REMARK  status: ('A' for Active; 'I' for Inactive)
REMARK    1  A    between atoms: C_2  and  C_3 
REMARK    2  A    between atoms: C_3  and  C_4 
REMARK    3  A    between atoms: C_10  and  C_11 
REMARK    4  A    between atoms: C_12  and  O_13 
REMARK    5  A    between atoms: C_22  and  N_23 
ROOT
HETATM    1  C   UNL     1       6.706  25.494  55.268  1.00  0.00     0.066 A 
HETATM    2  N   UNL     1       7.312  24.709  54.360  1.00  0.00    -0.177 NA
HETATM    3  N   UNL     1       7.300  25.438  53.226  1.00  0.00    -0.256 N 
HETATM    4  H   UNL     1       7.695  25.038  52.382  1.00  0.00     0.191 HD
HETATM    5  C   UNL     1       6.700  26.644  53.385  1.00  0.00     0.175 A 
HETATM    6  C   UNL     1       6.326  26.733  54.701  1.00  0.00     0.035 A 
HETATM    7  C   UNL     1       5.612  27.946  55.194  1.00  0.00     0.107 A 
HETATM    8  C   UNL     1       5.269  28.859  54.017  1.00  0.00     0.067 A 
HETATM    9  C   UNL     1       4.318  30.010  54.303  1.00  0.00     0.020 C 
HETATM   10  N   UNL     1       3.530  30.964  54.541  1.00  0.00    -0.096 N 
HETATM   11  C   UNL     1       5.697  28.638  52.744  1.00  0.00     0.139 A 
HETATM   12  O   UNL     1       6.497  27.527  52.414  1.00  0.00    -0.279 OA
ENDROOT
BRANCH   7  13
HETATM   13  C   UNL     1       6.551  28.612  56.193  1.00  0.00    -0.010 A 
HETATM   14  C   UNL     1       6.068  29.089  57.420  1.00  0.00     0.073 A 
HETATM   15  C   UNL     1       6.908  29.723  58.338  1.00  0.00     0.038 A 
HETATM   16  C   UNL     1       8.259  29.898  58.038  1.00  0.00     0.022 A 
HETATM   17  C   UNL     1       8.758  29.441  56.823  1.00  0.00     0.011 A 
HETATM   18 BR   UNL     1      10.586  29.682  56.407  1.00  0.00    -0.051 Br
HETATM   19  C   UNL     1       7.919  28.808  55.904  1.00  0.00     0.030 A 
BRANCH  14  20
HETATM   20  O   UNL     1       4.745  28.927  57.715  1.00  0.00    -0.360 OA
HETATM   21  H   UNL     1       4.212  29.440  57.083  1.00  0.00     0.217 HD
ENDBRANCH  14  20
ENDBRANCH   7  13
BRANCH  11  22
HETATM   22  N   UNL     1       5.406  29.427  51.656  1.00  0.00    -0.282 NA
HETATM   23  H   UNL     1       4.700  29.062  51.021  1.00  0.00     0.126 HD
HETATM   24  H   UNL     1       5.245  30.397  51.917  1.00  0.00     0.126 HD
ENDBRANCH  11  22
BRANCH   1  25
HETATM   25  C   UNL     1       6.488  24.999  56.659  1.00  0.00     0.061 C 
BRANCH  25  26
HETATM   26  C   UNL     1       7.546  25.510  57.637  1.00  0.00     0.002 C 
HETATM   27  C   UNL     1       8.855  24.752  57.484  1.00  0.00     0.005 C 
ENDBRANCH  25  26
ENDBRANCH   1  25
TORSDOF 5
ENDMDL
MODEL 5
REMARK VINA RESULT:      -6.6      9.673     12.086
REMARK  5 active torsions:
REMARK  status: ('A' for Active; 'I' for Inactive)
REMARK    1  A    between atoms: C_2  and  C_3 
REMARK    2  A    between atoms: C_3  and  C_4 
REMARK    3  A    between atoms: C_10  and  C_11 
REMARK    4  A    between atoms: C_12  and  O_13 
REMARK    5  A    between atoms: C_22  and  N_23 
ROOT
HETATM    1  C   UNL     1       6.043  33.480  64.651  1.00  0.00     0.066 A 
HETATM    2  N   UNL     1       7.250  33.077  65.085  1.00  0.00    -0.177 NA
HETATM    3  N   UNL     1       7.931  32.786  63.958  1.00  0.00    -0.256 N 
HETATM    4  H   UNL     1       8.880  32.438  64.035  1.00  0.00     0.191 HD
HETATM    5  C   UNL     1       7.194  32.982  62.836  1.00  0.00     0.175 A 
HETATM    6  C   UNL     1       5.974  33.460  63.238  1.00  0.00     0.035 A 
HETATM    7  C   UNL     1       4.918  33.756  62.228  1.00  0.00     0.107 A 
HETATM    8  C   UNL     1       5.377  33.288  60.847  1.00  0.00     0.067 A 
HETATM    9  C   UNL     1       4.327  33.276  59.749  1.00  0.00     0.020 C 
HETATM   10  N   UNL     1       3.455  33.266  58.838  1.00  0.00    -0.096 N 
HETATM   11  C   UNL     1       6.626  32.813  60.591  1.00  0.00     0.139 A 
HETATM   12  O   UNL     1       7.602  32.712  61.601  1.00  0.00    -0.279 OA
ENDROOT
BRANCH   7  13
HETATM   13  C   UNL     1       4.689  35.261  62.286  1.00  0.00    -0.010 A 
HETATM   14  C   UNL     1       3.433  35.780  62.638  1.00  0.00     0.073 A 
HETATM   15  C   UNL     1       3.197  37.156  62.674  1.00  0.00     0.038 A 
HETATM   16  C   UNL     1       4.221  38.046  62.349  1.00  0.00     0.022 A 
HETATM   17  C   UNL     1       5.471  37.553  61.989  1.00  0.00     0.011 A 
HETATM   18 BR   UNL     1       6.860  38.754  61.540  1.00  0.00    -0.051 Br
HETATM   19  C   UNL     1       5.708  36.178  61.951  1.00  0.00     0.030 A 
BRANCH  14  20
HETATM   20  O   UNL     1       2.426  34.913  62.948  1.00  0.00    -0.360 OA
HETATM   21  H   UNL     1       2.156  35.055  63.872  1.00  0.00     0.217 HD
ENDBRANCH  14  20
ENDBRANCH   7  13
BRANCH  11  22
HETATM   22  N   UNL     1       7.079  32.375  59.368  1.00  0.00    -0.282 NA
HETATM   23  H   UNL     1       7.184  33.091  58.653  1.00  0.00     0.126 HD
HETATM   24  H   UNL     1       7.894  31.773  59.454  1.00  0.00     0.126 HD
ENDBRANCH  11  22
BRANCH   1  25
HETATM   25  C   UNL     1       4.980  33.849  65.632  1.00  0.00     0.061 C 
BRANCH  25  26
HETATM   26  C   UNL     1       4.931  35.351  65.909  1.00  0.00     0.002 C 
HETATM   27  C   UNL     1       3.584  35.766  66.481  1.00  0.00     0.005 C 
ENDBRANCH  25  26
ENDBRANCH   1  25
TORSDOF 5
ENDMDL
MODEL 6
REMARK VINA RESULT:      -6.4      6.837      9.346
REMARK  5 active torsions:
REMARK  status: ('A' for Active; 'I' for Inactive)
REMARK    1  A    between atoms: C_2  and  C_3 
REMARK    2  A    between atoms: C_3  and  C_4 
REMARK    3  A    between atoms: C_10  and  C_11 
REMARK    4  A    between atoms: C_12  and  O_13 
REMARK    5  A    between atoms: C_22  and  N_23 
ROOT
HETATM    1  C   UNL     1       5.239  32.136  61.909  1.00  0.00     0.066 A 
HETATM    2  N   UNL     1       4.267  31.925  62.814  1.00  0.00    -0.177 NA
HETATM    3  N   UNL     1       3.143  32.353  62.205  1.00  0.00    -0.256 N 
HETATM    4  H   UNL     1       2.265  32.309  62.709  1.00  0.00     0.191 HD
HETATM    5  C   UNL     1       3.374  32.833  60.957  1.00  0.00     0.175 A 
HETATM    6  C   UNL     1       4.715  32.684  60.714  1.00  0.00     0.035 A 
HETATM    7  C   UNL     1       5.295  33.144  59.420  1.00  0.00     0.107 A 
HETATM    8  C   UNL     1       4.233  33.891  58.613  1.00  0.00     0.067 A 
HETATM    9  C   UNL     1       4.717  34.649  57.388  1.00  0.00     0.020 C 
HETATM   10  N   UNL     1       5.119  35.278  56.372  1.00  0.00    -0.096 N 
HETATM   11  C   UNL     1       2.927  33.975  58.986  1.00  0.00     0.139 A 
HETATM   12  O   UNL     1       2.453  33.373  60.167  1.00  0.00    -0.279 OA
ENDROOT
BRANCH   7  13
HETATM   13  C   UNL     1       5.789  31.890  58.710  1.00  0.00    -0.010 A 
HETATM   14  C   UNL     1       7.156  31.572  58.688  1.00  0.00     0.073 A 
HETATM   15  C   UNL     1       7.631  30.440  58.022  1.00  0.00     0.038 A 
HETATM   16  C   UNL     1       6.740  29.601  57.355  1.00  0.00     0.022 A 
HETATM   17  C   UNL     1       5.381  29.902  57.355  1.00  0.00     0.011 A 
HETATM   18 BR   UNL     1       4.169  28.772  56.445  1.00  0.00    -0.051 Br
HETATM   19  C   UNL     1       4.905  31.034  58.019  1.00  0.00     0.030 A 
BRANCH  14  20
HETATM   20  O   UNL     1       8.034  32.395  59.333  1.00  0.00    -0.360 OA
HETATM   21  H   UNL     1       7.917  32.296  60.294  1.00  0.00     0.217 HD
ENDBRANCH  14  20
ENDBRANCH   7  13
BRANCH  11  22
HETATM   22  N   UNL     1       1.941  34.643  58.296  1.00  0.00    -0.282 NA
HETATM   23  H   UNL     1       1.871  34.426  57.305  1.00  0.00     0.126 HD
HETATM   24  H   UNL     1       1.046  34.609  58.777  1.00  0.00     0.126 HD
ENDBRANCH  11  22
BRANCH   1  25
HETATM   25  C   UNL     1       6.658  31.823  62.248  1.00  0.00     0.061 C 
BRANCH  25  26
HETATM   26  C   UNL     1       7.436  33.053  62.716  1.00  0.00     0.002 C 
HETATM   27  C   UNL     1       7.652  33.031  64.221  1.00  0.00     0.005 C 
ENDBRANCH  25  26
ENDBRANCH   1  25
TORSDOF 5
ENDMDL
MODEL 7
REMARK VINA RESULT:      -6.0      5.952      7.913
REMARK  5 active torsions:
REMARK  status: ('A' for Active; 'I' for Inactive)
REMARK    1  A    between atoms: C_2  and  C_3 
REMARK    2  A    between atoms: C_3  and  C_4 
REMARK    3  A    between atoms: C_10  and  C_11 
REMARK    4  A    between atoms: C_12  and  O_13 
REMARK    5  A    between atoms: C_22  and  N_23 
ROOT
HETATM    1  C   UNL     1       4.206  27.958  50.825  1.00  0.00     0.066 A 
HETATM    2  N   UNL     1       5.310  27.211  51.002  1.00  0.00    -0.177 NA
HETATM    3  N   UNL     1       5.382  26.451  49.891  1.00  0.00    -0.256 N 
HETATM    4  H   UNL     1       6.139  25.782  49.803  1.00  0.00     0.191 HD
HETATM    5  C   UNL     1       4.361  26.684  49.030  1.00  0.00     0.175 A 
HETATM    6  C   UNL     1       3.591  27.675  49.582  1.00  0.00     0.035 A 
HETATM    7  C   UNL     1       2.363  28.147  48.879  1.00  0.00     0.107 A 
HETATM    8  C   UNL     1       2.092  27.263  47.662  1.00  0.00     0.067 A 
HETATM    9  C   UNL     1       0.744  27.438  46.981  1.00  0.00     0.020 C 
HETATM   10  N   UNL     1      -0.374  27.584  46.416  1.00  0.00    -0.096 N 
HETATM   11  C   UNL     1       2.944  26.293  47.232  1.00  0.00     0.139 A 
HETATM   12  O   UNL     1       4.158  26.028  47.893  1.00  0.00    -0.279 OA
ENDROOT
BRANCH   7  13
HETATM   13  C   UNL     1       2.628  29.598  48.497  1.00  0.00    -0.010 A 
HETATM   14  C   UNL     1       1.933  30.641  49.127  1.00  0.00     0.073 A 
HETATM   15  C   UNL     1       2.144  31.976  48.774  1.00  0.00     0.038 A 
HETATM   16  C   UNL     1       3.058  32.293  47.769  1.00  0.00     0.022 A 
HETATM   17  C   UNL     1       3.751  31.273  47.124  1.00  0.00     0.011 A 
HETATM   18 BR   UNL     1       4.986  31.696  45.757  1.00  0.00    -0.051 Br
HETATM   19  C   UNL     1       3.540  29.939  47.476  1.00  0.00     0.030 A 
BRANCH  14  20
HETATM   20  O   UNL     1       1.031  30.336  50.105  1.00  0.00    -0.360 OA
HETATM   21  H   UNL     1       1.380  29.605  50.644  1.00  0.00     0.217 HD
ENDBRANCH  14  20
ENDBRANCH   7  13
BRANCH  11  22
HETATM   22  N   UNL     1       2.736  25.470  46.149  1.00  0.00    -0.282 NA
HETATM   23  H   UNL     1       2.807  25.914  45.237  1.00  0.00     0.126 HD
HETATM   24  H   UNL     1       3.268  24.607  46.216  1.00  0.00     0.126 HD
ENDBRANCH  11  22
BRANCH   1  25
HETATM   25  C   UNL     1       3.765  28.908  51.889  1.00  0.00     0.061 C 
BRANCH  25  26
HETATM   26  C   UNL     1       4.452  30.270  51.781  1.00  0.00     0.002 C 
HETATM   27  C   UNL     1       3.594  31.372  52.383  1.00  0.00     0.005 C 
ENDBRANCH  25  26
ENDBRANCH   1  25
TORSDOF 5
ENDMDL
MODEL 8
REMARK VINA RESULT:      -5.8      9.756     12.498
REMARK  5 active torsions:
REMARK  status: ('A' for Active; 'I' for Inactive)
REMARK    1  A    between atoms: C_2  and  C_3 
REMARK    2  A    between atoms: C_3  and  C_4 
REMARK    3  A    between atoms: C_10  and  C_11 
REMARK    4  A    between atoms: C_12  and  O_13 
REMARK    5  A    between atoms: C_22  and  N_23 
ROOT
HETATM    1  C   UNL     1       4.282  34.125  64.881  1.00  0.00     0.066 A 
HETATM    2  N   UNL     1       4.779  34.027  66.126  1.00  0.00    -0.177 NA
HETATM    3  N   UNL     1       6.050  33.613  65.949  1.00  0.00    -0.256 N 
HETATM    4  H   UNL     1       6.630  33.449  66.764  1.00  0.00     0.191 HD
HETATM    5  C   UNL     1       6.365  33.437  64.642  1.00  0.00     0.175 A 
HETATM    6  C   UNL     1       5.258  33.786  63.913  1.00  0.00     0.035 A 
HETATM    7  C   UNL     1       5.278  33.680  62.426  1.00  0.00     0.107 A 
HETATM    8  C   UNL     1       6.572  33.005  61.973  1.00  0.00     0.067 A 
HETATM    9  C   UNL     1       6.645  32.583  60.514  1.00  0.00     0.020 C 
HETATM   10  N   UNL     1       6.706  32.234  59.305  1.00  0.00    -0.096 N 
HETATM   11  C   UNL     1       7.594  32.695  62.817  1.00  0.00     0.139 A 
HETATM   12  O   UNL     1       7.528  32.976  64.195  1.00  0.00    -0.279 OA
ENDROOT
BRANCH   7  13
HETATM   13  C   UNL     1       5.149  35.104  61.899  1.00  0.00    -0.010 A 
HETATM   14  C   UNL     1       4.399  35.374  60.745  1.00  0.00     0.073 A 
HETATM   15  C   UNL     1       4.289  36.669  60.233  1.00  0.00     0.038 A 
HETATM   16  C   UNL     1       4.939  37.726  60.871  1.00  0.00     0.022 A 
HETATM   17  C   UNL     1       5.696  37.479  62.012  1.00  0.00     0.011 A 
HETATM   18 BR   UNL     1       6.585  38.906  62.876  1.00  0.00    -0.051 Br
HETATM   19  C   UNL     1       5.807  36.185  62.523  1.00  0.00     0.030 A 
BRANCH  14  20
HETATM   20  O   UNL     1       3.768  34.342  60.113  1.00  0.00    -0.360 OA
HETATM   21  H   UNL     1       4.251  34.124  59.297  1.00  0.00     0.217 HD
ENDBRANCH  14  20
ENDBRANCH   7  13
BRANCH  11  22
HETATM   22  N   UNL     1       8.771  32.081  62.454  1.00  0.00    -0.282 NA
HETATM   23  H   UNL     1       9.595  32.677  62.443  1.00  0.00     0.126 HD
HETATM   24  H   UNL     1       8.917  31.207  62.953  1.00  0.00     0.126 HD
ENDBRANCH  11  22
BRANCH   1  25
HETATM   25  C   UNL     1       2.858  34.519  64.671  1.00  0.00     0.061 C 
BRANCH  25  26
HETATM   26  C   UNL     1       2.173  33.690  63.584  1.00  0.00     0.002 C 
HETATM   27  C   UNL     1       1.419  34.576  62.605  1.00  0.00     0.005 C 
ENDBRANCH  25  26
ENDBRANCH   1  25
TORSDOF 5
ENDMDL
MODEL 9
REMARK VINA RESULT:      -5.8     14.973     17.524
REMARK  5 active torsions:
REMARK  status: ('A' for Active; 'I' for Inactive)
REMARK    1  A    between atoms: C_2  and  C_3 
REMARK    2  A    between atoms: C_3  and  C_4 
REMARK    3  A    between atoms: C_10  and  C_11 
REMARK    4  A    between atoms: C_12  and  O_13 
REMARK    5  A    between atoms: C_22  and  N_23 
ROOT
HETATM    1  C   UNL     1      13.405  11.146  50.673  1.00  0.00     0.066 A 
HETATM    2  N   UNL     1      13.612  12.385  50.193  1.00  0.00    -0.177 NA
HETATM    3  N   UNL     1      12.951  13.191  51.048  1.00  0.00    -0.256 N 
HETATM    4  H   UNL     1      12.949  14.190  50.877  1.00  0.00     0.191 HD
HETATM    5  C   UNL     1      12.328  12.505  52.038  1.00  0.00     0.175 A 
HETATM    6  C   UNL     1      12.620  11.179  51.851  1.00  0.00     0.035 A 
HETATM    7  C   UNL     1      12.058  10.152  52.774  1.00  0.00     0.107 A 
HETATM    8  C   UNL     1      11.062  10.806  53.731  1.00  0.00     0.067 A 
HETATM    9  C   UNL     1      10.204   9.870  54.566  1.00  0.00     0.020 C 
HETATM   10  N   UNL     1       9.493   9.093  55.259  1.00  0.00    -0.096 N 
HETATM   11  C   UNL     1      10.856  12.150  53.799  1.00  0.00     0.139 A 
HETATM   12  O   UNL     1      11.556  13.049  52.973  1.00  0.00    -0.279 OA
ENDROOT
BRANCH   7  13
HETATM   13  C   UNL     1      13.248   9.540  53.501  1.00  0.00    -0.010 A 
HETATM   14  C   UNL     1      13.544   8.175  53.367  1.00  0.00     0.073 A 
HETATM   15  C   UNL     1      14.617   7.592  54.045  1.00  0.00     0.038 A 
HETATM   16  C   UNL     1      15.417   8.370  54.881  1.00  0.00     0.022 A 
HETATM   17  C   UNL     1      15.136   9.723  55.036  1.00  0.00     0.011 A 
HETATM   18 BR   UNL     1      16.212  10.782  56.175  1.00  0.00    -0.051 Br
HETATM   19  C   UNL     1      14.063  10.307  54.360  1.00  0.00     0.030 A 
BRANCH  14  20
HETATM   20  O   UNL     1      12.759   7.408  52.556  1.00  0.00    -0.360 OA
HETATM   21  H   UNL     1      12.043   7.015  53.084  1.00  0.00     0.217 HD
ENDBRANCH  14  20
ENDBRANCH   7  13
BRANCH  11  22
HETATM   22  N   UNL     1       9.966  12.780  54.638  1.00  0.00    -0.282 NA
HETATM   23  H   UNL     1      10.220  12.793  55.623  1.00  0.00     0.126 HD
HETATM   24  H   UNL     1       9.687  13.692  54.286  1.00  0.00     0.126 HD
ENDBRANCH  11  22
BRANCH   1  25
HETATM   25  C   UNL     1      13.955   9.961  49.952  1.00  0.00     0.061 C 
BRANCH  25  26
HETATM   26  C   UNL     1      15.479   9.998  49.840  1.00  0.00     0.002 C 
HETATM   27  C   UNL     1      16.136   9.975  51.211  1.00  0.00     0.005 C 
ENDBRANCH  25  26
ENDBRANCH   1  25
TORSDOF 5
ENDMDL
MODEL 10
REMARK VINA RESULT:      -5.6      2.235      3.018
REMARK  5 active torsions:
REMARK  status: ('A' for Active; 'I' for Inactive)
REMARK    1  A    between atoms: C_2  and  C_3 
REMARK    2  A    between atoms: C_3  and  C_4 
REMARK    3  A    between atoms: C_10  and  C_11 
REMARK    4  A    between atoms: C_12  and  O_13 
REMARK    5  A    between atoms: C_22  and  N_23 
ROOT
HETATM    1  C   UNL     1       5.813  25.343  55.084  1.00  0.00     0.066 A 
HETATM    2  N   UNL     1       5.778  24.544  54.004  1.00  0.00    -0.177 NA
HETATM    3  N   UNL     1       5.212  25.303  53.044  1.00  0.00    -0.256 N 
HETATM    4  H   UNL     1       5.062  24.901  52.126  1.00  0.00     0.191 HD
HETATM    5  C   UNL     1       4.881  26.542  53.484  1.00  0.00     0.175 A 
HETATM    6  C   UNL     1       5.280  26.621  54.793  1.00  0.00     0.035 A 
HETATM    7  C   UNL     1       5.033  27.866  55.576  1.00  0.00     0.107 A 
HETATM    8  C   UNL     1       4.179  28.833  54.755  1.00  0.00     0.067 A 
HETATM    9  C   UNL     1       3.618  30.038  55.492  1.00  0.00     0.020 C 
HETATM   10  N   UNL     1       3.152  31.038  56.102  1.00  0.00    -0.096 N 
HETATM   11  C   UNL     1       3.839  28.618  53.455  1.00  0.00     0.139 A 
HETATM   12  O   UNL     1       4.253  27.464  52.762  1.00  0.00    -0.279 OA
ENDROOT
BRANCH   7  13
HETATM   13  C   UNL     1       6.407  28.438  55.904  1.00  0.00    -0.010 A 
HETATM   14  C   UNL     1       7.425  28.453  54.938  1.00  0.00     0.073 A 
HETATM   15  C   UNL     1       8.697  28.950  55.227  1.00  0.00     0.038 A 
HETATM   16  C   UNL     1       8.979  29.440  56.502  1.00  0.00     0.022 A 
HETATM   17  C   UNL     1       7.987  29.426  57.478  1.00  0.00     0.011 A 
HETATM   18 BR   UNL     1       8.366  30.082  59.210  1.00  0.00    -0.051 Br
HETATM   19  C   UNL     1       6.716  28.928  57.191  1.00  0.00     0.030 A 
BRANCH  14  20
HETATM   20  O   UNL     1       7.156  27.966  53.691  1.00  0.00    -0.360 OA
HETATM   21  H   UNL     1       6.398  28.448  53.317  1.00  0.00     0.217 HD
ENDBRANCH  14  20
ENDBRANCH   7  13
BRANCH  11  22
HETATM   22  N   UNL     1       3.068  29.455  52.683  1.00  0.00    -0.282 NA
HETATM   23  H   UNL     1       3.389  30.418  52.618  1.00  0.00     0.126 HD
HETATM   24  H   UNL     1       2.846  29.046  51.779  1.00  0.00     0.126 HD
ENDBRANCH  11  22
BRANCH   1  25
HETATM   25  C   UNL     1       6.341  24.826  56.381  1.00  0.00     0.061 C 
BRANCH  25  26
HETATM   26  C   UNL     1       7.865  24.704  56.388  1.00  0.00     0.002 C 
HETATM   27  C   UNL     1       8.494  25.674  57.376  1.00  0.00     0.005 C 
ENDBRANCH  25  26
ENDBRANCH   1  25
TORSDOF 5
ENDMDL
