MODEL 1
REMARK VINA RESULT:      -9.4      0.000      0.000
REMARK  5 active torsions:
REMARK  status: ('A' for Active; 'I' for Inactive)
REMARK    1  A    between atoms: C_7  and  C_8 
REMARK    2  A    between atoms: N_9  and  N_10 
REMARK       I    between atoms: N_10  and  C_11 
REMARK    3  A    between atoms: C_11  and  C_12 
REMARK    4  A    between atoms: C_12  and  N_13 
REMARK    5  A    between atoms: N_13  and  C_14 
ROOT
HETATM    1  N   UNL     1       6.303  26.857  56.318  1.00  0.00    -0.246 N 
HETATM    2  C   UNL     1       6.196  28.178  55.883  1.00  0.00     0.255 C 
HETATM    3  O   UNL     1       6.210  28.551  54.712  1.00  0.00    -0.270 OA
HETATM    4  H   UNL     1       6.014  26.641  57.268  1.00  0.00     0.192 HD
ENDROOT
BRANCH   1   5
HETATM    5  N   UNL     1       6.414  25.746  55.513  1.00  0.00    -0.184 NA
HETATM    6  C   UNL     1       7.587  25.226  55.329  1.00  0.00     0.153 C 
BRANCH   6   7
HETATM    7  C   UNL     1       7.761  24.068  54.467  1.00  0.00     0.018 A 
HETATM    8  C   UNL     1       7.749  24.031  53.079  1.00  0.00     0.018 A 
HETATM    9  C   UNL     1       7.573  25.107  52.068  1.00  0.00     0.069 C 
HETATM   10  N   UNL     1       7.941  22.725  52.696  1.00  0.00    -0.358 N 
HETATM   11  H   UNL     1       7.980  22.401  51.740  1.00  0.00     0.166 HD
HETATM   12  C   UNL     1       8.077  21.910  53.792  1.00  0.00     0.043 A 
HETATM   13  C   UNL     1       7.974  22.722  54.920  1.00  0.00     0.004 A 
HETATM   14  C   UNL     1       8.284  20.526  53.868  1.00  0.00     0.030 A 
HETATM   15  C   UNL     1       8.092  22.119  56.191  1.00  0.00     0.014 A 
HETATM   16  C   UNL     1       8.301  20.737  56.286  1.00  0.00     0.001 A 
HETATM   17  C   UNL     1       8.394  19.955  55.139  1.00  0.00     0.002 A 
ENDBRANCH   6   7
ENDBRANCH   1   5
BRANCH   2  18
HETATM   18  C   UNL     1       6.080  29.171  57.043  1.00  0.00     0.224 C 
BRANCH  18  19
HETATM   19  N   UNL     1       7.080  28.901  58.079  1.00  0.00    -0.380 N 
HETATM   20  H   UNL     1       7.111  27.935  58.407  1.00  0.00     0.160 HD
BRANCH  19  21
HETATM   21  C   UNL     1       8.370  29.438  57.932  1.00  0.00     0.050 A 
HETATM   22  C   UNL     1       8.704  30.680  58.515  1.00  0.00     0.060 A 
HETATM   23 CL   UNL     1       7.564  31.508  59.523  1.00  0.00    -0.082 Cl
HETATM   24  C   UNL     1       9.960  31.264  58.327  1.00  0.00     0.026 A 
HETATM   25  C   UNL     1      10.909  30.627  57.532  1.00  0.00     0.002 A 
HETATM   26  C   UNL     1      10.596  29.417  56.923  1.00  0.00     0.002 A 
HETATM   27  C   UNL     1       9.338  28.833  57.115  1.00  0.00     0.031 A 
ENDBRANCH  19  21
ENDBRANCH  18  19
ENDBRANCH   2  18
TORSDOF 5
ENDMDL
MODEL 2
REMARK VINA RESULT:      -9.1      1.593      2.121
REMARK  5 active torsions:
REMARK  status: ('A' for Active; 'I' for Inactive)
REMARK    1  A    between atoms: C_7  and  C_8 
REMARK    2  A    between atoms: N_9  and  N_10 
REMARK       I    between atoms: N_10  and  C_11 
REMARK    3  A    between atoms: C_11  and  C_12 
REMARK    4  A    between atoms: C_12  and  N_13 
REMARK    5  A    between atoms: N_13  and  C_14 
ROOT
HETATM    1  N   UNL     1       6.950  27.191  55.870  1.00  0.00    -0.246 N 
HETATM    2  C   UNL     1       7.396  27.614  57.123  1.00  0.00     0.255 C 
HETATM    3  O   UNL     1       8.321  27.116  57.761  1.00  0.00    -0.270 OA
HETATM    4  H   UNL     1       6.374  27.827  55.327  1.00  0.00     0.192 HD
ENDROOT
BRANCH   1   5
HETATM    5  N   UNL     1       7.486  26.166  55.124  1.00  0.00    -0.184 NA
HETATM    6  C   UNL     1       6.829  25.053  55.035  1.00  0.00     0.153 C 
BRANCH   6   7
HETATM    7  C   UNL     1       7.364  23.930  54.282  1.00  0.00     0.018 A 
HETATM    8  C   UNL     1       7.641  23.872  52.922  1.00  0.00     0.018 A 
HETATM    9  C   UNL     1       7.497  24.887  51.845  1.00  0.00     0.069 C 
HETATM   10  N   UNL     1       8.120  22.613  52.648  1.00  0.00    -0.358 N 
HETATM   11  H   UNL     1       8.405  22.287  51.735  1.00  0.00     0.166 HD
HETATM   12  C   UNL     1       8.163  21.849  53.788  1.00  0.00     0.043 A 
HETATM   13  C   UNL     1       7.701  22.647  54.833  1.00  0.00     0.004 A 
HETATM   14  C   UNL     1       8.577  20.523  53.970  1.00  0.00     0.030 A 
HETATM   15  C   UNL     1       7.656  22.091  56.130  1.00  0.00     0.014 A 
HETATM   16  C   UNL     1       8.067  20.768  56.331  1.00  0.00     0.001 A 
HETATM   17  C   UNL     1       8.519  19.997  55.264  1.00  0.00     0.002 A 
ENDBRANCH   6   7
ENDBRANCH   1   5
BRANCH   2  18
HETATM   18  C   UNL     1       6.580  28.789  57.671  1.00  0.00     0.224 C 
BRANCH  18  19
HETATM   19  N   UNL     1       7.185  30.073  57.310  1.00  0.00    -0.380 N 
HETATM   20  H   UNL     1       6.663  30.618  56.623  1.00  0.00     0.160 HD
BRANCH  19  21
HETATM   21  C   UNL     1       7.701  30.889  58.331  1.00  0.00     0.050 A 
HETATM   22  C   UNL     1       9.089  30.924  58.590  1.00  0.00     0.060 A 
HETATM   23 CL   UNL     1      10.192  30.055  57.576  1.00  0.00    -0.082 Cl
HETATM   24  C   UNL     1       9.619  31.678  59.642  1.00  0.00     0.026 A 
HETATM   25  C   UNL     1       8.769  32.399  60.476  1.00  0.00     0.002 A 
HETATM   26  C   UNL     1       7.395  32.358  60.259  1.00  0.00     0.002 A 
HETATM   27  C   UNL     1       6.868  31.605  59.204  1.00  0.00     0.031 A 
ENDBRANCH  19  21
ENDBRANCH  18  19
ENDBRANCH   2  18
TORSDOF 5
ENDMDL
MODEL 3
REMARK VINA RESULT:      -9.1      4.497      7.380
REMARK  5 active torsions:
REMARK  status: ('A' for Active; 'I' for Inactive)
REMARK    1  A    between atoms: C_7  and  C_8 
REMARK    2  A    between atoms: N_9  and  N_10 
REMARK       I    between atoms: N_10  and  C_11 
REMARK    3  A    between atoms: C_11  and  C_12 
REMARK    4  A    between atoms: C_12  and  N_13 
REMARK    5  A    between atoms: N_13  and  C_14 
ROOT
HETATM    1  N   UNL     1       5.859  26.426  53.296  1.00  0.00    -0.246 N 
HETATM    2  C   UNL     1       5.200  26.072  52.119  1.00  0.00     0.255 C 
HETATM    3  O   UNL     1       4.823  24.941  51.819  1.00  0.00    -0.270 OA
HETATM    4  H   UNL     1       5.880  27.407  53.557  1.00  0.00     0.192 HD
ENDROOT
BRANCH   1   5
HETATM    5  N   UNL     1       6.176  25.577  54.332  1.00  0.00    -0.184 NA
HETATM    6  C   UNL     1       7.381  25.107  54.404  1.00  0.00     0.153 C 
BRANCH   6   7
HETATM    7  C   UNL     1       7.760  24.186  55.464  1.00  0.00     0.018 A 
HETATM    8  C   UNL     1       8.024  24.482  56.795  1.00  0.00     0.018 A 
HETATM    9  C   UNL     1       8.000  25.768  57.540  1.00  0.00     0.069 C 
HETATM   10  N   UNL     1       8.353  23.305  57.425  1.00  0.00    -0.358 N 
HETATM   11  H   UNL     1       8.592  23.219  58.403  1.00  0.00     0.166 HD
HETATM   12  C   UNL     1       8.311  22.252  56.546  1.00  0.00     0.043 A 
HETATM   13  C   UNL     1       7.937  22.769  55.307  1.00  0.00     0.004 A 
HETATM   14  C   UNL     1       8.573  20.891  56.754  1.00  0.00     0.030 A 
HETATM   15  C   UNL     1       7.811  21.876  54.220  1.00  0.00     0.014 A 
HETATM   16  C   UNL     1       8.067  20.513  54.410  1.00  0.00     0.001 A 
HETATM   17  C   UNL     1       8.443  20.031  55.660  1.00  0.00     0.002 A 
ENDBRANCH   6   7
ENDBRANCH   1   5
BRANCH   2  18
HETATM   18  C   UNL     1       4.998  27.264  51.178  1.00  0.00     0.224 C 
BRANCH  18  19
HETATM   19  N   UNL     1       5.375  26.929  49.803  1.00  0.00    -0.380 N 
HETATM   20  H   UNL     1       6.054  26.172  49.714  1.00  0.00     0.160 HD
BRANCH  19  21
HETATM   21  C   UNL     1       4.367  26.835  48.828  1.00  0.00     0.050 A 
HETATM   22  C   UNL     1       3.911  27.988  48.152  1.00  0.00     0.060 A 
HETATM   23 CL   UNL     1       4.668  29.521  48.425  1.00  0.00    -0.082 Cl
HETATM   24  C   UNL     1       2.865  27.928  47.226  1.00  0.00     0.026 A 
HETATM   25  C   UNL     1       2.234  26.713  46.969  1.00  0.00     0.002 A 
HETATM   26  C   UNL     1       2.646  25.568  47.643  1.00  0.00     0.002 A 
HETATM   27  C   UNL     1       3.695  25.631  48.567  1.00  0.00     0.031 A 
ENDBRANCH  19  21
ENDBRANCH  18  19
ENDBRANCH   2  18
TORSDOF 5
ENDMDL
MODEL 4
REMARK VINA RESULT:      -9.0      5.437      7.968
REMARK  5 active torsions:
REMARK  status: ('A' for Active; 'I' for Inactive)
REMARK    1  A    between atoms: C_7  and  C_8 
REMARK    2  A    between atoms: N_9  and  N_10 
REMARK       I    between atoms: N_10  and  C_11 
REMARK    3  A    between atoms: C_11  and  C_12 
REMARK    4  A    between atoms: C_12  and  N_13 
REMARK    5  A    between atoms: N_13  and  C_14 
ROOT
HETATM    1  N   UNL     1       4.973  25.816  51.652  1.00  0.00    -0.246 N 
HETATM    2  C   UNL     1       5.003  27.210  51.606  1.00  0.00     0.255 C 
HETATM    3  O   UNL     1       5.294  27.953  52.540  1.00  0.00    -0.270 OA
HETATM    4  H   UNL     1       4.985  25.307  50.773  1.00  0.00     0.192 HD
ENDROOT
BRANCH   1   5
HETATM    5  N   UNL     1       5.289  25.035  52.741  1.00  0.00    -0.184 NA
HETATM    6  C   UNL     1       6.536  24.764  52.969  1.00  0.00     0.153 C 
BRANCH   6   7
HETATM    7  C   UNL     1       6.921  23.923  54.090  1.00  0.00     0.018 A 
HETATM    8  C   UNL     1       6.805  24.204  55.446  1.00  0.00     0.018 A 
HETATM    9  C   UNL     1       6.267  25.392  56.160  1.00  0.00     0.069 C 
HETATM   10  N   UNL     1       7.306  23.128  56.139  1.00  0.00    -0.358 N 
HETATM   11  H   UNL     1       7.347  23.056  57.146  1.00  0.00     0.166 HD
HETATM   12  C   UNL     1       7.746  22.154  55.277  1.00  0.00     0.043 A 
HETATM   13  C   UNL     1       7.515  22.619  53.983  1.00  0.00     0.004 A 
HETATM   14  C   UNL     1       8.325  20.907  55.545  1.00  0.00     0.030 A 
HETATM   15  C   UNL     1       7.875  21.788  52.900  1.00  0.00     0.014 A 
HETATM   16  C   UNL     1       8.452  20.537  53.149  1.00  0.00     0.001 A 
HETATM   17  C   UNL     1       8.674  20.106  54.453  1.00  0.00     0.002 A 
ENDBRANCH   6   7
ENDBRANCH   1   5
BRANCH   2  18
HETATM   18  C   UNL     1       4.599  27.761  50.235  1.00  0.00     0.224 C 
BRANCH  18  19
HETATM   19  N   UNL     1       3.782  26.799  49.492  1.00  0.00    -0.380 N 
HETATM   20  H   UNL     1       3.507  25.968  50.018  1.00  0.00     0.160 HD
BRANCH  19  21
HETATM   21  C   UNL     1       2.726  27.278  48.698  1.00  0.00     0.050 A 
HETATM   22  C   UNL     1       2.259  26.530  47.594  1.00  0.00     0.060 A 
HETATM   23 CL   UNL     1       2.900  24.953  47.271  1.00  0.00    -0.082 Cl
HETATM   24  C   UNL     1       1.255  27.016  46.752  1.00  0.00     0.026 A 
HETATM   25  C   UNL     1       0.706  28.275  46.981  1.00  0.00     0.002 A 
HETATM   26  C   UNL     1       1.168  29.044  48.045  1.00  0.00     0.002 A 
HETATM   27  C   UNL     1       2.172  28.553  48.888  1.00  0.00     0.031 A 
ENDBRANCH  19  21
ENDBRANCH  18  19
ENDBRANCH   2  18
TORSDOF 5
ENDMDL
MODEL 5
REMARK VINA RESULT:      -8.7      1.480      2.006
REMARK  5 active torsions:
REMARK  status: ('A' for Active; 'I' for Inactive)
REMARK    1  A    between atoms: C_7  and  C_8 
REMARK    2  A    between atoms: N_9  and  N_10 
REMARK       I    between atoms: N_10  and  C_11 
REMARK    3  A    between atoms: C_11  and  C_12 
REMARK    4  A    between atoms: C_12  and  N_13 
REMARK    5  A    between atoms: N_13  and  C_14 
ROOT
HETATM    1  N   UNL     1       5.775  26.720  56.139  1.00  0.00    -0.246 N 
HETATM    2  C   UNL     1       5.388  27.967  55.648  1.00  0.00     0.255 C 
HETATM    3  O   UNL     1       5.237  28.257  54.463  1.00  0.00    -0.270 OA
HETATM    4  H   UNL     1       5.608  26.519  57.120  1.00  0.00     0.192 HD
ENDROOT
BRANCH   1   5
HETATM    5  N   UNL     1       6.026  25.596  55.384  1.00  0.00    -0.184 NA
HETATM    6  C   UNL     1       7.256  25.232  55.204  1.00  0.00     0.153 C 
BRANCH   6   7
HETATM    7  C   UNL     1       7.577  24.067  54.394  1.00  0.00     0.018 A 
HETATM    8  C   UNL     1       7.694  23.998  53.012  1.00  0.00     0.018 A 
HETATM    9  C   UNL     1       7.548  25.038  51.960  1.00  0.00     0.069 C 
HETATM   10  N   UNL     1       7.997  22.698  52.685  1.00  0.00    -0.358 N 
HETATM   11  H   UNL     1       8.142  22.355  51.745  1.00  0.00     0.166 HD
HETATM   12  C   UNL     1       8.079  21.917  53.812  1.00  0.00     0.043 A 
HETATM   13  C   UNL     1       7.826  22.747  54.902  1.00  0.00     0.004 A 
HETATM   14  C   UNL     1       8.359  20.551  53.944  1.00  0.00     0.030 A 
HETATM   15  C   UNL     1       7.862  22.181  56.195  1.00  0.00     0.014 A 
HETATM   16  C   UNL     1       8.142  20.817  56.347  1.00  0.00     0.001 A 
HETATM   17  C   UNL     1       8.385  20.017  55.236  1.00  0.00     0.002 A 
ENDBRANCH   6   7
ENDBRANCH   1   5
BRANCH   2  18
HETATM   18  C   UNL     1       5.182  28.999  56.762  1.00  0.00     0.224 C 
BRANCH  18  19
HETATM   19  N   UNL     1       6.154  30.090  56.665  1.00  0.00    -0.380 N 
HETATM   20  H   UNL     1       5.874  30.867  56.065  1.00  0.00     0.160 HD
BRANCH  19  21
HETATM   21  C   UNL     1       6.780  30.546  57.838  1.00  0.00     0.050 A 
HETATM   22  C   UNL     1       7.908  29.875  58.359  1.00  0.00     0.060 A 
HETATM   23 CL   UNL     1       8.615  28.549  57.495  1.00  0.00    -0.082 Cl
HETATM   24  C   UNL     1       8.507  30.270  59.559  1.00  0.00     0.026 A 
HETATM   25  C   UNL     1       7.977  31.337  60.281  1.00  0.00     0.002 A 
HETATM   26  C   UNL     1       6.849  31.996  59.804  1.00  0.00     0.002 A 
HETATM   27  C   UNL     1       6.253  31.600  58.601  1.00  0.00     0.031 A 
ENDBRANCH  19  21
ENDBRANCH  18  19
ENDBRANCH   2  18
TORSDOF 5
ENDMDL
MODEL 6
REMARK VINA RESULT:      -8.3      2.374      8.484
REMARK  5 active torsions:
REMARK  status: ('A' for Active; 'I' for Inactive)
REMARK    1  A    between atoms: C_7  and  C_8 
REMARK    2  A    between atoms: N_9  and  N_10 
REMARK       I    between atoms: N_10  and  C_11 
REMARK    3  A    between atoms: C_11  and  C_12 
REMARK    4  A    between atoms: C_12  and  N_13 
REMARK    5  A    between atoms: N_13  and  C_14 
ROOT
HETATM    1  N   UNL     1       6.980  26.730  55.718  1.00  0.00    -0.246 N 
HETATM    2  C   UNL     1       6.238  26.386  54.588  1.00  0.00     0.255 C 
HETATM    3  O   UNL     1       5.145  26.853  54.277  1.00  0.00    -0.270 OA
HETATM    4  H   UNL     1       7.967  26.491  55.734  1.00  0.00     0.192 HD
ENDROOT
BRANCH   1   5
HETATM    5  N   UNL     1       6.628  27.667  56.662  1.00  0.00    -0.184 NA
HETATM    6  C   UNL     1       7.019  28.892  56.497  1.00  0.00     0.153 C 
BRANCH   6   7
HETATM    7  C   UNL     1       6.696  29.915  57.479  1.00  0.00     0.018 A 
HETATM    8  C   UNL     1       5.448  30.449  57.772  1.00  0.00     0.018 A 
HETATM    9  C   UNL     1       4.099  30.161  57.216  1.00  0.00     0.069 C 
HETATM   10  N   UNL     1       5.620  31.394  58.756  1.00  0.00    -0.358 N 
HETATM   11  H   UNL     1       4.880  31.944  59.167  1.00  0.00     0.166 HD
HETATM   12  C   UNL     1       6.943  31.492  59.112  1.00  0.00     0.043 A 
HETATM   13  C   UNL     1       7.644  30.574  58.333  1.00  0.00     0.004 A 
HETATM   14  C   UNL     1       7.563  32.316  60.059  1.00  0.00     0.030 A 
HETATM   15  C   UNL     1       9.040  30.470  58.517  1.00  0.00     0.014 A 
HETATM   16  C   UNL     1       9.677  31.285  59.461  1.00  0.00     0.001 A 
HETATM   17  C   UNL     1       8.947  32.195  60.218  1.00  0.00     0.002 A 
ENDBRANCH   6   7
ENDBRANCH   1   5
BRANCH   2  18
HETATM   18  C   UNL     1       6.924  25.309  53.740  1.00  0.00     0.224 C 
BRANCH  18  19
HETATM   19  N   UNL     1       7.916  24.567  54.521  1.00  0.00    -0.380 N 
HETATM   20  H   UNL     1       8.017  24.870  55.491  1.00  0.00     0.160 HD
BRANCH  19  21
HETATM   21  C   UNL     1       7.954  23.166  54.412  1.00  0.00     0.050 A 
HETATM   22  C   UNL     1       8.206  22.364  55.547  1.00  0.00     0.060 A 
HETATM   23 CL   UNL     1       8.354  23.085  57.115  1.00  0.00    -0.082 Cl
HETATM   24  C   UNL     1       8.313  20.973  55.451  1.00  0.00     0.026 A 
HETATM   25  C   UNL     1       8.191  20.351  54.210  1.00  0.00     0.002 A 
HETATM   26  C   UNL     1       7.971  21.122  53.074  1.00  0.00     0.002 A 
HETATM   27  C   UNL     1       7.862  22.514  53.173  1.00  0.00     0.031 A 
ENDBRANCH  19  21
ENDBRANCH  18  19
ENDBRANCH   2  18
TORSDOF 5
ENDMDL
MODEL 7
REMARK VINA RESULT:      -8.2      2.987      8.881
REMARK  5 active torsions:
REMARK  status: ('A' for Active; 'I' for Inactive)
REMARK    1  A    between atoms: C_7  and  C_8 
REMARK    2  A    between atoms: N_9  and  N_10 
REMARK       I    between atoms: N_10  and  C_11 
REMARK    3  A    between atoms: C_11  and  C_12 
REMARK    4  A    between atoms: C_12  and  N_13 
REMARK    5  A    between atoms: N_13  and  C_14 
ROOT
HETATM    1  N   UNL     1       6.411  27.932  56.199  1.00  0.00    -0.246 N 
HETATM    2  C   UNL     1       6.212  26.560  56.363  1.00  0.00     0.255 C 
HETATM    3  O   UNL     1       5.823  26.009  57.390  1.00  0.00    -0.270 OA
HETATM    4  H   UNL     1       6.470  28.297  55.254  1.00  0.00     0.192 HD
ENDROOT
BRANCH   1   5
HETATM    5  N   UNL     1       6.182  28.901  57.149  1.00  0.00    -0.184 NA
HETATM    6  C   UNL     1       7.051  29.851  57.290  1.00  0.00     0.153 C 
BRANCH   6   7
HETATM    7  C   UNL     1       6.868  30.885  58.296  1.00  0.00     0.018 A 
HETATM    8  C   UNL     1       5.916  31.896  58.316  1.00  0.00     0.018 A 
HETATM    9  C   UNL     1       4.820  32.232  57.369  1.00  0.00     0.069 C 
HETATM   10  N   UNL     1       6.127  32.644  59.449  1.00  0.00    -0.358 N 
HETATM   11  H   UNL     1       5.579  33.448  59.723  1.00  0.00     0.166 HD
HETATM   12  C   UNL     1       7.188  32.153  60.168  1.00  0.00     0.043 A 
HETATM   13  C   UNL     1       7.673  31.045  59.476  1.00  0.00     0.004 A 
HETATM   14  C   UNL     1       7.747  32.602  61.372  1.00  0.00     0.030 A 
HETATM   15  C   UNL     1       8.772  30.345  60.019  1.00  0.00     0.014 A 
HETATM   16  C   UNL     1       9.343  30.779  61.222  1.00  0.00     0.001 A 
HETATM   17  C   UNL     1       8.837  31.892  61.885  1.00  0.00     0.002 A 
ENDBRANCH   6   7
ENDBRANCH   1   5
BRANCH   2  18
HETATM   18  C   UNL     1       6.558  25.762  55.102  1.00  0.00     0.224 C 
BRANCH  18  19
HETATM   19  N   UNL     1       7.817  25.031  55.262  1.00  0.00    -0.380 N 
HETATM   20  H   UNL     1       8.276  25.154  56.166  1.00  0.00     0.160 HD
BRANCH  19  21
HETATM   21  C   UNL     1       7.886  23.697  54.826  1.00  0.00     0.050 A 
HETATM   22  C   UNL     1       7.963  23.393  53.449  1.00  0.00     0.060 A 
HETATM   23 CL   UNL     1       8.094  24.663  52.278  1.00  0.00    -0.082 Cl
HETATM   24  C   UNL     1       7.966  22.073  52.989  1.00  0.00     0.026 A 
HETATM   25  C   UNL     1       7.872  21.021  53.897  1.00  0.00     0.002 A 
HETATM   26  C   UNL     1       7.767  21.294  55.257  1.00  0.00     0.002 A 
HETATM   27  C   UNL     1       7.766  22.617  55.715  1.00  0.00     0.031 A 
ENDBRANCH  19  21
ENDBRANCH  18  19
ENDBRANCH   2  18
TORSDOF 5
ENDMDL
MODEL 8
REMARK VINA RESULT:      -8.2      2.273      3.662
REMARK  5 active torsions:
REMARK  status: ('A' for Active; 'I' for Inactive)
REMARK    1  A    between atoms: C_7  and  C_8 
REMARK    2  A    between atoms: N_9  and  N_10 
REMARK       I    between atoms: N_10  and  C_11 
REMARK    3  A    between atoms: C_11  and  C_12 
REMARK    4  A    between atoms: C_12  and  N_13 
REMARK    5  A    between atoms: N_13  and  C_14 
ROOT
HETATM    1  N   UNL     1       7.132  26.751  56.713  1.00  0.00    -0.246 N 
HETATM    2  C   UNL     1       7.415  28.115  56.635  1.00  0.00     0.255 C 
HETATM    3  O   UNL     1       8.198  28.642  55.847  1.00  0.00    -0.270 OA
HETATM    4  H   UNL     1       6.290  26.464  57.202  1.00  0.00     0.192 HD
ENDROOT
BRANCH   1   5
HETATM    5  N   UNL     1       7.658  25.768  55.905  1.00  0.00    -0.184 NA
HETATM    6  C   UNL     1       6.849  25.055  55.187  1.00  0.00     0.153 C 
BRANCH   6   7
HETATM    7  C   UNL     1       7.352  23.987  54.337  1.00  0.00     0.018 A 
HETATM    8  C   UNL     1       7.586  24.027  52.969  1.00  0.00     0.018 A 
HETATM    9  C   UNL     1       7.418  25.119  51.974  1.00  0.00     0.069 C 
HETATM   10  N   UNL     1       8.046  22.789  52.590  1.00  0.00    -0.358 N 
HETATM   11  H   UNL     1       8.300  22.529  51.647  1.00  0.00     0.166 HD
HETATM   12  C   UNL     1       8.119  21.943  53.669  1.00  0.00     0.043 A 
HETATM   13  C   UNL     1       7.695  22.665  54.782  1.00  0.00     0.004 A 
HETATM   14  C   UNL     1       8.527  20.605  53.740  1.00  0.00     0.030 A 
HETATM   15  C   UNL     1       7.685  22.016  56.036  1.00  0.00     0.014 A 
HETATM   16  C   UNL     1       8.092  20.679  56.127  1.00  0.00     0.001 A 
HETATM   17  C   UNL     1       8.504  19.986  54.994  1.00  0.00     0.002 A 
ENDBRANCH   6   7
ENDBRANCH   1   5
BRANCH   2  18
HETATM   18  C   UNL     1       6.651  28.934  57.680  1.00  0.00     0.224 C 
BRANCH  18  19
HETATM   19  N   UNL     1       5.205  28.737  57.559  1.00  0.00    -0.380 N 
HETATM   20  H   UNL     1       4.741  28.413  58.409  1.00  0.00     0.160 HD
BRANCH  19  21
HETATM   21  C   UNL     1       4.441  29.712  56.894  1.00  0.00     0.050 A 
HETATM   22  C   UNL     1       4.088  29.546  55.537  1.00  0.00     0.060 A 
HETATM   23 CL   UNL     1       4.486  28.083  54.700  1.00  0.00    -0.082 Cl
HETATM   24  C   UNL     1       3.385  30.532  54.838  1.00  0.00     0.026 A 
HETATM   25  C   UNL     1       3.037  31.720  55.475  1.00  0.00     0.002 A 
HETATM   26  C   UNL     1       3.398  31.920  56.803  1.00  0.00     0.002 A 
HETATM   27  C   UNL     1       4.099  30.930  57.502  1.00  0.00     0.031 A 
ENDBRANCH  19  21
ENDBRANCH  18  19
ENDBRANCH   2  18
TORSDOF 5
ENDMDL
MODEL 9
REMARK VINA RESULT:      -8.1      2.471      3.434
REMARK  5 active torsions:
REMARK  status: ('A' for Active; 'I' for Inactive)
REMARK    1  A    between atoms: C_7  and  C_8 
REMARK    2  A    between atoms: N_9  and  N_10 
REMARK       I    between atoms: N_10  and  C_11 
REMARK    3  A    between atoms: C_11  and  C_12 
REMARK    4  A    between atoms: C_12  and  N_13 
REMARK    5  A    between atoms: N_13  and  C_14 
ROOT
HETATM    1  N   UNL     1       6.258  29.442  57.762  1.00  0.00    -0.246 N 
HETATM    2  C   UNL     1       5.297  30.448  57.672  1.00  0.00     0.255 C 
HETATM    3  O   UNL     1       4.204  30.350  57.118  1.00  0.00    -0.270 OA
HETATM    4  H   UNL     1       6.991  29.540  58.458  1.00  0.00     0.192 HD
ENDROOT
BRANCH   1   5
HETATM    5  N   UNL     1       6.137  28.161  57.271  1.00  0.00    -0.184 NA
HETATM    6  C   UNL     1       6.670  27.883  56.123  1.00  0.00     0.153 C 
BRANCH   6   7
HETATM    7  C   UNL     1       6.548  26.553  55.548  1.00  0.00     0.018 A 
HETATM    8  C   UNL     1       5.746  26.154  54.487  1.00  0.00     0.018 A 
HETATM    9  C   UNL     1       4.803  26.917  53.626  1.00  0.00     0.069 C 
HETATM   10  N   UNL     1       5.944  24.808  54.298  1.00  0.00    -0.358 N 
HETATM   11  H   UNL     1       5.490  24.248  53.590  1.00  0.00     0.166 HD
HETATM   12  C   UNL     1       6.851  24.316  55.205  1.00  0.00     0.043 A 
HETATM   13  C   UNL     1       7.253  25.386  56.001  1.00  0.00     0.004 A 
HETATM   14  C   UNL     1       7.341  23.015  55.375  1.00  0.00     0.030 A 
HETATM   15  C   UNL     1       8.202  25.144  57.018  1.00  0.00     0.014 A 
HETATM   16  C   UNL     1       8.705  23.850  57.202  1.00  0.00     0.001 A 
HETATM   17  C   UNL     1       8.277  22.803  56.392  1.00  0.00     0.002 A 
ENDBRANCH   6   7
ENDBRANCH   1   5
BRANCH   2  18
HETATM   18  C   UNL     1       5.750  31.754  58.332  1.00  0.00     0.224 C 
BRANCH  18  19
HETATM   19  N   UNL     1       5.872  31.605  59.784  1.00  0.00    -0.380 N 
HETATM   20  H   UNL     1       5.330  30.840  60.186  1.00  0.00     0.160 HD
BRANCH  19  21
HETATM   21  C   UNL     1       7.146  31.697  60.369  1.00  0.00     0.050 A 
HETATM   22  C   UNL     1       7.289  31.778  61.772  1.00  0.00     0.060 A 
HETATM   23 CL   UNL     1       5.903  31.646  62.803  1.00  0.00    -0.082 Cl
HETATM   24  C   UNL     1       8.541  31.936  62.373  1.00  0.00     0.026 A 
HETATM   25  C   UNL     1       9.683  32.037  61.582  1.00  0.00     0.002 A 
HETATM   26  C   UNL     1       9.567  31.988  60.197  1.00  0.00     0.002 A 
HETATM   27  C   UNL     1       8.312  31.828  59.598  1.00  0.00     0.031 A 
ENDBRANCH  19  21
ENDBRANCH  18  19
ENDBRANCH   2  18
TORSDOF 5
ENDMDL
MODEL 10
REMARK VINA RESULT:      -8.1      3.333      4.619
REMARK  5 active torsions:
REMARK  status: ('A' for Active; 'I' for Inactive)
REMARK    1  A    between atoms: C_7  and  C_8 
REMARK    2  A    between atoms: N_9  and  N_10 
REMARK       I    between atoms: N_10  and  C_11 
REMARK    3  A    between atoms: C_11  and  C_12 
REMARK    4  A    between atoms: C_12  and  N_13 
REMARK    5  A    between atoms: N_13  and  C_14 
ROOT
HETATM    1  N   UNL     1       7.156  29.599  58.444  1.00  0.00    -0.246 N 
HETATM    2  C   UNL     1       6.734  30.926  58.358  1.00  0.00     0.255 C 
HETATM    3  O   UNL     1       6.028  31.400  57.470  1.00  0.00    -0.270 OA
HETATM    4  H   UNL     1       7.499  29.263  59.338  1.00  0.00     0.192 HD
ENDROOT
BRANCH   1   5
HETATM    5  N   UNL     1       6.832  28.590  57.566  1.00  0.00    -0.184 NA
HETATM    6  C   UNL     1       7.785  28.012  56.905  1.00  0.00     0.153 C 
BRANCH   6   7
HETATM    7  C   UNL     1       7.494  26.958  55.947  1.00  0.00     0.018 A 
HETATM    8  C   UNL     1       6.923  27.087  54.687  1.00  0.00     0.018 A 
HETATM    9  C   UNL     1       6.454  28.282  53.938  1.00  0.00     0.069 C 
HETATM   10  N   UNL     1       6.827  25.828  54.144  1.00  0.00    -0.358 N 
HETATM   11  H   UNL     1       6.449  25.618  53.230  1.00  0.00     0.166 HD
HETATM   12  C   UNL     1       7.317  24.883  55.010  1.00  0.00     0.043 A 
HETATM   13  C   UNL     1       7.749  25.559  56.150  1.00  0.00     0.004 A 
HETATM   14  C   UNL     1       7.411  23.492  54.870  1.00  0.00     0.030 A 
HETATM   15  C   UNL     1       8.311  24.804  57.202  1.00  0.00     0.014 A 
HETATM   16  C   UNL     1       8.415  23.413  57.079  1.00  0.00     0.001 A 
HETATM   17  C   UNL     1       7.969  22.769  55.929  1.00  0.00     0.002 A 
ENDBRANCH   6   7
ENDBRANCH   1   5
BRANCH   2  18
HETATM   18  C   UNL     1       7.271  31.788  59.505  1.00  0.00     0.224 C 
BRANCH  18  19
HETATM   19  N   UNL     1       6.447  31.649  60.708  1.00  0.00    -0.380 N 
HETATM   20  H   UNL     1       6.276  30.688  61.006  1.00  0.00     0.160 HD
BRANCH  19  21
HETATM   21  C   UNL     1       6.702  32.490  61.805  1.00  0.00     0.050 A 
HETATM   22  C   UNL     1       7.610  32.100  62.814  1.00  0.00     0.060 A 
HETATM   23 CL   UNL     1       8.516  30.632  62.658  1.00  0.00    -0.082 Cl
HETATM   24  C   UNL     1       7.829  32.890  63.947  1.00  0.00     0.026 A 
HETATM   25  C   UNL     1       7.129  34.083  64.108  1.00  0.00     0.002 A 
HETATM   26  C   UNL     1       6.208  34.476  63.141  1.00  0.00     0.002 A 
HETATM   27  C   UNL     1       5.992  33.684  62.008  1.00  0.00     0.031 A 
ENDBRANCH  19  21
ENDBRANCH  18  19
ENDBRANCH   2  18
TORSDOF 5
ENDMDL
