MODEL 1
REMARK VINA RESULT:      -9.9      0.000      0.000
REMARK  5 active torsions:
REMARK  status: ('A' for Active; 'I' for Inactive)
REMARK    1  A    between atoms: C_12  and  C_13 
REMARK    2  A    between atoms: C_13  and  N_14 
REMARK    3  A    between atoms: N_14  and  C_15 
REMARK    4  A    between atoms: C_17  and  O_18 
REMARK    5  A    between atoms: C_19  and  O_20 
ROOT
HETATM    1  C   UNL     1       8.070  20.361  53.539  1.00  0.00     0.048 C 
HETATM    2  C   UNL     1       7.984  21.822  53.869  1.00  0.00    -0.059 A 
HETATM    3  C   UNL     1       8.019  22.262  55.194  1.00  0.00     0.037 A 
HETATM    4  C   UNL     1       7.911  23.624  55.477  1.00  0.00     0.046 A 
HETATM    5  C   UNL     1       7.760  24.574  54.454  1.00  0.00    -0.003 A 
HETATM    6  C   UNL     1       7.727  24.140  53.115  1.00  0.00    -0.049 A 
HETATM    7  C   UNL     1       7.571  25.096  51.964  1.00  0.00     0.049 C 
HETATM    8  C   UNL     1       7.834  22.763  52.842  1.00  0.00     0.014 A 
HETATM    9  N   UNL     1       7.957  24.046  56.812  1.00  0.00    -0.322 N 
HETATM   10  C   UNL     1       7.869  25.353  57.205  1.00  0.00     0.253 A 
HETATM   11  O   UNL     1       7.944  25.665  58.389  1.00  0.00    -0.268 OA
HETATM   12  C   UNL     1       7.681  26.369  56.134  1.00  0.00     0.024 A 
HETATM   13  C   UNL     1       7.628  25.984  54.845  1.00  0.00     0.028 A 
HETATM   14  H   UNL     1       8.079  23.371  57.554  1.00  0.00     0.169 HD
ENDROOT
BRANCH  12  15
HETATM   15  C   UNL     1       7.491  27.791  56.576  1.00  0.00     0.136 C 
BRANCH  15  16
HETATM   16  N   UNL     1       8.804  28.408  56.750  1.00  0.00    -0.288 NA
HETATM   17  H   UNL     1       9.505  27.715  57.010  1.00  0.00     0.128 HD
BRANCH  16  18
HETATM   18  C   UNL     1       8.925  29.550  57.558  1.00  0.00     0.011 A 
HETATM   19  C   UNL     1       7.921  29.790  58.513  1.00  0.00     0.062 A 
HETATM   20  C   UNL     1       8.020  30.868  59.388  1.00  0.00     0.100 A 
HETATM   21  C   UNL     1       9.126  31.708  59.344  1.00  0.00     0.098 A 
HETATM   22  C   UNL     1      10.149  31.473  58.442  1.00  0.00     0.041 A 
HETATM   23  C   UNL     1      10.054  30.386  57.564  1.00  0.00     0.026 A 
BRANCH  20  24
HETATM   24  O   UNL     1       7.054  31.139  60.318  1.00  0.00    -0.358 OA
HETATM   25  H   UNL     1       7.089  32.091  60.516  1.00  0.00     0.218 HD
ENDBRANCH  20  24
BRANCH  21  26
HETATM   26  O   UNL     1       9.219  32.764  60.203  1.00  0.00    -0.358 OA
HETATM   27  H   UNL     1       8.291  33.018  60.376  1.00  0.00     0.218 HD
ENDBRANCH  21  26
ENDBRANCH  16  18
ENDBRANCH  15  16
ENDBRANCH  12  15
TORSDOF 5
ENDMDL
MODEL 2
REMARK VINA RESULT:      -9.7      1.455      1.915
REMARK  5 active torsions:
REMARK  status: ('A' for Active; 'I' for Inactive)
REMARK    1  A    between atoms: C_12  and  C_13 
REMARK    2  A    between atoms: C_13  and  N_14 
REMARK    3  A    between atoms: N_14  and  C_15 
REMARK    4  A    between atoms: C_17  and  O_18 
REMARK    5  A    between atoms: C_19  and  O_20 
ROOT
HETATM    1  C   UNL     1       8.737  20.320  52.830  1.00  0.00     0.048 C 
HETATM    2  C   UNL     1       8.357  21.598  53.518  1.00  0.00    -0.059 A 
HETATM    3  C   UNL     1       8.794  21.871  54.816  1.00  0.00     0.037 A 
HETATM    4  C   UNL     1       8.407  23.055  55.446  1.00  0.00     0.046 A 
HETATM    5  C   UNL     1       7.574  23.986  54.803  1.00  0.00    -0.003 A 
HETATM    6  C   UNL     1       7.132  23.721  53.494  1.00  0.00    -0.049 A 
HETATM    7  C   UNL     1       6.241  24.669  52.739  1.00  0.00     0.049 C 
HETATM    8  C   UNL     1       7.526  22.522  52.870  1.00  0.00     0.014 A 
HETATM    9  N   UNL     1       8.863  23.315  56.744  1.00  0.00    -0.322 N 
HETATM   10  C   UNL     1       8.554  24.442  57.452  1.00  0.00     0.253 A 
HETATM   11  O   UNL     1       9.007  24.628  58.577  1.00  0.00    -0.268 OA
HETATM   12  C   UNL     1       7.650  25.426  56.796  1.00  0.00     0.024 A 
HETATM   13  C   UNL     1       7.196  25.193  55.551  1.00  0.00     0.028 A 
HETATM   14  H   UNL     1       9.473  22.657  57.209  1.00  0.00     0.169 HD
ENDROOT
BRANCH  12  15
HETATM   15  C   UNL     1       7.239  26.617  57.613  1.00  0.00     0.136 C 
BRANCH  15  16
HETATM   16  N   UNL     1       7.443  27.825  56.817  1.00  0.00    -0.288 NA
HETATM   17  H   UNL     1       7.765  27.597  55.877  1.00  0.00     0.128 HD
BRANCH  16  18
HETATM   18  C   UNL     1       8.203  28.878  57.351  1.00  0.00     0.011 A 
HETATM   19  C   UNL     1       9.569  28.936  57.023  1.00  0.00     0.062 A 
HETATM   20  C   UNL     1      10.359  29.994  57.466  1.00  0.00     0.100 A 
HETATM   21  C   UNL     1       9.799  31.019  58.219  1.00  0.00     0.098 A 
HETATM   22  C   UNL     1       8.450  31.010  58.523  1.00  0.00     0.041 A 
HETATM   23  C   UNL     1       7.653  29.950  58.073  1.00  0.00     0.026 A 
BRANCH  20  24
HETATM   24  O   UNL     1      11.694  30.073  57.178  1.00  0.00    -0.358 OA
HETATM   25  H   UNL     1      11.831  30.847  56.605  1.00  0.00     0.218 HD
ENDBRANCH  20  24
BRANCH  21  26
HETATM   26  O   UNL     1      10.577  32.054  58.652  1.00  0.00    -0.358 OA
HETATM   27  H   UNL     1      10.709  31.876  59.604  1.00  0.00     0.218 HD
ENDBRANCH  21  26
ENDBRANCH  16  18
ENDBRANCH  15  16
ENDBRANCH  12  15
TORSDOF 5
ENDMDL
MODEL 3
REMARK VINA RESULT:      -9.4      2.103      2.952
REMARK  5 active torsions:
REMARK  status: ('A' for Active; 'I' for Inactive)
REMARK    1  A    between atoms: C_12  and  C_13 
REMARK    2  A    between atoms: C_13  and  N_14 
REMARK    3  A    between atoms: N_14  and  C_15 
REMARK    4  A    between atoms: C_17  and  O_18 
REMARK    5  A    between atoms: C_19  and  O_20 
ROOT
HETATM    1  C   UNL     1       8.285  20.579  52.975  1.00  0.00     0.048 C 
HETATM    2  C   UNL     1       8.071  21.912  53.631  1.00  0.00    -0.059 A 
HETATM    3  C   UNL     1       7.631  23.012  52.892  1.00  0.00     0.037 A 
HETATM    4  C   UNL     1       7.463  24.248  53.518  1.00  0.00     0.046 A 
HETATM    5  C   UNL     1       7.736  24.418  54.886  1.00  0.00    -0.003 A 
HETATM    6  C   UNL     1       8.176  23.313  55.639  1.00  0.00    -0.049 A 
HETATM    7  C   UNL     1       8.486  23.414  57.107  1.00  0.00     0.049 C 
HETATM    8  C   UNL     1       8.344  22.072  54.995  1.00  0.00     0.014 A 
HETATM    9  N   UNL     1       7.012  25.337  52.762  1.00  0.00    -0.322 N 
HETATM   10  C   UNL     1       6.806  26.589  53.271  1.00  0.00     0.253 A 
HETATM   11  O   UNL     1       6.383  27.499  52.565  1.00  0.00    -0.268 OA
HETATM   12  C   UNL     1       7.117  26.792  54.713  1.00  0.00     0.024 A 
HETATM   13  C   UNL     1       7.557  25.760  55.456  1.00  0.00     0.028 A 
HETATM   14  H   UNL     1       6.801  25.222  51.780  1.00  0.00     0.169 HD
ENDROOT
BRANCH  12  15
HETATM   15  C   UNL     1       6.978  28.189  55.245  1.00  0.00     0.136 C 
BRANCH  15  16
HETATM   16  N   UNL     1       7.147  28.158  56.696  1.00  0.00    -0.288 NA
HETATM   17  H   UNL     1       6.246  28.106  57.170  1.00  0.00     0.128 HD
BRANCH  16  18
HETATM   18  C   UNL     1       7.968  29.116  57.312  1.00  0.00     0.011 A 
HETATM   19  C   UNL     1       9.325  29.151  56.947  1.00  0.00     0.062 A 
HETATM   20  C   UNL     1      10.174  30.122  57.473  1.00  0.00     0.100 A 
HETATM   21  C   UNL     1       9.683  31.085  58.345  1.00  0.00     0.098 A 
HETATM   22  C   UNL     1       8.344  31.100  58.690  1.00  0.00     0.041 A 
HETATM   23  C   UNL     1       7.487  30.128  58.159  1.00  0.00     0.026 A 
BRANCH  20  24
HETATM   24  O   UNL     1      11.504  30.174  57.151  1.00  0.00    -0.358 OA
HETATM   25  H   UNL     1      11.678  31.040  56.745  1.00  0.00     0.218 HD
ENDBRANCH  20  24
BRANCH  21  26
HETATM   26  O   UNL     1      10.518  32.034  58.859  1.00  0.00    -0.358 OA
HETATM   27  H   UNL     1      11.360  31.901  58.380  1.00  0.00     0.218 HD
ENDBRANCH  21  26
ENDBRANCH  16  18
ENDBRANCH  15  16
ENDBRANCH  12  15
TORSDOF 5
ENDMDL
MODEL 4
REMARK VINA RESULT:      -9.0      3.243      4.350
REMARK  5 active torsions:
REMARK  status: ('A' for Active; 'I' for Inactive)
REMARK    1  A    between atoms: C_12  and  C_13 
REMARK    2  A    between atoms: C_13  and  N_14 
REMARK    3  A    between atoms: N_14  and  C_15 
REMARK    4  A    between atoms: C_17  and  O_18 
REMARK    5  A    between atoms: C_19  and  O_20 
ROOT
HETATM    1  C   UNL     1       7.940  20.347  53.722  1.00  0.00     0.048 C 
HETATM    2  C   UNL     1       7.896  21.823  53.986  1.00  0.00    -0.059 A 
HETATM    3  C   UNL     1       7.903  22.319  55.292  1.00  0.00     0.037 A 
HETATM    4  C   UNL     1       7.836  23.695  55.514  1.00  0.00     0.046 A 
HETATM    5  C   UNL     1       7.753  24.604  54.446  1.00  0.00    -0.003 A 
HETATM    6  C   UNL     1       7.748  24.114  53.127  1.00  0.00    -0.049 A 
HETATM    7  C   UNL     1       7.665  25.023  51.932  1.00  0.00     0.049 C 
HETATM    8  C   UNL     1       7.814  22.723  52.916  1.00  0.00     0.014 A 
HETATM    9  N   UNL     1       7.854  24.173  56.830  1.00  0.00    -0.322 N 
HETATM   10  C   UNL     1       7.800  25.497  57.164  1.00  0.00     0.253 A 
HETATM   11  O   UNL     1       7.847  25.858  58.335  1.00  0.00    -0.268 OA
HETATM   12  C   UNL     1       7.684  26.472  56.045  1.00  0.00     0.024 A 
HETATM   13  C   UNL     1       7.659  26.033  54.773  1.00  0.00     0.028 A 
HETATM   14  H   UNL     1       7.926  23.527  57.604  1.00  0.00     0.169 HD
ENDROOT
BRANCH  12  15
HETATM   15  C   UNL     1       7.531  27.917  56.420  1.00  0.00     0.136 C 
BRANCH  15  16
HETATM   16  N   UNL     1       6.120  28.187  56.688  1.00  0.00    -0.288 NA
HETATM   17  H   UNL     1       5.654  27.364  57.065  1.00  0.00     0.128 HD
BRANCH  16  18
HETATM   18  C   UNL     1       5.333  28.779  55.687  1.00  0.00     0.011 A 
HETATM   19  C   UNL     1       4.629  27.930  54.815  1.00  0.00     0.062 A 
HETATM   20  C   UNL     1       3.779  28.458  53.846  1.00  0.00     0.100 A 
HETATM   21  C   UNL     1       3.598  29.832  53.746  1.00  0.00     0.098 A 
HETATM   22  C   UNL     1       4.246  30.690  54.616  1.00  0.00     0.041 A 
HETATM   23  C   UNL     1       5.097  30.161  55.595  1.00  0.00     0.026 A 
BRANCH  20  24
HETATM   24  O   UNL     1       3.092  27.661  52.972  1.00  0.00    -0.358 OA
HETATM   25  H   UNL     1       2.591  28.240  52.371  1.00  0.00     0.218 HD
ENDBRANCH  20  24
BRANCH  21  26
HETATM   26  O   UNL     1       2.765  30.345  52.795  1.00  0.00    -0.358 OA
HETATM   27  H   UNL     1       2.605  29.599  52.185  1.00  0.00     0.218 HD
ENDBRANCH  21  26
ENDBRANCH  16  18
ENDBRANCH  15  16
ENDBRANCH  12  15
TORSDOF 5
ENDMDL
MODEL 5
REMARK VINA RESULT:      -8.9      2.414      8.369
REMARK  5 active torsions:
REMARK  status: ('A' for Active; 'I' for Inactive)
REMARK    1  A    between atoms: C_12  and  C_13 
REMARK    2  A    between atoms: C_13  and  N_14 
REMARK    3  A    between atoms: N_14  and  C_15 
REMARK    4  A    between atoms: C_17  and  O_18 
REMARK    5  A    between atoms: C_19  and  O_20 
ROOT
HETATM    1  C   UNL     1       8.767  32.311  60.392  1.00  0.00     0.048 C 
HETATM    2  C   UNL     1       8.717  31.268  59.316  1.00  0.00    -0.059 A 
HETATM    3  C   UNL     1       7.530  30.592  59.025  1.00  0.00     0.037 A 
HETATM    4  C   UNL     1       7.514  29.608  58.037  1.00  0.00     0.046 A 
HETATM    5  C   UNL     1       8.675  29.269  57.323  1.00  0.00    -0.003 A 
HETATM    6  C   UNL     1       9.876  29.948  57.606  1.00  0.00    -0.049 A 
HETATM    7  C   UNL     1      11.159  29.645  56.883  1.00  0.00     0.049 C 
HETATM    8  C   UNL     1       9.880  30.937  58.607  1.00  0.00     0.014 A 
HETATM    9  N   UNL     1       6.311  28.948  57.754  1.00  0.00    -0.322 N 
HETATM   10  C   UNL     1       6.178  27.974  56.804  1.00  0.00     0.253 A 
HETATM   11  O   UNL     1       5.091  27.450  56.581  1.00  0.00    -0.268 OA
HETATM   12  C   UNL     1       7.405  27.585  56.058  1.00  0.00     0.024 A 
HETATM   13  C   UNL     1       8.572  28.203  56.318  1.00  0.00     0.028 A 
HETATM   14  H   UNL     1       5.468  29.193  58.254  1.00  0.00     0.169 HD
ENDROOT
BRANCH  12  15
HETATM   15  C   UNL     1       7.273  26.452  55.082  1.00  0.00     0.136 C 
BRANCH  15  16
HETATM   16  N   UNL     1       7.183  25.198  55.827  1.00  0.00    -0.288 NA
HETATM   17  H   UNL     1       7.691  25.257  56.708  1.00  0.00     0.128 HD
BRANCH  16  18
HETATM   18  C   UNL     1       7.476  23.990  55.174  1.00  0.00     0.011 A 
HETATM   19  C   UNL     1       7.572  22.826  55.957  1.00  0.00     0.062 A 
HETATM   20  C   UNL     1       7.792  21.588  55.359  1.00  0.00     0.100 A 
HETATM   21  C   UNL     1       7.894  21.484  53.978  1.00  0.00     0.098 A 
HETATM   22  C   UNL     1       7.763  22.606  53.179  1.00  0.00     0.041 A 
HETATM   23  C   UNL     1       7.536  23.852  53.778  1.00  0.00     0.026 A 
BRANCH  20  24
HETATM   24  O   UNL     1       7.908  20.438  56.093  1.00  0.00    -0.358 OA
HETATM   25  H   UNL     1       7.091  20.332  56.612  1.00  0.00     0.218 HD
ENDBRANCH  20  24
BRANCH  21  26
HETATM   26  O   UNL     1       8.111  20.269  53.396  1.00  0.00    -0.358 OA
HETATM   27  H   UNL     1       8.822  19.866  53.933  1.00  0.00     0.218 HD
ENDBRANCH  21  26
ENDBRANCH  16  18
ENDBRANCH  15  16
ENDBRANCH  12  15
TORSDOF 5
ENDMDL
MODEL 6
REMARK VINA RESULT:      -8.8      5.023      8.647
REMARK  5 active torsions:
REMARK  status: ('A' for Active; 'I' for Inactive)
REMARK    1  A    between atoms: C_12  and  C_13 
REMARK    2  A    between atoms: C_13  and  N_14 
REMARK    3  A    between atoms: N_14  and  C_15 
REMARK    4  A    between atoms: C_17  and  O_18 
REMARK    5  A    between atoms: C_19  and  O_20 
ROOT
HETATM    1  C   UNL     1       4.819  30.475  47.841  1.00  0.00     0.048 C 
HETATM    2  C   UNL     1       4.820  29.256  48.716  1.00  0.00    -0.059 A 
HETATM    3  C   UNL     1       5.336  29.304  50.013  1.00  0.00     0.037 A 
HETATM    4  C   UNL     1       5.350  28.151  50.799  1.00  0.00     0.046 A 
HETATM    5  C   UNL     1       4.860  26.928  50.312  1.00  0.00    -0.003 A 
HETATM    6  C   UNL     1       4.335  26.871  49.007  1.00  0.00    -0.049 A 
HETATM    7  C   UNL     1       3.789  25.600  48.416  1.00  0.00     0.049 C 
HETATM    8  C   UNL     1       4.329  28.040  48.223  1.00  0.00     0.014 A 
HETATM    9  N   UNL     1       5.863  28.221  52.100  1.00  0.00    -0.322 N 
HETATM   10  C   UNL     1       5.920  27.159  52.959  1.00  0.00     0.253 A 
HETATM   11  O   UNL     1       6.355  27.289  54.099  1.00  0.00    -0.268 OA
HETATM   12  C   UNL     1       5.430  25.850  52.448  1.00  0.00     0.024 A 
HETATM   13  C   UNL     1       4.938  25.760  51.199  1.00  0.00     0.028 A 
HETATM   14  H   UNL     1       6.206  29.100  52.464  1.00  0.00     0.169 HD
ENDROOT
BRANCH  12  15
HETATM   15  C   UNL     1       5.580  24.669  53.362  1.00  0.00     0.136 C 
BRANCH  15  16
HETATM   16  N   UNL     1       7.001  24.355  53.495  1.00  0.00    -0.288 NA
HETATM   17  H   UNL     1       7.512  24.600  52.648  1.00  0.00     0.128 HD
BRANCH  16  18
HETATM   18  C   UNL     1       7.383  23.082  53.947  1.00  0.00     0.011 A 
HETATM   19  C   UNL     1       7.714  22.114  52.983  1.00  0.00     0.062 A 
HETATM   20  C   UNL     1       8.166  20.855  53.371  1.00  0.00     0.100 A 
HETATM   21  C   UNL     1       8.319  20.549  54.717  1.00  0.00     0.098 A 
HETATM   22  C   UNL     1       8.041  21.495  55.687  1.00  0.00     0.041 A 
HETATM   23  C   UNL     1       7.591  22.764  55.299  1.00  0.00     0.026 A 
BRANCH  20  24
HETATM   24  O   UNL     1       8.480  19.884  52.459  1.00  0.00    -0.358 OA
HETATM   25  H   UNL     1       9.358  20.092  52.092  1.00  0.00     0.218 HD
ENDBRANCH  20  24
BRANCH  21  26
HETATM   26  O   UNL     1       8.762  19.314  55.093  1.00  0.00    -0.358 OA
HETATM   27  H   UNL     1       8.260  18.695  54.527  1.00  0.00     0.218 HD
ENDBRANCH  21  26
ENDBRANCH  16  18
ENDBRANCH  15  16
ENDBRANCH  12  15
TORSDOF 5
ENDMDL
MODEL 7
REMARK VINA RESULT:      -8.7      5.706      8.713
REMARK  5 active torsions:
REMARK  status: ('A' for Active; 'I' for Inactive)
REMARK    1  A    between atoms: C_12  and  C_13 
REMARK    2  A    between atoms: C_13  and  N_14 
REMARK    3  A    between atoms: N_14  and  C_15 
REMARK    4  A    between atoms: C_17  and  O_18 
REMARK    5  A    between atoms: C_19  and  O_20 
ROOT
HETATM    1  C   UNL     1       8.959  24.202  57.778  1.00  0.00     0.048 C 
HETATM    2  C   UNL     1       8.296  24.201  56.433  1.00  0.00    -0.059 A 
HETATM    3  C   UNL     1       7.379  25.195  56.084  1.00  0.00     0.037 A 
HETATM    4  C   UNL     1       6.756  25.160  54.836  1.00  0.00     0.046 A 
HETATM    5  C   UNL     1       7.024  24.135  53.913  1.00  0.00    -0.003 A 
HETATM    6  C   UNL     1       7.950  23.131  54.255  1.00  0.00    -0.049 A 
HETATM    7  C   UNL     1       8.292  22.003  53.320  1.00  0.00     0.049 C 
HETATM    8  C   UNL     1       8.570  23.176  55.518  1.00  0.00     0.014 A 
HETATM    9  N   UNL     1       5.846  26.171  54.501  1.00  0.00    -0.322 N 
HETATM   10  C   UNL     1       5.184  26.240  53.307  1.00  0.00     0.253 A 
HETATM   11  O   UNL     1       4.419  27.167  53.060  1.00  0.00    -0.268 OA
HETATM   12  C   UNL     1       5.437  25.147  52.330  1.00  0.00     0.024 A 
HETATM   13  C   UNL     1       6.303  24.163  52.634  1.00  0.00     0.028 A 
HETATM   14  H   UNL     1       5.656  26.919  55.153  1.00  0.00     0.169 HD
ENDROOT
BRANCH  12  15
HETATM   15  C   UNL     1       4.639  25.177  51.059  1.00  0.00     0.136 C 
BRANCH  15  16
HETATM   16  N   UNL     1       5.098  26.299  50.242  1.00  0.00    -0.288 NA
HETATM   17  H   UNL     1       5.444  27.060  50.825  1.00  0.00     0.128 HD
BRANCH  16  18
HETATM   18  C   UNL     1       4.264  26.798  49.229  1.00  0.00     0.011 A 
HETATM   19  C   UNL     1       3.874  25.918  48.205  1.00  0.00     0.062 A 
HETATM   20  C   UNL     1       2.993  26.335  47.210  1.00  0.00     0.100 A 
HETATM   21  C   UNL     1       2.468  27.622  47.234  1.00  0.00     0.098 A 
HETATM   22  C   UNL     1       2.802  28.496  48.252  1.00  0.00     0.041 A 
HETATM   23  C   UNL     1       3.684  28.077  49.256  1.00  0.00     0.026 A 
BRANCH  20  24
HETATM   24  O   UNL     1       2.606  25.510  46.190  1.00  0.00    -0.358 OA
HETATM   25  H   UNL     1       3.206  25.662  45.439  1.00  0.00     0.218 HD
ENDBRANCH  20  24
BRANCH  21  26
HETATM   26  O   UNL     1       1.606  28.027  46.257  1.00  0.00    -0.358 OA
HETATM   27  H   UNL     1       0.838  28.384  46.745  1.00  0.00     0.218 HD
ENDBRANCH  21  26
ENDBRANCH  16  18
ENDBRANCH  15  16
ENDBRANCH  12  15
TORSDOF 5
ENDMDL
MODEL 8
REMARK VINA RESULT:      -8.6      2.783      3.541
REMARK  5 active torsions:
REMARK  status: ('A' for Active; 'I' for Inactive)
REMARK    1  A    between atoms: C_12  and  C_13 
REMARK    2  A    between atoms: C_13  and  N_14 
REMARK    3  A    between atoms: N_14  and  C_15 
REMARK    4  A    between atoms: C_17  and  O_18 
REMARK    5  A    between atoms: C_19  and  O_20 
ROOT
HETATM    1  C   UNL     1       8.390  20.313  54.276  1.00  0.00     0.048 C 
HETATM    2  C   UNL     1       8.192  21.793  54.423  1.00  0.00    -0.059 A 
HETATM    3  C   UNL     1       8.167  22.392  55.684  1.00  0.00     0.037 A 
HETATM    4  C   UNL     1       7.957  23.766  55.798  1.00  0.00     0.046 A 
HETATM    5  C   UNL     1       7.760  24.572  54.664  1.00  0.00    -0.003 A 
HETATM    6  C   UNL     1       7.787  23.978  53.388  1.00  0.00    -0.049 A 
HETATM    7  C   UNL     1       7.588  24.773  52.127  1.00  0.00     0.049 C 
HETATM    8  C   UNL     1       7.998  22.590  53.287  1.00  0.00     0.014 A 
HETATM    9  N   UNL     1       7.944  24.349  57.071  1.00  0.00    -0.322 N 
HETATM   10  C   UNL     1       7.754  25.684  57.300  1.00  0.00     0.253 A 
HETATM   11  O   UNL     1       7.781  26.142  58.438  1.00  0.00    -0.268 OA
HETATM   12  C   UNL     1       7.516  26.546  56.111  1.00  0.00     0.024 A 
HETATM   13  C   UNL     1       7.519  26.005  54.879  1.00  0.00     0.028 A 
HETATM   14  H   UNL     1       8.097  23.780  57.892  1.00  0.00     0.169 HD
ENDROOT
BRANCH  12  15
HETATM   15  C   UNL     1       7.216  27.993  56.374  1.00  0.00     0.136 C 
BRANCH  15  16
HETATM   16  N   UNL     1       5.990  28.083  57.164  1.00  0.00    -0.288 NA
HETATM   17  H   UNL     1       5.578  27.162  57.309  1.00  0.00     0.128 HD
BRANCH  16  18
HETATM   18  C   UNL     1       5.001  29.009  56.795  1.00  0.00     0.011 A 
HETATM   19  C   UNL     1       4.607  29.965  57.747  1.00  0.00     0.062 A 
HETATM   20  C   UNL     1       3.681  30.951  57.417  1.00  0.00     0.100 A 
HETATM   21  C   UNL     1       3.153  31.016  56.133  1.00  0.00     0.098 A 
HETATM   22  C   UNL     1       3.553  30.114  55.164  1.00  0.00     0.041 A 
HETATM   23  C   UNL     1       4.489  29.125  55.492  1.00  0.00     0.026 A 
BRANCH  20  24
HETATM   24  O   UNL     1       3.263  31.887  58.324  1.00  0.00    -0.358 OA
HETATM   25  H   UNL     1       2.367  31.641  58.614  1.00  0.00     0.218 HD
ENDBRANCH  20  24
BRANCH  21  26
HETATM   26  O   UNL     1       2.245  31.984  55.814  1.00  0.00    -0.358 OA
HETATM   27  H   UNL     1       2.198  31.960  54.838  1.00  0.00     0.218 HD
ENDBRANCH  21  26
ENDBRANCH  16  18
ENDBRANCH  15  16
ENDBRANCH  12  15
TORSDOF 5
ENDMDL
MODEL 9
REMARK VINA RESULT:      -8.5      2.024      2.668
REMARK  5 active torsions:
REMARK  status: ('A' for Active; 'I' for Inactive)
REMARK    1  A    between atoms: C_12  and  C_13 
REMARK    2  A    between atoms: C_13  and  N_14 
REMARK    3  A    between atoms: N_14  and  C_15 
REMARK    4  A    between atoms: C_17  and  O_18 
REMARK    5  A    between atoms: C_19  and  O_20 
ROOT
HETATM    1  C   UNL     1       8.607  20.430  56.245  1.00  0.00     0.048 C 
HETATM    2  C   UNL     1       8.324  21.868  55.921  1.00  0.00    -0.059 A 
HETATM    3  C   UNL     1       8.323  22.842  56.921  1.00  0.00     0.037 A 
HETATM    4  C   UNL     1       8.032  24.169  56.600  1.00  0.00     0.046 A 
HETATM    5  C   UNL     1       7.729  24.552  55.283  1.00  0.00    -0.003 A 
HETATM    6  C   UNL     1       7.731  23.577  54.268  1.00  0.00    -0.049 A 
HETATM    7  C   UNL     1       7.421  23.910  52.834  1.00  0.00     0.049 C 
HETATM    8  C   UNL     1       8.024  22.242  54.605  1.00  0.00     0.014 A 
HETATM    9  N   UNL     1       8.045  25.132  57.616  1.00  0.00    -0.322 N 
HETATM   10  C   UNL     1       7.783  26.459  57.415  1.00  0.00     0.253 A 
HETATM   11  O   UNL     1       7.837  27.263  58.341  1.00  0.00    -0.268 OA
HETATM   12  C   UNL     1       7.434  26.877  56.030  1.00  0.00     0.024 A 
HETATM   13  C   UNL     1       7.410  25.965  55.041  1.00  0.00     0.028 A 
HETATM   14  H   UNL     1       8.274  24.868  58.564  1.00  0.00     0.169 HD
ENDROOT
BRANCH  12  15
HETATM   15  C   UNL     1       7.057  28.317  55.833  1.00  0.00     0.136 C 
BRANCH  15  16
HETATM   16  N   UNL     1       5.745  28.545  56.436  1.00  0.00    -0.288 NA
HETATM   17  H   UNL     1       5.003  28.472  55.741  1.00  0.00     0.128 HD
BRANCH  16  18
HETATM   18  C   UNL     1       5.549  29.678  57.242  1.00  0.00     0.011 A 
HETATM   19  C   UNL     1       6.686  30.360  57.707  1.00  0.00     0.062 A 
HETATM   20  C   UNL     1       6.555  31.529  58.453  1.00  0.00     0.100 A 
HETATM   21  C   UNL     1       5.296  32.048  58.727  1.00  0.00     0.098 A 
HETATM   22  C   UNL     1       4.160  31.421  58.249  1.00  0.00     0.041 A 
HETATM   23  C   UNL     1       4.290  30.248  57.493  1.00  0.00     0.026 A 
BRANCH  20  24
HETATM   24  O   UNL     1       7.641  32.208  58.934  1.00  0.00    -0.358 OA
HETATM   25  H   UNL     1       7.471  33.160  58.821  1.00  0.00     0.218 HD
ENDBRANCH  20  24
BRANCH  21  26
HETATM   26  O   UNL     1       5.171  33.192  59.460  1.00  0.00    -0.358 OA
HETATM   27  H   UNL     1       5.694  33.854  58.966  1.00  0.00     0.218 HD
ENDBRANCH  21  26
ENDBRANCH  16  18
ENDBRANCH  15  16
ENDBRANCH  12  15
TORSDOF 5
ENDMDL
MODEL 10
REMARK VINA RESULT:      -8.4      4.478      8.515
REMARK  5 active torsions:
REMARK  status: ('A' for Active; 'I' for Inactive)
REMARK    1  A    between atoms: C_12  and  C_13 
REMARK    2  A    between atoms: C_13  and  N_14 
REMARK    3  A    between atoms: N_14  and  C_15 
REMARK    4  A    between atoms: C_17  and  O_18 
REMARK    5  A    between atoms: C_19  and  O_20 
ROOT
HETATM    1  C   UNL     1       3.132  32.020  54.683  1.00  0.00     0.048 C 
HETATM    2  C   UNL     1       3.527  30.659  54.193  1.00  0.00    -0.059 A 
HETATM    3  C   UNL     1       3.999  29.687  55.078  1.00  0.00     0.037 A 
HETATM    4  C   UNL     1       4.384  28.435  54.595  1.00  0.00     0.046 A 
HETATM    5  C   UNL     1       4.315  28.126  53.227  1.00  0.00    -0.003 A 
HETATM    6  C   UNL     1       3.837  29.098  52.328  1.00  0.00    -0.049 A 
HETATM    7  C   UNL     1       3.731  28.843  50.850  1.00  0.00     0.049 C 
HETATM    8  C   UNL     1       3.455  30.358  52.826  1.00  0.00     0.014 A 
HETATM    9  N   UNL     1       4.846  27.471  55.500  1.00  0.00    -0.322 N 
HETATM   10  C   UNL     1       5.242  26.212  55.141  1.00  0.00     0.253 A 
HETATM   11  O   UNL     1       5.612  25.400  55.983  1.00  0.00    -0.268 OA
HETATM   12  C   UNL     1       5.201  25.879  53.691  1.00  0.00     0.024 A 
HETATM   13  C   UNL     1       4.766  26.793  52.805  1.00  0.00     0.028 A 
HETATM   14  H   UNL     1       4.887  27.680  56.488  1.00  0.00     0.169 HD
ENDROOT
BRANCH  12  15
HETATM   15  C   UNL     1       5.724  24.530  53.292  1.00  0.00     0.136 C 
BRANCH  15  16
HETATM   16  N   UNL     1       7.073  24.371  53.830  1.00  0.00    -0.288 NA
HETATM   17  H   UNL     1       7.759  24.854  53.251  1.00  0.00     0.128 HD
BRANCH  16  18
HETATM   18  C   UNL     1       7.533  23.087  54.164  1.00  0.00     0.011 A 
HETATM   19  C   UNL     1       7.645  22.139  53.131  1.00  0.00     0.062 A 
HETATM   20  C   UNL     1       8.159  20.870  53.388  1.00  0.00     0.100 A 
HETATM   21  C   UNL     1       8.590  20.534  54.665  1.00  0.00     0.098 A 
HETATM   22  C   UNL     1       8.530  21.459  55.692  1.00  0.00     0.041 A 
HETATM   23  C   UNL     1       8.018  22.738  55.435  1.00  0.00     0.026 A 
BRANCH  20  24
HETATM   24  O   UNL     1       8.266  19.920  52.410  1.00  0.00    -0.358 OA
HETATM   25  H   UNL     1       9.143  20.013  51.998  1.00  0.00     0.218 HD
ENDBRANCH  20  24
BRANCH  21  26
HETATM   26  O   UNL     1       9.092  19.289  54.913  1.00  0.00    -0.358 OA
HETATM   27  H   UNL     1       9.903  19.454  55.433  1.00  0.00     0.218 HD
ENDBRANCH  21  26
ENDBRANCH  16  18
ENDBRANCH  15  16
ENDBRANCH  12  15
TORSDOF 5
ENDMDL
