MODEL 1
REMARK VINA RESULT:      -9.1      0.000      0.000
REMARK  3 active torsions:
REMARK  status: ('A' for Active; 'I' for Inactive)
REMARK    1  A    between atoms: C_9  and  C_10 
REMARK    2  A    between atoms: C_16  and  C_17 
REMARK       I    between atoms: C_17  and  N_18 
REMARK    3  A    between atoms: N_18  and  C_19 
ROOT
HETATM    1  C   UNL     1       5.071  25.233  52.158  1.00  0.00     0.070 C 
HETATM    2  C   UNL     1       5.057  26.342  53.182  1.00  0.00     0.037 C 
HETATM    3  N   UNL     1       4.508  27.548  52.751  1.00  0.00    -0.191 N 
HETATM    4  C   UNL     1       4.191  28.551  53.596  1.00  0.00     0.735 A 
HETATM    5  N   UNL     1       4.557  28.458  54.908  1.00  0.00    -0.092 N 
HETATM    6  N   UNL     1       4.092  29.509  55.598  1.00  0.00     0.012 NA
HETATM    7  N   UNL     1       3.478  30.258  54.686  1.00  0.00     0.033 NA
HETATM    8  N   UNL     1       3.532  29.672  53.435  1.00  0.00     0.030 NA
HETATM    9  C   UNL     1       5.308  27.345  55.485  1.00  0.00     0.199 C 
HETATM   10  C   UNL     1       5.467  26.214  54.470  1.00  0.00     0.062 C 
HETATM   11  H   UNL     1       4.134  27.581  51.804  1.00  0.00     0.184 HD
ENDROOT
BRANCH  10  12
HETATM   12  C   UNL     1       5.987  24.951  55.061  1.00  0.00     0.256 C 
HETATM   13  N   UNL     1       6.940  24.330  54.286  1.00  0.00    -0.323 N 
HETATM   14  H   UNL     1       7.221  24.796  53.432  1.00  0.00     0.169 HD
HETATM   15  O   UNL     1       5.578  24.614  56.164  1.00  0.00    -0.267 OA
BRANCH  13  16
HETATM   16  C   UNL     1       7.566  23.090  54.533  1.00  0.00     0.035 A 
HETATM   17  C   UNL     1       8.068  22.702  55.776  1.00  0.00     0.029 A 
HETATM   18  C   UNL     1       8.656  21.443  55.944  1.00  0.00     0.002 A 
HETATM   19  C   UNL     1       8.740  20.560  54.871  1.00  0.00     0.000 A 
HETATM   20  C   UNL     1       8.243  20.936  53.626  1.00  0.00     0.002 A 
HETATM   21  C   UNL     1       7.664  22.197  53.457  1.00  0.00     0.029 A 
ENDBRANCH  13  16
ENDBRANCH  10  12
BRANCH   9  22
HETATM   22  C   UNL     1       6.647  27.828  56.014  1.00  0.00    -0.011 A 
HETATM   23  C   UNL     1       7.025  27.660  57.345  1.00  0.00     0.125 A 
HETATM   24  N   UNL     1       8.190  28.103  57.867  1.00  0.00    -0.272 NA
HETATM   25  C   UNL     1       9.036  28.731  57.023  1.00  0.00     0.116 A 
HETATM   26  C   UNL     1       8.760  28.953  55.685  1.00  0.00     0.020 A 
HETATM   27  C   UNL     1       7.545  28.502  55.178  1.00  0.00     0.012 A 
ENDBRANCH   9  22
TORSDOF 3
ENDMDL
MODEL 2
REMARK VINA RESULT:      -8.6      1.950      3.767
REMARK  3 active torsions:
REMARK  status: ('A' for Active; 'I' for Inactive)
REMARK    1  A    between atoms: C_9  and  C_10 
REMARK    2  A    between atoms: C_16  and  C_17 
REMARK       I    between atoms: C_17  and  N_18 
REMARK    3  A    between atoms: N_18  and  C_19 
ROOT
HETATM    1  C   UNL     1       4.577  25.013  57.474  1.00  0.00     0.070 C 
HETATM    2  C   UNL     1       5.025  26.256  56.745  1.00  0.00     0.037 C 
HETATM    3  N   UNL     1       4.921  27.443  57.468  1.00  0.00    -0.191 N 
HETATM    4  C   UNL     1       5.501  28.595  57.069  1.00  0.00     0.735 A 
HETATM    5  N   UNL     1       6.086  28.655  55.837  1.00  0.00    -0.092 N 
HETATM    6  N   UNL     1       6.667  29.850  55.654  1.00  0.00     0.012 NA
HETATM    7  N   UNL     1       6.393  30.524  56.768  1.00  0.00     0.033 NA
HETATM    8  N   UNL     1       5.667  29.753  57.658  1.00  0.00     0.030 NA
HETATM    9  C   UNL     1       6.114  27.556  54.875  1.00  0.00     0.199 C 
HETATM   10  C   UNL     1       5.569  26.273  55.501  1.00  0.00     0.062 C 
HETATM   11  H   UNL     1       4.587  27.380  58.427  1.00  0.00     0.184 HD
ENDROOT
BRANCH  10  12
HETATM   12  C   UNL     1       5.807  25.058  54.676  1.00  0.00     0.256 C 
HETATM   13  N   UNL     1       6.822  24.259  55.150  1.00  0.00    -0.323 N 
HETATM   14  H   UNL     1       7.272  24.540  56.012  1.00  0.00     0.169 HD
HETATM   15  O   UNL     1       5.075  24.854  53.716  1.00  0.00    -0.267 OA
BRANCH  13  16
HETATM   16  C   UNL     1       7.334  23.086  54.554  1.00  0.00     0.035 A 
HETATM   17  C   UNL     1       7.726  22.996  53.218  1.00  0.00     0.029 A 
HETATM   18  C   UNL     1       8.246  21.800  52.709  1.00  0.00     0.002 A 
HETATM   19  C   UNL     1       8.384  20.688  53.534  1.00  0.00     0.000 A 
HETATM   20  C   UNL     1       7.995  20.765  54.869  1.00  0.00     0.002 A 
HETATM   21  C   UNL     1       7.468  21.957  55.375  1.00  0.00     0.029 A 
ENDBRANCH  13  16
ENDBRANCH  10  12
BRANCH   9  22
HETATM   22  C   UNL     1       5.362  27.938  53.612  1.00  0.00    -0.011 A 
HETATM   23  C   UNL     1       5.993  28.037  52.373  1.00  0.00     0.125 A 
HETATM   24  N   UNL     1       5.371  28.405  51.231  1.00  0.00    -0.272 NA
HETATM   25  C   UNL     1       4.051  28.674  51.315  1.00  0.00     0.116 A 
HETATM   26  C   UNL     1       3.328  28.610  52.493  1.00  0.00     0.020 A 
HETATM   27  C   UNL     1       3.997  28.245  53.658  1.00  0.00     0.012 A 
ENDBRANCH   9  22
TORSDOF 3
ENDMDL
MODEL 3
REMARK VINA RESULT:      -8.6      4.646      8.457
REMARK  3 active torsions:
REMARK  status: ('A' for Active; 'I' for Inactive)
REMARK    1  A    between atoms: C_9  and  C_10 
REMARK    2  A    between atoms: C_16  and  C_17 
REMARK       I    between atoms: C_17  and  N_18 
REMARK    3  A    between atoms: N_18  and  C_19 
ROOT
HETATM    1  C   UNL     1      10.511  30.229  57.762  1.00  0.00     0.070 C 
HETATM    2  C   UNL     1       9.112  29.691  57.588  1.00  0.00     0.037 C 
HETATM    3  N   UNL     1       8.996  28.591  56.739  1.00  0.00    -0.191 N 
HETATM    4  C   UNL     1       7.878  27.839  56.666  1.00  0.00     0.735 A 
HETATM    5  N   UNL     1       6.755  28.247  57.328  1.00  0.00    -0.092 N 
HETATM    6  N   UNL     1       5.779  27.338  57.196  1.00  0.00     0.012 NA
HETATM    7  N   UNL     1       6.307  26.398  56.416  1.00  0.00     0.033 NA
HETATM    8  N   UNL     1       7.614  26.698  56.080  1.00  0.00     0.030 NA
HETATM    9  C   UNL     1       6.651  29.479  58.108  1.00  0.00     0.199 C 
HETATM   10  C   UNL     1       8.016  30.153  58.240  1.00  0.00     0.062 C 
HETATM   11  H   UNL     1       9.852  28.219  56.333  1.00  0.00     0.184 HD
ENDROOT
BRANCH  10  12
HETATM   12  C   UNL     1       8.039  31.262  59.233  1.00  0.00     0.256 C 
HETATM   13  N   UNL     1       7.531  30.914  60.463  1.00  0.00    -0.323 N 
HETATM   14  H   UNL     1       7.236  29.953  60.589  1.00  0.00     0.169 HD
HETATM   15  O   UNL     1       8.536  32.330  58.899  1.00  0.00    -0.267 OA
BRANCH  13  16
HETATM   16  C   UNL     1       7.349  31.755  61.581  1.00  0.00     0.035 A 
HETATM   17  C   UNL     1       8.221  31.808  62.670  1.00  0.00     0.029 A 
HETATM   18  C   UNL     1       7.981  32.687  63.731  1.00  0.00     0.002 A 
HETATM   19  C   UNL     1       6.870  33.526  63.710  1.00  0.00     0.000 A 
HETATM   20  C   UNL     1       5.992  33.481  62.629  1.00  0.00     0.002 A 
HETATM   21  C   UNL     1       6.228  32.596  61.573  1.00  0.00     0.029 A 
ENDBRANCH  13  16
ENDBRANCH  10  12
BRANCH   9  22
HETATM   22  C   UNL     1       5.614  30.405  57.498  1.00  0.00    -0.011 A 
HETATM   23  C   UNL     1       4.501  30.848  58.212  1.00  0.00     0.125 A 
HETATM   24  N   UNL     1       3.537  31.644  57.700  1.00  0.00    -0.272 NA
HETATM   25  C   UNL     1       3.690  32.039  56.418  1.00  0.00     0.116 A 
HETATM   26  C   UNL     1       4.753  31.657  55.619  1.00  0.00     0.020 A 
HETATM   27  C   UNL     1       5.723  30.822  56.166  1.00  0.00     0.012 A 
ENDBRANCH   9  22
TORSDOF 3
ENDMDL
MODEL 4
REMARK VINA RESULT:      -8.3      3.041      5.466
REMARK  3 active torsions:
REMARK  status: ('A' for Active; 'I' for Inactive)
REMARK    1  A    between atoms: C_9  and  C_10 
REMARK    2  A    between atoms: C_16  and  C_17 
REMARK       I    between atoms: C_17  and  N_18 
REMARK    3  A    between atoms: N_18  and  C_19 
ROOT
HETATM    1  C   UNL     1       4.266  29.129  54.628  1.00  0.00     0.070 C 
HETATM    2  C   UNL     1       4.601  29.279  53.164  1.00  0.00     0.037 C 
HETATM    3  N   UNL     1       4.573  30.583  52.674  1.00  0.00    -0.191 N 
HETATM    4  C   UNL     1       5.082  30.923  51.471  1.00  0.00     0.735 A 
HETATM    5  N   UNL     1       5.507  29.940  50.624  1.00  0.00    -0.092 N 
HETATM    6  N   UNL     1       6.043  30.476  49.518  1.00  0.00     0.012 NA
HETATM    7  N   UNL     1       5.902  31.788  49.685  1.00  0.00     0.033 NA
HETATM    8  N   UNL     1       5.305  32.080  50.898  1.00  0.00     0.030 NA
HETATM    9  C   UNL     1       5.428  28.508  50.907  1.00  0.00     0.199 C 
HETATM   10  C   UNL     1       4.984  28.264  52.348  1.00  0.00     0.062 C 
HETATM   11  H   UNL     1       4.363  31.328  53.335  1.00  0.00     0.184 HD
ENDROOT
BRANCH  10  12
HETATM   12  C   UNL     1       5.133  26.849  52.786  1.00  0.00     0.256 C 
HETATM   13  N   UNL     1       6.423  26.508  53.121  1.00  0.00    -0.323 N 
HETATM   14  H   UNL     1       7.124  27.238  53.079  1.00  0.00     0.169 HD
HETATM   15  O   UNL     1       4.127  26.154  52.859  1.00  0.00    -0.267 OA
BRANCH  13  16
HETATM   16  C   UNL     1       6.899  25.234  53.500  1.00  0.00     0.035 A 
HETATM   17  C   UNL     1       6.779  24.706  54.787  1.00  0.00     0.029 A 
HETATM   18  C   UNL     1       7.258  23.424  55.076  1.00  0.00     0.002 A 
HETATM   19  C   UNL     1       7.854  22.656  54.080  1.00  0.00     0.000 A 
HETATM   20  C   UNL     1       7.980  23.172  52.792  1.00  0.00     0.002 A 
HETATM   21  C   UNL     1       7.509  24.457  52.506  1.00  0.00     0.029 A 
ENDBRANCH  13  16
ENDBRANCH  10  12
BRANCH   9  22
HETATM   22  C   UNL     1       4.518  27.820  49.905  1.00  0.00    -0.011 A 
HETATM   23  C   UNL     1       3.230  28.278  49.634  1.00  0.00     0.125 A 
HETATM   24  N   UNL     1       2.374  27.678  48.777  1.00  0.00    -0.272 NA
HETATM   25  C   UNL     1       2.823  26.576  48.139  1.00  0.00     0.116 A 
HETATM   26  C   UNL     1       4.081  26.035  48.335  1.00  0.00     0.020 A 
HETATM   27  C   UNL     1       4.936  26.662  49.237  1.00  0.00     0.012 A 
ENDBRANCH   9  22
TORSDOF 3
ENDMDL
MODEL 5
REMARK VINA RESULT:      -8.3      6.167      9.204
REMARK  3 active torsions:
REMARK  status: ('A' for Active; 'I' for Inactive)
REMARK    1  A    between atoms: C_9  and  C_10 
REMARK    2  A    between atoms: C_16  and  C_17 
REMARK       I    between atoms: C_17  and  N_18 
REMARK    3  A    between atoms: N_18  and  C_19 
ROOT
HETATM    1  C   UNL     1       9.368  30.355  62.266  1.00  0.00     0.070 C 
HETATM    2  C   UNL     1       8.346  31.463  62.340  1.00  0.00     0.037 C 
HETATM    3  N   UNL     1       8.023  31.895  63.626  1.00  0.00    -0.191 N 
HETATM    4  C   UNL     1       7.328  33.027  63.864  1.00  0.00     0.735 A 
HETATM    5  N   UNL     1       6.781  33.707  62.814  1.00  0.00    -0.092 N 
HETATM    6  N   UNL     1       6.197  34.835  63.242  1.00  0.00     0.012 NA
HETATM    7  N   UNL     1       6.360  34.811  64.562  1.00  0.00     0.033 NA
HETATM    8  N   UNL     1       7.064  33.690  64.962  1.00  0.00     0.030 NA
HETATM    9  C   UNL     1       6.863  33.286  61.417  1.00  0.00     0.199 C 
HETATM   10  C   UNL     1       7.799  32.088  61.266  1.00  0.00     0.062 C 
HETATM   11  H   UNL     1       8.515  31.460  64.403  1.00  0.00     0.184 HD
ENDROOT
BRANCH  10  12
HETATM   12  C   UNL     1       8.136  31.769  59.852  1.00  0.00     0.256 C 
HETATM   13  N   UNL     1       7.514  30.637  59.377  1.00  0.00    -0.323 N 
HETATM   14  H   UNL     1       6.873  30.162  60.000  1.00  0.00     0.169 HD
HETATM   15  O   UNL     1       8.867  32.538  59.241  1.00  0.00    -0.267 OA
BRANCH  13  16
HETATM   16  C   UNL     1       7.685  30.035  58.112  1.00  0.00     0.035 A 
HETATM   17  C   UNL     1       6.679  29.940  57.150  1.00  0.00     0.029 A 
HETATM   18  C   UNL     1       6.936  29.347  55.909  1.00  0.00     0.002 A 
HETATM   19  C   UNL     1       8.203  28.851  55.617  1.00  0.00     0.000 A 
HETATM   20  C   UNL     1       9.216  28.939  56.570  1.00  0.00     0.002 A 
HETATM   21  C   UNL     1       8.956  29.524  57.813  1.00  0.00     0.029 A 
ENDBRANCH  13  16
ENDBRANCH  10  12
BRANCH   9  22
HETATM   22  C   UNL     1       5.476  32.999  60.869  1.00  0.00    -0.011 A 
HETATM   23  C   UNL     1       4.576  32.162  61.526  1.00  0.00     0.125 A 
HETATM   24  N   UNL     1       3.346  31.851  61.059  1.00  0.00    -0.272 NA
HETATM   25  C   UNL     1       2.980  32.413  59.887  1.00  0.00     0.116 A 
HETATM   26  C   UNL     1       3.795  33.255  59.151  1.00  0.00     0.020 A 
HETATM   27  C   UNL     1       5.063  33.544  59.647  1.00  0.00     0.012 A 
ENDBRANCH   9  22
TORSDOF 3
ENDMDL
MODEL 6
REMARK VINA RESULT:      -7.8      2.052      3.640
REMARK  3 active torsions:
REMARK  status: ('A' for Active; 'I' for Inactive)
REMARK    1  A    between atoms: C_9  and  C_10 
REMARK    2  A    between atoms: C_16  and  C_17 
REMARK       I    between atoms: C_17  and  N_18 
REMARK    3  A    between atoms: N_18  and  C_19 
ROOT
HETATM    1  C   UNL     1       4.995  25.843  57.182  1.00  0.00     0.070 C 
HETATM    2  C   UNL     1       4.923  27.022  56.244  1.00  0.00     0.037 C 
HETATM    3  N   UNL     1       3.937  27.962  56.538  1.00  0.00    -0.191 N 
HETATM    4  C   UNL     1       3.895  29.182  55.963  1.00  0.00     0.735 A 
HETATM    5  N   UNL     1       4.753  29.467  54.940  1.00  0.00    -0.092 N 
HETATM    6  N   UNL     1       4.610  30.743  54.553  1.00  0.00     0.012 NA
HETATM    7  N   UNL     1       3.631  31.213  55.321  1.00  0.00     0.033 NA
HETATM    8  N   UNL     1       3.178  30.251  56.204  1.00  0.00     0.030 NA
HETATM    9  C   UNL     1       5.722  28.527  54.381  1.00  0.00     0.199 C 
HETATM   10  C   UNL     1       5.778  27.247  55.213  1.00  0.00     0.062 C 
HETATM   11  H   UNL     1       3.369  27.802  57.367  1.00  0.00     0.184 HD
ENDROOT
BRANCH  10  12
HETATM   12  C   UNL     1       6.919  26.357  54.864  1.00  0.00     0.256 C 
HETATM   13  N   UNL     1       6.561  25.039  54.698  1.00  0.00    -0.323 N 
HETATM   14  H   UNL     1       5.579  24.809  54.786  1.00  0.00     0.169 HD
HETATM   15  O   UNL     1       8.023  26.863  54.708  1.00  0.00    -0.267 OA
BRANCH  13  16
HETATM   16  C   UNL     1       7.417  23.948  54.439  1.00  0.00     0.035 A 
HETATM   17  C   UNL     1       8.362  23.464  55.345  1.00  0.00     0.029 A 
HETATM   18  C   UNL     1       9.159  22.361  55.020  1.00  0.00     0.002 A 
HETATM   19  C   UNL     1       9.013  21.729  53.788  1.00  0.00     0.000 A 
HETATM   20  C   UNL     1       8.074  22.203  52.875  1.00  0.00     0.002 A 
HETATM   21  C   UNL     1       7.284  23.310  53.198  1.00  0.00     0.029 A 
ENDBRANCH  13  16
ENDBRANCH  10  12
BRANCH   9  22
HETATM   22  C   UNL     1       5.405  28.245  52.923  1.00  0.00    -0.011 A 
HETATM   23  C   UNL     1       5.782  29.113  51.899  1.00  0.00     0.125 A 
HETATM   24  N   UNL     1       5.492  28.919  50.593  1.00  0.00    -0.272 NA
HETATM   25  C   UNL     1       4.808  27.798  50.280  1.00  0.00     0.116 A 
HETATM   26  C   UNL     1       4.384  26.872  51.216  1.00  0.00     0.020 A 
HETATM   27  C   UNL     1       4.680  27.104  52.556  1.00  0.00     0.012 A 
ENDBRANCH   9  22
TORSDOF 3
ENDMDL
MODEL 7
REMARK VINA RESULT:      -7.7      2.513      7.020
REMARK  3 active torsions:
REMARK  status: ('A' for Active; 'I' for Inactive)
REMARK    1  A    between atoms: C_9  and  C_10 
REMARK    2  A    between atoms: C_16  and  C_17 
REMARK       I    between atoms: C_17  and  N_18 
REMARK    3  A    between atoms: N_18  and  C_19 
ROOT
HETATM    1  C   UNL     1       7.640  28.721  57.702  1.00  0.00     0.070 C 
HETATM    2  C   UNL     1       7.450  27.364  57.068  1.00  0.00     0.037 C 
HETATM    3  N   UNL     1       8.422  26.416  57.383  1.00  0.00    -0.191 N 
HETATM    4  C   UNL     1       8.276  25.102  57.111  1.00  0.00     0.735 A 
HETATM    5  N   UNL     1       7.211  24.690  56.362  1.00  0.00    -0.092 N 
HETATM    6  N   UNL     1       7.200  23.353  56.263  1.00  0.00     0.012 NA
HETATM    7  N   UNL     1       8.288  22.964  56.922  1.00  0.00     0.033 NA
HETATM    8  N   UNL     1       8.967  24.044  57.456  1.00  0.00     0.030 NA
HETATM    9  C   UNL     1       6.203  25.580  55.791  1.00  0.00     0.199 C 
HETATM   10  C   UNL     1       6.391  27.009  56.298  1.00  0.00     0.062 C 
HETATM   11  H   UNL     1       9.156  26.694  58.031  1.00  0.00     0.184 HD
ENDROOT
BRANCH  10  12
HETATM   12  C   UNL     1       5.254  27.913  55.971  1.00  0.00     0.256 C 
HETATM   13  N   UNL     1       5.533  28.809  54.964  1.00  0.00    -0.323 N 
HETATM   14  H   UNL     1       6.443  28.746  54.524  1.00  0.00     0.169 HD
HETATM   15  O   UNL     1       4.195  27.752  56.564  1.00  0.00    -0.267 OA
BRANCH  13  16
HETATM   16  C   UNL     1       4.696  29.837  54.480  1.00  0.00     0.035 A 
HETATM   17  C   UNL     1       4.448  31.029  55.163  1.00  0.00     0.029 A 
HETATM   18  C   UNL     1       3.622  32.010  54.603  1.00  0.00     0.002 A 
HETATM   19  C   UNL     1       3.041  31.809  53.354  1.00  0.00     0.000 A 
HETATM   20  C   UNL     1       3.280  30.623  52.664  1.00  0.00     0.002 A 
HETATM   21  C   UNL     1       4.099  29.640  53.228  1.00  0.00     0.029 A 
ENDBRANCH  13  16
ENDBRANCH  10  12
BRANCH   9  22
HETATM   22  C   UNL     1       6.228  25.505  54.275  1.00  0.00    -0.011 A 
HETATM   23  C   UNL     1       7.365  25.823  53.533  1.00  0.00     0.125 A 
HETATM   24  N   UNL     1       7.424  25.802  52.184  1.00  0.00    -0.272 NA
HETATM   25  C   UNL     1       6.302  25.431  51.531  1.00  0.00     0.116 A 
HETATM   26  C   UNL     1       5.119  25.097  52.166  1.00  0.00     0.020 A 
HETATM   27  C   UNL     1       5.081  25.144  53.557  1.00  0.00     0.012 A 
ENDBRANCH   9  22
TORSDOF 3
ENDMDL
MODEL 8
REMARK VINA RESULT:      -7.7      8.492     11.197
REMARK  3 active torsions:
REMARK  status: ('A' for Active; 'I' for Inactive)
REMARK    1  A    between atoms: C_9  and  C_10 
REMARK    2  A    between atoms: C_16  and  C_17 
REMARK       I    between atoms: C_17  and  N_18 
REMARK    3  A    between atoms: N_18  and  C_19 
ROOT
HETATM    1  C   UNL     1       6.958  33.499  64.739  1.00  0.00     0.070 C 
HETATM    2  C   UNL     1       6.209  34.488  63.880  1.00  0.00     0.037 C 
HETATM    3  N   UNL     1       6.086  35.770  64.413  1.00  0.00    -0.191 N 
HETATM    4  C   UNL     1       5.673  36.828  63.684  1.00  0.00     0.735 A 
HETATM    5  N   UNL     1       5.209  36.625  62.416  1.00  0.00    -0.092 N 
HETATM    6  N   UNL     1       4.918  37.796  61.832  1.00  0.00     0.012 NA
HETATM    7  N   UNL     1       5.170  38.705  62.771  1.00  0.00     0.033 NA
HETATM    8  N   UNL     1       5.642  38.115  63.929  1.00  0.00     0.030 NA
HETATM    9  C   UNL     1       5.092  35.318  61.773  1.00  0.00     0.199 C 
HETATM   10  C   UNL     1       5.732  34.231  62.636  1.00  0.00     0.062 C 
HETATM   11  H   UNL     1       6.529  35.949  65.312  1.00  0.00     0.184 HD
ENDROOT
BRANCH  10  12
HETATM   12  C   UNL     1       5.885  32.926  61.935  1.00  0.00     0.256 C 
HETATM   13  N   UNL     1       6.792  32.958  60.900  1.00  0.00    -0.323 N 
HETATM   14  H   UNL     1       7.286  33.827  60.742  1.00  0.00     0.169 HD
HETATM   15  O   UNL     1       5.256  31.963  62.355  1.00  0.00    -0.267 OA
BRANCH  13  16
HETATM   16  C   UNL     1       7.102  31.913  60.005  1.00  0.00     0.035 A 
HETATM   17  C   UNL     1       8.171  31.032  60.173  1.00  0.00     0.029 A 
HETATM   18  C   UNL     1       8.399  30.006  59.249  1.00  0.00     0.002 A 
HETATM   19  C   UNL     1       7.555  29.849  58.153  1.00  0.00     0.000 A 
HETATM   20  C   UNL     1       6.486  30.723  57.974  1.00  0.00     0.002 A 
HETATM   21  C   UNL     1       6.264  31.753  58.893  1.00  0.00     0.029 A 
ENDBRANCH  13  16
ENDBRANCH  10  12
BRANCH   9  22
HETATM   22  C   UNL     1       3.639  35.012  61.456  1.00  0.00    -0.011 A 
HETATM   23  C   UNL     1       3.179  34.862  60.149  1.00  0.00     0.125 A 
HETATM   24  N   UNL     1       1.891  34.623  59.818  1.00  0.00    -0.272 NA
HETATM   25  C   UNL     1       1.012  34.510  60.836  1.00  0.00     0.116 A 
HETATM   26  C   UNL     1       1.359  34.643  62.169  1.00  0.00     0.020 A 
HETATM   27  C   UNL     1       2.690  34.906  62.481  1.00  0.00     0.012 A 
ENDBRANCH   9  22
TORSDOF 3
ENDMDL
MODEL 9
REMARK VINA RESULT:      -7.5      3.418      6.353
REMARK  3 active torsions:
REMARK  status: ('A' for Active; 'I' for Inactive)
REMARK    1  A    between atoms: C_9  and  C_10 
REMARK    2  A    between atoms: C_16  and  C_17 
REMARK       I    between atoms: C_17  and  N_18 
REMARK    3  A    between atoms: N_18  and  C_19 
ROOT
HETATM    1  C   UNL     1       6.158  25.415  51.855  1.00  0.00     0.070 C 
HETATM    2  C   UNL     1       5.433  26.431  51.006  1.00  0.00     0.037 C 
HETATM    3  N   UNL     1       5.390  26.149  49.642  1.00  0.00    -0.191 N 
HETATM    4  C   UNL     1       4.581  26.808  48.785  1.00  0.00     0.735 A 
HETATM    5  N   UNL     1       3.885  27.896  49.227  1.00  0.00    -0.092 N 
HETATM    6  N   UNL     1       3.088  28.365  48.257  1.00  0.00     0.012 NA
HETATM    7  N   UNL     1       3.338  27.578  47.214  1.00  0.00     0.033 NA
HETATM    8  N   UNL     1       4.266  26.603  47.530  1.00  0.00     0.030 NA
HETATM    9  C   UNL     1       3.965  28.441  50.581  1.00  0.00     0.199 C 
HETATM   10  C   UNL     1       4.784  27.522  51.487  1.00  0.00     0.062 C 
HETATM   11  H   UNL     1       5.815  25.279  49.329  1.00  0.00     0.184 HD
ENDROOT
BRANCH  10  12
HETATM   12  C   UNL     1       4.691  27.871  52.931  1.00  0.00     0.256 C 
HETATM   13  N   UNL     1       5.896  28.232  53.490  1.00  0.00    -0.323 N 
HETATM   14  H   UNL     1       6.702  28.265  52.878  1.00  0.00     0.169 HD
HETATM   15  O   UNL     1       3.588  27.860  53.462  1.00  0.00    -0.267 OA
BRANCH  13  16
HETATM   16  C   UNL     1       6.149  28.543  54.843  1.00  0.00     0.035 A 
HETATM   17  C   UNL     1       5.588  29.631  55.513  1.00  0.00     0.029 A 
HETATM   18  C   UNL     1       5.873  29.859  56.864  1.00  0.00     0.002 A 
HETATM   19  C   UNL     1       6.717  28.996  57.557  1.00  0.00     0.000 A 
HETATM   20  C   UNL     1       7.284  27.907  56.899  1.00  0.00     0.002 A 
HETATM   21  C   UNL     1       7.006  27.686  55.548  1.00  0.00     0.029 A 
ENDBRANCH  13  16
ENDBRANCH  10  12
BRANCH   9  22
HETATM   22  C   UNL     1       4.520  29.854  50.551  1.00  0.00    -0.011 A 
HETATM   23  C   UNL     1       5.745  30.159  49.961  1.00  0.00     0.125 A 
HETATM   24  N   UNL     1       6.293  31.394  49.940  1.00  0.00    -0.272 NA
HETATM   25  C   UNL     1       5.582  32.385  50.519  1.00  0.00     0.116 A 
HETATM   26  C   UNL     1       4.358  32.193  51.135  1.00  0.00     0.020 A 
HETATM   27  C   UNL     1       3.825  30.908  51.157  1.00  0.00     0.012 A 
ENDBRANCH   9  22
TORSDOF 3
ENDMDL
MODEL 10
REMARK VINA RESULT:      -7.4      4.571      7.440
REMARK  3 active torsions:
REMARK  status: ('A' for Active; 'I' for Inactive)
REMARK    1  A    between atoms: C_9  and  C_10 
REMARK    2  A    between atoms: C_16  and  C_17 
REMARK       I    between atoms: C_17  and  N_18 
REMARK    3  A    between atoms: N_18  and  C_19 
ROOT
HETATM    1  C   UNL     1       3.093  31.016  52.230  1.00  0.00     0.070 C 
HETATM    2  C   UNL     1       3.205  30.716  50.755  1.00  0.00     0.037 C 
HETATM    3  N   UNL     1       2.474  31.555  49.917  1.00  0.00    -0.191 N 
HETATM    4  C   UNL     1       2.653  31.588  48.579  1.00  0.00     0.735 A 
HETATM    5  N   UNL     1       3.468  30.663  47.992  1.00  0.00    -0.092 N 
HETATM    6  N   UNL     1       3.575  30.904  46.678  1.00  0.00     0.012 NA
HETATM    7  N   UNL     1       2.787  31.955  46.469  1.00  0.00     0.033 NA
HETATM    8  N   UNL     1       2.207  32.391  47.646  1.00  0.00     0.030 NA
HETATM    9  C   UNL     1       4.161  29.593  48.706  1.00  0.00     0.199 C 
HETATM   10  C   UNL     1       4.003  29.759  50.217  1.00  0.00     0.062 C 
HETATM   11  H   UNL     1       1.953  32.314  50.351  1.00  0.00     0.184 HD
ENDROOT
BRANCH  10  12
HETATM   12  C   UNL     1       4.892  28.866  51.011  1.00  0.00     0.256 C 
HETATM   13  N   UNL     1       4.269  27.723  51.458  1.00  0.00    -0.323 N 
HETATM   14  H   UNL     1       3.306  27.579  51.181  1.00  0.00     0.169 HD
HETATM   15  O   UNL     1       6.065  29.187  51.147  1.00  0.00    -0.267 OA
BRANCH  13  16
HETATM   16  C   UNL     1       4.816  26.724  52.291  1.00  0.00     0.035 A 
HETATM   17  C   UNL     1       5.250  25.478  51.835  1.00  0.00     0.029 A 
HETATM   18  C   UNL     1       5.802  24.549  52.723  1.00  0.00     0.002 A 
HETATM   19  C   UNL     1       5.930  24.859  54.074  1.00  0.00     0.000 A 
HETATM   20  C   UNL     1       5.499  26.099  54.541  1.00  0.00     0.002 A 
HETATM   21  C   UNL     1       4.940  27.024  53.654  1.00  0.00     0.029 A 
ENDBRANCH  13  16
ENDBRANCH  10  12
BRANCH   9  22
HETATM   22  C   UNL     1       3.675  28.236  48.228  1.00  0.00    -0.011 A 
HETATM   23  C   UNL     1       4.531  27.301  47.649  1.00  0.00     0.125 A 
HETATM   24  N   UNL     1       4.137  26.097  47.179  1.00  0.00    -0.272 NA
HETATM   25  C   UNL     1       2.828  25.793  47.304  1.00  0.00     0.116 A 
HETATM   26  C   UNL     1       1.891  26.648  47.859  1.00  0.00     0.020 A 
HETATM   27  C   UNL     1       2.321  27.889  48.319  1.00  0.00     0.012 A 
ENDBRANCH   9  22
TORSDOF 3
ENDMDL
