MODEL 1
REMARK VINA RESULT:     -10.1      0.000      0.000
REMARK  5 active torsions:
REMARK  status: ('A' for Active; 'I' for Inactive)
REMARK    1  A    between atoms: C_9  and  N_10 
REMARK       I    between atoms: N_10  and  C_11 
REMARK    2  A    between atoms: C_11  and  C_12 
REMARK    3  A    between atoms: C_14  and  C_15 
REMARK    4  A    between atoms: C_15  and  O_16 
REMARK    5  A    between atoms: O_16  and  C_17 
ROOT
HETATM    1  N   UNL     1       7.667  30.974  60.861  1.00  0.00    -0.321 N 
HETATM    2  C   UNL     1       8.392  31.427  59.766  1.00  0.00     0.279 C 
HETATM    3  O   UNL     1       8.749  32.589  59.601  1.00  0.00    -0.265 OA
HETATM    4  H   UNL     1       7.306  30.033  60.799  1.00  0.00     0.169 HD
ENDROOT
BRANCH   2   5
HETATM    5  C   UNL     1       8.651  30.390  58.778  1.00  0.00     0.143 A 
HETATM    6  O   UNL     1       7.725  29.391  58.646  1.00  0.00    -0.307 OA
HETATM    7  C   UNL     1       8.173  28.525  57.695  1.00  0.00     0.078 A 
HETATM    8  C   UNL     1       9.380  28.964  57.192  1.00  0.00     0.038 A 
HETATM    9  C   UNL     1       9.690  30.160  57.890  1.00  0.00     0.045 A 
BRANCH   7  10
HETATM   10  C   UNL     1       7.323  27.335  57.433  1.00  0.00     0.240 C 
BRANCH  10  11
HETATM   11  O   UNL     1       8.083  26.188  57.808  1.00  0.00    -0.345 OA
BRANCH  11  12
HETATM   12  C   UNL     1       8.003  25.110  56.967  1.00  0.00     0.069 A 
HETATM   13  C   UNL     1       8.717  23.917  57.096  1.00  0.00     0.037 A 
HETATM   14  C   UNL     1       8.542  22.890  56.163  1.00  0.00     0.003 A 
HETATM   15  C   UNL     1       7.658  23.052  55.098  1.00  0.00     0.000 A 
HETATM   16  C   UNL     1       6.950  24.244  54.961  1.00  0.00     0.003 A 
HETATM   17  C   UNL     1       7.126  25.269  55.892  1.00  0.00     0.037 A 
ENDBRANCH  11  12
ENDBRANCH  10  11
ENDBRANCH   7  10
ENDBRANCH   2   5
BRANCH   1  18
HETATM   18  C   UNL     1       7.245  31.723  61.982  1.00  0.00     0.037 A 
HETATM   19  C   UNL     1       5.905  32.025  62.256  1.00  0.00     0.063 A 
HETATM   20  C   UNL     1       5.592  32.771  63.405  1.00  0.00     0.087 A 
HETATM   21  N   UNL     1       4.372  33.189  63.877  1.00  0.00    -0.234 NA
HETATM   22  C   UNL     1       6.615  33.191  64.246  1.00  0.00     0.062 A 
HETATM   23  C   UNL     1       4.623  33.845  64.989  1.00  0.00     0.101 A 
HETATM   24  C   UNL     1       3.632  34.488  65.882  1.00  0.00     0.091 C 
HETATM   25  N   UNL     1       5.970  33.864  65.252  1.00  0.00    -0.343 N 
HETATM   26  H   UNL     1       6.409  34.301  66.048  1.00  0.00     0.167 HD
HETATM   27  C   UNL     1       7.961  32.920  64.006  1.00  0.00     0.034 A 
HETATM   28  C   UNL     1       8.252  32.182  62.849  1.00  0.00     0.032 A 
ENDBRANCH   1  18
TORSDOF 5
ENDMDL
MODEL 2
REMARK VINA RESULT:      -9.4      2.979      9.751
REMARK  5 active torsions:
REMARK  status: ('A' for Active; 'I' for Inactive)
REMARK    1  A    between atoms: C_9  and  N_10 
REMARK       I    between atoms: N_10  and  C_11 
REMARK    2  A    between atoms: C_11  and  C_12 
REMARK    3  A    between atoms: C_14  and  C_15 
REMARK    4  A    between atoms: C_15  and  O_16 
REMARK    5  A    between atoms: O_16  and  C_17 
ROOT
HETATM    1  N   UNL     1       7.947  28.590  57.903  1.00  0.00    -0.321 N 
HETATM    2  C   UNL     1       9.030  29.445  57.740  1.00  0.00     0.279 C 
HETATM    3  O   UNL     1       9.822  29.394  56.805  1.00  0.00    -0.265 OA
HETATM    4  H   UNL     1       7.468  28.640  58.790  1.00  0.00     0.169 HD
ENDROOT
BRANCH   2   5
HETATM    5  C   UNL     1       9.181  30.397  58.831  1.00  0.00     0.143 A 
HETATM    6  O   UNL     1       8.696  30.039  60.060  1.00  0.00    -0.307 OA
HETATM    7  C   UNL     1       8.918  31.073  60.918  1.00  0.00     0.078 A 
HETATM    8  C   UNL     1       9.563  32.098  60.258  1.00  0.00     0.038 A 
HETATM    9  C   UNL     1       9.729  31.667  58.917  1.00  0.00     0.045 A 
BRANCH   7  10
HETATM   10  C   UNL     1       8.419  30.898  62.306  1.00  0.00     0.240 C 
BRANCH  10  11
HETATM   11  O   UNL     1       7.084  31.399  62.336  1.00  0.00    -0.345 OA
BRANCH  11  12
HETATM   12  C   UNL     1       6.798  32.293  63.333  1.00  0.00     0.069 A 
HETATM   13  C   UNL     1       7.733  32.996  64.096  1.00  0.00     0.037 A 
HETATM   14  C   UNL     1       7.305  33.884  65.088  1.00  0.00     0.003 A 
HETATM   15  C   UNL     1       5.943  34.071  65.323  1.00  0.00     0.000 A 
HETATM   16  C   UNL     1       5.008  33.366  64.569  1.00  0.00     0.003 A 
HETATM   17  C   UNL     1       5.436  32.479  63.580  1.00  0.00     0.037 A 
ENDBRANCH  11  12
ENDBRANCH  10  11
ENDBRANCH   7  10
ENDBRANCH   2   5
BRANCH   1  18
HETATM   18  C   UNL     1       7.532  27.554  57.036  1.00  0.00     0.037 A 
HETATM   19  C   UNL     1       6.684  27.752  55.938  1.00  0.00     0.063 A 
HETATM   20  C   UNL     1       6.340  26.652  55.134  1.00  0.00     0.087 A 
HETATM   21  N   UNL     1       5.534  26.594  54.022  1.00  0.00    -0.234 NA
HETATM   22  C   UNL     1       6.847  25.396  55.439  1.00  0.00     0.062 A 
HETATM   23  C   UNL     1       5.545  25.337  53.637  1.00  0.00     0.101 A 
HETATM   24  C   UNL     1       4.832  24.759  52.475  1.00  0.00     0.091 C 
HETATM   25  N   UNL     1       6.334  24.578  54.466  1.00  0.00    -0.343 N 
HETATM   26  H   UNL     1       6.503  23.588  54.374  1.00  0.00     0.167 HD
HETATM   27  C   UNL     1       7.686  25.155  56.526  1.00  0.00     0.034 A 
HETATM   28  C   UNL     1       8.010  26.264  57.322  1.00  0.00     0.032 A 
ENDBRANCH   1  18
TORSDOF 5
ENDMDL
MODEL 3
REMARK VINA RESULT:      -9.4      2.765      4.893
REMARK  5 active torsions:
REMARK  status: ('A' for Active; 'I' for Inactive)
REMARK    1  A    between atoms: C_9  and  N_10 
REMARK       I    between atoms: N_10  and  C_11 
REMARK    2  A    between atoms: C_11  and  C_12 
REMARK    3  A    between atoms: C_14  and  C_15 
REMARK    4  A    between atoms: C_15  and  O_16 
REMARK    5  A    between atoms: O_16  and  C_17 
ROOT
HETATM    1  N   UNL     1       8.039  29.150  56.594  1.00  0.00    -0.321 N 
HETATM    2  C   UNL     1       8.053  27.767  56.463  1.00  0.00     0.279 C 
HETATM    3  O   UNL     1       8.457  26.991  57.323  1.00  0.00    -0.265 OA
HETATM    4  H   UNL     1       7.828  29.675  55.758  1.00  0.00     0.169 HD
ENDROOT
BRANCH   2   5
HETATM    5  C   UNL     1       7.588  27.307  55.162  1.00  0.00     0.143 A 
HETATM    6  O   UNL     1       7.450  25.958  54.977  1.00  0.00    -0.307 OA
HETATM    7  C   UNL     1       7.033  25.751  53.696  1.00  0.00     0.078 A 
HETATM    8  C   UNL     1       6.881  26.960  53.051  1.00  0.00     0.038 A 
HETATM    9  C   UNL     1       7.242  27.960  53.990  1.00  0.00     0.045 A 
BRANCH   7  10
HETATM   10  C   UNL     1       6.865  24.335  53.279  1.00  0.00     0.240 C 
BRANCH  10  11
HETATM   11  O   UNL     1       6.813  23.552  54.469  1.00  0.00    -0.345 OA
BRANCH  11  12
HETATM   12  C   UNL     1       7.475  22.354  54.433  1.00  0.00     0.069 A 
HETATM   13  C   UNL     1       7.901  21.688  53.282  1.00  0.00     0.037 A 
HETATM   14  C   UNL     1       8.571  20.465  53.385  1.00  0.00     0.003 A 
HETATM   15  C   UNL     1       8.815  19.902  54.636  1.00  0.00     0.000 A 
HETATM   16  C   UNL     1       8.385  20.559  55.787  1.00  0.00     0.003 A 
HETATM   17  C   UNL     1       7.715  21.778  55.683  1.00  0.00     0.037 A 
ENDBRANCH  11  12
ENDBRANCH  10  11
ENDBRANCH   7  10
ENDBRANCH   2   5
BRANCH   1  18
HETATM   18  C   UNL     1       8.434  29.911  57.717  1.00  0.00     0.037 A 
HETATM   19  C   UNL     1       7.623  30.117  58.841  1.00  0.00     0.063 A 
HETATM   20  C   UNL     1       8.117  30.884  59.910  1.00  0.00     0.087 A 
HETATM   21  N   UNL     1       7.518  31.224  61.099  1.00  0.00    -0.234 NA
HETATM   22  C   UNL     1       9.396  31.419  59.833  1.00  0.00     0.062 A 
HETATM   23  C   UNL     1       8.403  31.944  61.753  1.00  0.00     0.101 A 
HETATM   24  C   UNL     1       8.239  32.545  63.096  1.00  0.00     0.091 C 
HETATM   25  N   UNL     1       9.558  32.082  61.023  1.00  0.00    -0.343 N 
HETATM   26  H   UNL     1      10.382  32.586  61.313  1.00  0.00     0.167 HD
HETATM   27  C   UNL     1      10.231  31.246  58.731  1.00  0.00     0.034 A 
HETATM   28  C   UNL     1       9.716  30.484  57.671  1.00  0.00     0.032 A 
ENDBRANCH   1  18
TORSDOF 5
ENDMDL
MODEL 4
REMARK VINA RESULT:      -9.3      3.066      9.961
REMARK  5 active torsions:
REMARK  status: ('A' for Active; 'I' for Inactive)
REMARK    1  A    between atoms: C_9  and  N_10 
REMARK       I    between atoms: N_10  and  C_11 
REMARK    2  A    between atoms: C_11  and  C_12 
REMARK    3  A    between atoms: C_14  and  C_15 
REMARK    4  A    between atoms: C_15  and  O_16 
REMARK    5  A    between atoms: O_16  and  C_17 
ROOT
HETATM    1  N   UNL     1       8.179  27.962  57.538  1.00  0.00    -0.321 N 
HETATM    2  C   UNL     1       8.972  29.019  57.111  1.00  0.00     0.279 C 
HETATM    3  O   UNL     1       9.620  29.026  56.069  1.00  0.00    -0.265 OA
HETATM    4  H   UNL     1       7.825  28.022  58.482  1.00  0.00     0.169 HD
ENDROOT
BRANCH   2   5
HETATM    5  C   UNL     1       9.014  30.126  58.056  1.00  0.00     0.143 A 
HETATM    6  O   UNL     1       7.905  30.348  58.825  1.00  0.00    -0.307 OA
HETATM    7  C   UNL     1       8.149  31.434  59.611  1.00  0.00     0.078 A 
HETATM    8  C   UNL     1       9.420  31.910  59.370  1.00  0.00     0.038 A 
HETATM    9  C   UNL     1       9.976  31.074  58.368  1.00  0.00     0.045 A 
BRANCH   7  10
HETATM   10  C   UNL     1       7.039  31.870  60.497  1.00  0.00     0.240 C 
BRANCH  10  11
HETATM   11  O   UNL     1       7.283  31.303  61.783  1.00  0.00    -0.345 OA
BRANCH  11  12
HETATM   12  C   UNL     1       6.994  32.100  62.858  1.00  0.00     0.069 A 
HETATM   13  C   UNL     1       7.926  32.758  63.664  1.00  0.00     0.037 A 
HETATM   14  C   UNL     1       7.495  33.545  64.736  1.00  0.00     0.003 A 
HETATM   15  C   UNL     1       6.134  33.676  65.009  1.00  0.00     0.000 A 
HETATM   16  C   UNL     1       5.202  33.015  64.213  1.00  0.00     0.003 A 
HETATM   17  C   UNL     1       5.633  32.228  63.144  1.00  0.00     0.037 A 
ENDBRANCH  11  12
ENDBRANCH  10  11
ENDBRANCH   7  10
ENDBRANCH   2   5
BRANCH   1  18
HETATM   18  C   UNL     1       7.937  26.743  56.866  1.00  0.00     0.037 A 
HETATM   19  C   UNL     1       8.326  25.491  57.360  1.00  0.00     0.063 A 
HETATM   20  C   UNL     1       8.028  24.338  56.615  1.00  0.00     0.087 A 
HETATM   21  N   UNL     1       8.305  23.020  56.885  1.00  0.00    -0.234 NA
HETATM   22  C   UNL     1       7.352  24.461  55.407  1.00  0.00     0.062 A 
HETATM   23  C   UNL     1       7.808  22.335  55.878  1.00  0.00     0.101 A 
HETATM   24  C   UNL     1       7.842  20.865  55.703  1.00  0.00     0.091 C 
HETATM   25  N   UNL     1       7.216  23.170  54.963  1.00  0.00    -0.343 N 
HETATM   26  H   UNL     1       6.762  22.883  54.110  1.00  0.00     0.167 HD
HETATM   27  C   UNL     1       6.956  25.687  54.876  1.00  0.00     0.034 A 
HETATM   28  C   UNL     1       7.271  26.825  55.631  1.00  0.00     0.032 A 
ENDBRANCH   1  18
TORSDOF 5
ENDMDL
MODEL 5
REMARK VINA RESULT:      -9.3      3.646     10.765
REMARK  5 active torsions:
REMARK  status: ('A' for Active; 'I' for Inactive)
REMARK    1  A    between atoms: C_9  and  N_10 
REMARK       I    between atoms: N_10  and  C_11 
REMARK    2  A    between atoms: C_11  and  C_12 
REMARK    3  A    between atoms: C_14  and  C_15 
REMARK    4  A    between atoms: C_15  and  O_16 
REMARK    5  A    between atoms: O_16  and  C_17 
ROOT
HETATM    1  N   UNL     1       7.103  27.387  55.713  1.00  0.00    -0.321 N 
HETATM    2  C   UNL     1       7.778  27.754  56.870  1.00  0.00     0.279 C 
HETATM    3  O   UNL     1       8.678  27.100  57.387  1.00  0.00    -0.265 OA
HETATM    4  H   UNL     1       6.284  27.931  55.483  1.00  0.00     0.169 HD
ENDROOT
BRANCH   2   5
HETATM    5  C   UNL     1       7.276  28.984  57.464  1.00  0.00     0.143 A 
HETATM    6  O   UNL     1       8.123  29.691  58.274  1.00  0.00    -0.307 OA
HETATM    7  C   UNL     1       7.449  30.781  58.738  1.00  0.00     0.078 A 
HETATM    8  C   UNL     1       6.172  30.797  58.219  1.00  0.00     0.038 A 
HETATM    9  C   UNL     1       6.057  29.641  57.405  1.00  0.00     0.045 A 
BRANCH   7  10
HETATM   10  C   UNL     1       8.188  31.662  59.678  1.00  0.00     0.240 C 
BRANCH  10  11
HETATM   11  O   UNL     1       7.886  31.211  60.997  1.00  0.00    -0.345 OA
BRANCH  11  12
HETATM   12  C   UNL     1       7.451  32.166  61.876  1.00  0.00     0.069 A 
HETATM   13  C   UNL     1       6.477  33.134  61.619  1.00  0.00     0.037 A 
HETATM   14  C   UNL     1       6.123  34.055  62.609  1.00  0.00     0.003 A 
HETATM   15  C   UNL     1       6.741  34.016  63.858  1.00  0.00     0.000 A 
HETATM   16  C   UNL     1       7.719  33.058  64.116  1.00  0.00     0.003 A 
HETATM   17  C   UNL     1       8.073  32.140  63.127  1.00  0.00     0.037 A 
ENDBRANCH  11  12
ENDBRANCH  10  11
ENDBRANCH   7  10
ENDBRANCH   2   5
BRANCH   1  18
HETATM   18  C   UNL     1       7.334  26.250  54.907  1.00  0.00     0.037 A 
HETATM   19  C   UNL     1       7.287  24.934  55.386  1.00  0.00     0.063 A 
HETATM   20  C   UNL     1       7.525  23.873  54.496  1.00  0.00     0.087 A 
HETATM   21  N   UNL     1       7.538  22.519  54.725  1.00  0.00    -0.234 NA
HETATM   22  C   UNL     1       7.799  24.148  53.162  1.00  0.00     0.062 A 
HETATM   23  C   UNL     1       7.803  21.960  53.564  1.00  0.00     0.101 A 
HETATM   24  C   UNL     1       7.918  20.511  53.283  1.00  0.00     0.091 C 
HETATM   25  N   UNL     1       7.962  22.913  52.588  1.00  0.00    -0.343 N 
HETATM   26  H   UNL     1       8.166  22.734  51.617  1.00  0.00     0.167 HD
HETATM   27  C   UNL     1       7.864  25.442  52.647  1.00  0.00     0.034 A 
HETATM   28  C   UNL     1       7.632  26.486  53.554  1.00  0.00     0.032 A 
ENDBRANCH   1  18
TORSDOF 5
ENDMDL
MODEL 6
REMARK VINA RESULT:      -9.3      3.724      6.073
REMARK  5 active torsions:
REMARK  status: ('A' for Active; 'I' for Inactive)
REMARK    1  A    between atoms: C_9  and  N_10 
REMARK       I    between atoms: N_10  and  C_11 
REMARK    2  A    between atoms: C_11  and  C_12 
REMARK    3  A    between atoms: C_14  and  C_15 
REMARK    4  A    between atoms: C_15  and  O_16 
REMARK    5  A    between atoms: O_16  and  C_17 
ROOT
HETATM    1  N   UNL     1       7.496  27.827  55.654  1.00  0.00    -0.321 N 
HETATM    2  C   UNL     1       6.359  28.078  54.897  1.00  0.00     0.279 C 
HETATM    3  O   UNL     1       5.734  29.134  54.909  1.00  0.00    -0.265 OA
HETATM    4  H   UNL     1       7.821  26.871  55.668  1.00  0.00     0.169 HD
ENDROOT
BRANCH   2   5
HETATM    5  C   UNL     1       5.926  26.932  54.110  1.00  0.00     0.143 A 
HETATM    6  O   UNL     1       6.783  25.870  54.009  1.00  0.00    -0.307 OA
HETATM    7  C   UNL     1       6.195  24.930  53.216  1.00  0.00     0.078 A 
HETATM    8  C   UNL     1       4.951  25.368  52.815  1.00  0.00     0.038 A 
HETATM    9  C   UNL     1       4.778  26.655  53.384  1.00  0.00     0.045 A 
BRANCH   7  10
HETATM   10  C   UNL     1       6.992  23.706  52.944  1.00  0.00     0.240 C 
BRANCH  10  11
HETATM   11  O   UNL     1       8.093  23.713  53.850  1.00  0.00    -0.345 OA
BRANCH  11  12
HETATM   12  C   UNL     1       8.248  22.592  54.620  1.00  0.00     0.069 A 
HETATM   13  C   UNL     1       8.309  22.557  56.015  1.00  0.00     0.037 A 
HETATM   14  C   UNL     1       8.471  21.339  56.681  1.00  0.00     0.003 A 
HETATM   15  C   UNL     1       8.575  20.152  55.958  1.00  0.00     0.000 A 
HETATM   16  C   UNL     1       8.522  20.182  54.566  1.00  0.00     0.003 A 
HETATM   17  C   UNL     1       8.363  21.399  53.902  1.00  0.00     0.037 A 
ENDBRANCH  11  12
ENDBRANCH  10  11
ENDBRANCH   7  10
ENDBRANCH   2   5
BRANCH   1  18
HETATM   18  C   UNL     1       8.162  28.717  56.527  1.00  0.00     0.037 A 
HETATM   19  C   UNL     1       7.711  29.022  57.818  1.00  0.00     0.063 A 
HETATM   20  C   UNL     1       8.454  29.916  58.608  1.00  0.00     0.087 A 
HETATM   21  N   UNL     1       8.218  30.367  59.884  1.00  0.00    -0.234 NA
HETATM   22  C   UNL     1       9.619  30.475  58.097  1.00  0.00     0.062 A 
HETATM   23  C   UNL     1       9.213  31.179  60.167  1.00  0.00     0.101 A 
HETATM   24  C   UNL     1       9.421  31.919  61.433  1.00  0.00     0.091 C 
HETATM   25  N   UNL     1      10.088  31.268  59.113  1.00  0.00    -0.343 N 
HETATM   26  H   UNL     1      10.929  31.823  59.090  1.00  0.00     0.167 HD
HETATM   27  C   UNL     1      10.096  30.205  56.815  1.00  0.00     0.034 A 
HETATM   28  C   UNL     1       9.335  29.318  56.040  1.00  0.00     0.032 A 
ENDBRANCH   1  18
TORSDOF 5
ENDMDL
MODEL 7
REMARK VINA RESULT:      -9.2      3.653     10.481
REMARK  5 active torsions:
REMARK  status: ('A' for Active; 'I' for Inactive)
REMARK    1  A    between atoms: C_9  and  N_10 
REMARK       I    between atoms: N_10  and  C_11 
REMARK    2  A    between atoms: C_11  and  C_12 
REMARK    3  A    between atoms: C_14  and  C_15 
REMARK    4  A    between atoms: C_15  and  O_16 
REMARK    5  A    between atoms: O_16  and  C_17 
ROOT
HETATM    1  N   UNL     1       7.531  26.583  56.627  1.00  0.00    -0.321 N 
HETATM    2  C   UNL     1       6.328  27.144  57.034  1.00  0.00     0.279 C 
HETATM    3  O   UNL     1       5.256  26.546  57.063  1.00  0.00    -0.265 OA
HETATM    4  H   UNL     1       8.302  27.223  56.504  1.00  0.00     0.169 HD
ENDROOT
BRANCH   2   5
HETATM    5  C   UNL     1       6.437  28.554  57.380  1.00  0.00     0.143 A 
HETATM    6  O   UNL     1       7.601  28.978  57.962  1.00  0.00    -0.307 OA
HETATM    7  C   UNL     1       7.480  30.309  58.222  1.00  0.00     0.078 A 
HETATM    8  C   UNL     1       6.248  30.760  57.796  1.00  0.00     0.038 A 
HETATM    9  C   UNL     1       5.575  29.633  57.259  1.00  0.00     0.045 A 
BRANCH   7  10
HETATM   10  C   UNL     1       8.632  30.956  58.901  1.00  0.00     0.240 C 
BRANCH  10  11
HETATM   11  O   UNL     1       8.200  32.250  59.316  1.00  0.00    -0.345 OA
BRANCH  11  12
HETATM   12  C   UNL     1       7.885  32.385  60.642  1.00  0.00     0.069 A 
HETATM   13  C   UNL     1       8.718  32.070  61.718  1.00  0.00     0.037 A 
HETATM   14  C   UNL     1       8.272  32.256  63.029  1.00  0.00     0.003 A 
HETATM   15  C   UNL     1       6.993  32.754  63.272  1.00  0.00     0.000 A 
HETATM   16  C   UNL     1       6.156  33.063  62.202  1.00  0.00     0.003 A 
HETATM   17  C   UNL     1       6.602  32.875  60.893  1.00  0.00     0.037 A 
ENDBRANCH  11  12
ENDBRANCH  10  11
ENDBRANCH   7  10
ENDBRANCH   2   5
BRANCH   1  18
HETATM   18  C   UNL     1       7.764  25.251  56.217  1.00  0.00     0.037 A 
HETATM   19  C   UNL     1       7.600  24.803  54.900  1.00  0.00     0.063 A 
HETATM   20  C   UNL     1       7.867  23.457  54.597  1.00  0.00     0.087 A 
HETATM   21  N   UNL     1       7.777  22.791  53.399  1.00  0.00    -0.234 NA
HETATM   22  C   UNL     1       8.289  22.600  55.605  1.00  0.00     0.062 A 
HETATM   23  C   UNL     1       8.143  21.552  53.648  1.00  0.00     0.101 A 
HETATM   24  C   UNL     1       8.223  20.438  52.677  1.00  0.00     0.091 C 
HETATM   25  N   UNL     1       8.468  21.396  54.973  1.00  0.00    -0.343 N 
HETATM   26  H   UNL     1       8.781  20.541  55.406  1.00  0.00     0.167 HD
HETATM   27  C   UNL     1       8.456  23.003  56.929  1.00  0.00     0.034 A 
HETATM   28  C   UNL     1       8.176  24.348  57.212  1.00  0.00     0.032 A 
ENDBRANCH   1  18
TORSDOF 5
ENDMDL
MODEL 8
REMARK VINA RESULT:      -8.9      1.583      1.955
REMARK  5 active torsions:
REMARK  status: ('A' for Active; 'I' for Inactive)
REMARK    1  A    between atoms: C_9  and  N_10 
REMARK       I    between atoms: N_10  and  C_11 
REMARK    2  A    between atoms: C_11  and  C_12 
REMARK    3  A    between atoms: C_14  and  C_15 
REMARK    4  A    between atoms: C_15  and  O_16 
REMARK    5  A    between atoms: O_16  and  C_17 
ROOT
HETATM    1  N   UNL     1       6.498  31.486  60.794  1.00  0.00    -0.321 N 
HETATM    2  C   UNL     1       7.312  31.787  59.709  1.00  0.00     0.279 C 
HETATM    3  O   UNL     1       8.188  32.647  59.715  1.00  0.00    -0.265 OA
HETATM    4  H   UNL     1       5.720  30.869  60.610  1.00  0.00     0.169 HD
ENDROOT
BRANCH   2   5
HETATM    5  C   UNL     1       6.993  31.015  58.517  1.00  0.00     0.143 A 
HETATM    6  O   UNL     1       7.884  30.052  58.126  1.00  0.00    -0.307 OA
HETATM    7  C   UNL     1       7.406  29.476  56.988  1.00  0.00     0.078 A 
HETATM    8  C   UNL     1       6.199  30.047  56.645  1.00  0.00     0.038 A 
HETATM    9  C   UNL     1       5.935  31.039  57.623  1.00  0.00     0.045 A 
BRANCH   7  10
HETATM   10  C   UNL     1       8.258  28.426  56.373  1.00  0.00     0.240 C 
BRANCH  10  11
HETATM   11  O   UNL     1       7.722  28.157  55.079  1.00  0.00    -0.345 OA
BRANCH  11  12
HETATM   12  C   UNL     1       7.408  26.851  54.816  1.00  0.00     0.069 A 
HETATM   13  C   UNL     1       6.892  25.932  55.732  1.00  0.00     0.037 A 
HETATM   14  C   UNL     1       6.613  24.622  55.331  1.00  0.00     0.003 A 
HETATM   15  C   UNL     1       6.852  24.223  54.016  1.00  0.00     0.000 A 
HETATM   16  C   UNL     1       7.375  25.135  53.102  1.00  0.00     0.003 A 
HETATM   17  C   UNL     1       7.654  26.442  53.503  1.00  0.00     0.037 A 
ENDBRANCH  11  12
ENDBRANCH  10  11
ENDBRANCH   7  10
ENDBRANCH   2   5
BRANCH   1  18
HETATM   18  C   UNL     1       6.539  32.058  62.085  1.00  0.00     0.037 A 
HETATM   19  C   UNL     1       5.397  32.368  62.835  1.00  0.00     0.063 A 
HETATM   20  C   UNL     1       5.549  32.928  64.114  1.00  0.00     0.087 A 
HETATM   21  N   UNL     1       4.596  33.315  65.024  1.00  0.00    -0.234 NA
HETATM   22  C   UNL     1       6.826  33.161  64.611  1.00  0.00     0.062 A 
HETATM   23  C   UNL     1       5.257  33.769  66.066  1.00  0.00     0.101 A 
HETATM   24  C   UNL     1       4.679  34.299  67.322  1.00  0.00     0.091 C 
HETATM   25  N   UNL     1       6.612  33.687  65.859  1.00  0.00    -0.343 N 
HETATM   26  H   UNL     1       7.326  33.969  66.513  1.00  0.00     0.167 HD
HETATM   27  C   UNL     1       7.987  32.876  63.894  1.00  0.00     0.034 A 
HETATM   28  C   UNL     1       7.812  32.326  62.616  1.00  0.00     0.032 A 
ENDBRANCH   1  18
TORSDOF 5
ENDMDL
MODEL 9
REMARK VINA RESULT:      -8.9      2.071      3.403
REMARK  5 active torsions:
REMARK  status: ('A' for Active; 'I' for Inactive)
REMARK    1  A    between atoms: C_9  and  N_10 
REMARK       I    between atoms: N_10  and  C_11 
REMARK    2  A    between atoms: C_11  and  C_12 
REMARK    3  A    between atoms: C_14  and  C_15 
REMARK    4  A    between atoms: C_15  and  O_16 
REMARK    5  A    between atoms: O_16  and  C_17 
ROOT
HETATM    1  N   UNL     1       7.835  30.003  57.829  1.00  0.00    -0.321 N 
HETATM    2  C   UNL     1       7.711  28.644  57.567  1.00  0.00     0.279 C 
HETATM    3  O   UNL     1       7.761  27.764  58.421  1.00  0.00    -0.265 OA
HETATM    4  H   UNL     1       7.931  30.605  57.024  1.00  0.00     0.169 HD
ENDROOT
BRANCH   2   5
HETATM    5  C   UNL     1       7.569  28.341  56.150  1.00  0.00     0.143 A 
HETATM    6  O   UNL     1       6.510  27.561  55.770  1.00  0.00    -0.307 OA
HETATM    7  C   UNL     1       6.582  27.384  54.421  1.00  0.00     0.078 A 
HETATM    8  C   UNL     1       7.674  28.059  53.918  1.00  0.00     0.038 A 
HETATM    9  C   UNL     1       8.311  28.671  55.027  1.00  0.00     0.045 A 
BRANCH   7  10
HETATM   10  C   UNL     1       5.538  26.520  53.813  1.00  0.00     0.240 C 
BRANCH  10  11
HETATM   11  O   UNL     1       5.466  25.333  54.600  1.00  0.00    -0.345 OA
BRANCH  11  12
HETATM   12  C   UNL     1       6.491  24.440  54.439  1.00  0.00     0.069 A 
HETATM   13  C   UNL     1       7.261  23.884  55.463  1.00  0.00     0.037 A 
HETATM   14  C   UNL     1       8.283  22.979  55.162  1.00  0.00     0.003 A 
HETATM   15  C   UNL     1       8.543  22.629  53.837  1.00  0.00     0.000 A 
HETATM   16  C   UNL     1       7.783  23.188  52.812  1.00  0.00     0.003 A 
HETATM   17  C   UNL     1       6.764  24.092  53.114  1.00  0.00     0.037 A 
ENDBRANCH  11  12
ENDBRANCH  10  11
ENDBRANCH   7  10
ENDBRANCH   2   5
BRANCH   1  18
HETATM   18  C   UNL     1       7.998  30.624  59.087  1.00  0.00     0.037 A 
HETATM   19  C   UNL     1       6.981  31.332  59.742  1.00  0.00     0.063 A 
HETATM   20  C   UNL     1       7.247  31.905  60.997  1.00  0.00     0.087 A 
HETATM   21  N   UNL     1       6.426  32.638  61.820  1.00  0.00    -0.234 NA
HETATM   22  C   UNL     1       8.506  31.758  61.564  1.00  0.00     0.062 A 
HETATM   23  C   UNL     1       7.149  32.933  62.878  1.00  0.00     0.101 A 
HETATM   24  C   UNL     1       6.714  33.707  64.063  1.00  0.00     0.091 C 
HETATM   25  N   UNL     1       8.415  32.413  62.765  1.00  0.00    -0.343 N 
HETATM   26  H   UNL     1       9.151  32.500  63.449  1.00  0.00     0.167 HD
HETATM   27  C   UNL     1       9.547  31.070  60.942  1.00  0.00     0.034 A 
HETATM   28  C   UNL     1       9.264  30.513  59.686  1.00  0.00     0.032 A 
ENDBRANCH   1  18
TORSDOF 5
ENDMDL
MODEL 10
REMARK VINA RESULT:      -8.7      1.251      1.816
REMARK  5 active torsions:
REMARK  status: ('A' for Active; 'I' for Inactive)
REMARK    1  A    between atoms: C_9  and  N_10 
REMARK       I    between atoms: N_10  and  C_11 
REMARK    2  A    between atoms: C_11  and  C_12 
REMARK    3  A    between atoms: C_14  and  C_15 
REMARK    4  A    between atoms: C_15  and  O_16 
REMARK    5  A    between atoms: O_16  and  C_17 
ROOT
HETATM    1  N   UNL     1       7.161  31.356  59.743  1.00  0.00    -0.321 N 
HETATM    2  C   UNL     1       8.429  31.668  59.271  1.00  0.00     0.279 C 
HETATM    3  O   UNL     1       9.078  32.650  59.617  1.00  0.00    -0.265 OA
HETATM    4  H   UNL     1       6.677  30.610  59.263  1.00  0.00     0.169 HD
ENDROOT
BRANCH   2   5
HETATM    5  C   UNL     1       8.914  30.737  58.262  1.00  0.00     0.143 A 
HETATM    6  O   UNL     1       7.990  30.161  57.431  1.00  0.00    -0.307 OA
HETATM    7  C   UNL     1       8.650  29.316  56.591  1.00  0.00     0.078 A 
HETATM    8  C   UNL     1      10.003  29.351  56.859  1.00  0.00     0.038 A 
HETATM    9  C   UNL     1      10.173  30.260  57.934  1.00  0.00     0.045 A 
BRANCH   7  10
HETATM   10  C   UNL     1       7.812  28.553  55.632  1.00  0.00     0.240 C 
BRANCH  10  11
HETATM   11  O   UNL     1       7.118  27.558  56.381  1.00  0.00    -0.345 OA
BRANCH  11  12
HETATM   12  C   UNL     1       7.644  26.294  56.338  1.00  0.00     0.069 A 
HETATM   13  C   UNL     1       8.384  25.680  57.351  1.00  0.00     0.037 A 
HETATM   14  C   UNL     1       8.865  24.379  57.179  1.00  0.00     0.003 A 
HETATM   15  C   UNL     1       8.613  23.688  55.994  1.00  0.00     0.000 A 
HETATM   16  C   UNL     1       7.883  24.300  54.978  1.00  0.00     0.003 A 
HETATM   17  C   UNL     1       7.404  25.600  55.150  1.00  0.00     0.037 A 
ENDBRANCH  11  12
ENDBRANCH  10  11
ENDBRANCH   7  10
ENDBRANCH   2   5
BRANCH   1  18
HETATM   18  C   UNL     1       6.407  32.058  60.710  1.00  0.00     0.037 A 
HETATM   19  C   UNL     1       6.652  31.989  62.087  1.00  0.00     0.063 A 
HETATM   20  C   UNL     1       5.846  32.735  62.964  1.00  0.00     0.087 A 
HETATM   21  N   UNL     1       5.889  32.827  64.334  1.00  0.00    -0.234 NA
HETATM   22  C   UNL     1       4.828  33.527  62.449  1.00  0.00     0.062 A 
HETATM   23  C   UNL     1       4.929  33.661  64.668  1.00  0.00     0.101 A 
HETATM   24  C   UNL     1       4.569  34.099  66.036  1.00  0.00     0.091 C 
HETATM   25  N   UNL     1       4.265  34.114  63.554  1.00  0.00    -0.343 N 
HETATM   26  H   UNL     1       3.494  34.764  63.551  1.00  0.00     0.167 HD
HETATM   27  C   UNL     1       4.545  33.617  61.088  1.00  0.00     0.034 A 
HETATM   28  C   UNL     1       5.355  32.857  60.231  1.00  0.00     0.032 A 
ENDBRANCH   1  18
TORSDOF 5
ENDMDL
