MODEL 1
REMARK VINA RESULT:     -10.8      0.000      0.000
REMARK  8 active torsions:
REMARK  status: ('A' for Active; 'I' for Inactive)
REMARK    1  A    between atoms: C_6  and  N_7 
REMARK       I    between atoms: N_7  and  C_8 
REMARK    2  A    between atoms: C_8  and  C_9 
REMARK    3  A    between atoms: C_10  and  N_11 
REMARK       I    between atoms: N_11  and  C_12 
REMARK    4  A    between atoms: C_12  and  C_13 
REMARK    5  A    between atoms: C_13  and  N_14 
REMARK    6  A    between atoms: N_14  and  C_17 
REMARK    7  A    between atoms: C_17  and  C_18 
REMARK    8  A    between atoms: C_30  and  C_31 
ROOT
HETATM    1  C   UNL     1       6.930  27.082  54.601  1.00  0.00     0.073 A 
HETATM    2  C   UNL     1       6.477  27.222  53.289  1.00  0.00     0.093 A 
HETATM    3  S   UNL     1       6.297  25.754  52.474  1.00  0.00    -0.075 SA
HETATM    4  C   UNL     1       6.944  24.885  53.780  1.00  0.00    -0.008 A 
HETATM    5  C   UNL     1       7.274  25.693  54.856  1.00  0.00    -0.026 A 
HETATM    6  C   UNL     1       7.925  25.091  56.068  1.00  0.00     0.041 C 
HETATM    7  C   UNL     1       8.558  23.721  55.774  1.00  0.00     0.010 C 
HETATM    8  C   UNL     1       7.575  22.777  55.039  1.00  0.00    -0.002 C 
HETATM    9  C   UNL     1       7.177  23.402  53.674  1.00  0.00     0.052 C 
ENDROOT
BRANCH   2  10
HETATM   10  N   UNL     1       6.241  28.433  52.654  1.00  0.00    -0.319 N 
HETATM   11  C   UNL     1       5.057  28.904  52.142  1.00  0.00     0.248 C 
HETATM   12  O   UNL     1       3.920  28.468  52.299  1.00  0.00    -0.271 OA
HETATM   13  H   UNL     1       7.080  29.017  52.608  1.00  0.00     0.169 HD
BRANCH  11  14
HETATM   14  C   UNL     1       5.230  30.179  51.316  1.00  0.00     0.335 C 
BRANCH  14  15
HETATM   15  N   UNL     1       4.778  29.966  49.895  1.00  0.00    -0.063 N 
HETATM   16  H   UNL     1       3.754  29.932  49.842  1.00  0.00     0.278 HD
HETATM   17  H   UNL     1       5.072  30.804  49.365  1.00  0.00     0.278 HD
BRANCH  15  18
HETATM   18  C   UNL     1       5.372  28.774  49.225  1.00  0.00     0.272 C 
BRANCH  18  19
HETATM   19  C   UNL     1       4.320  27.918  48.602  1.00  0.00    -0.015 A 
HETATM   20  C   UNL     1       4.653  26.925  47.686  1.00  0.00     0.125 A 
HETATM   21  N   UNL     1       3.746  26.152  47.059  1.00  0.00    -0.273 NA
HETATM   22  C   UNL     1       2.444  26.351  47.357  1.00  0.00     0.116 A 
HETATM   23  C   UNL     1       2.008  27.309  48.255  1.00  0.00     0.020 A 
HETATM   24  C   UNL     1       2.960  28.107  48.882  1.00  0.00     0.012 A 
ENDBRANCH  18  19
ENDBRANCH  15  18
ENDBRANCH  14  15
ENDBRANCH  11  14
ENDBRANCH   2  10
BRANCH   1  25
HETATM   25  C   UNL     1       7.026  28.287  55.460  1.00  0.00     0.259 C 
HETATM   26  N   UNL     1       8.087  28.337  56.339  1.00  0.00    -0.322 N 
HETATM   27  H   UNL     1       8.865  27.730  56.152  1.00  0.00     0.169 HD
HETATM   28  O   UNL     1       6.164  29.162  55.358  1.00  0.00    -0.267 OA
BRANCH  26  29
HETATM   29  C   UNL     1       8.356  29.382  57.254  1.00  0.00     0.041 A 
HETATM   30  C   UNL     1       9.622  29.944  57.496  1.00  0.00    -0.035 A 
HETATM   31  C   UNL     1       9.748  30.922  58.504  1.00  0.00     0.015 A 
HETATM   32  C   UNL     1      10.861  29.627  56.705  1.00  0.00     0.050 C 
HETATM   33  C   UNL     1       8.638  31.397  59.210  1.00  0.00    -0.061 A 
HETATM   34  C   UNL     1       8.804  32.409  60.305  1.00  0.00     0.048 C 
HETATM   35  C   UNL     1       7.379  30.882  58.909  1.00  0.00     0.009 A 
HETATM   36  C   UNL     1       7.239  29.897  57.929  1.00  0.00     0.030 A 
ENDBRANCH  26  29
ENDBRANCH   1  25
BRANCH   8  37
HETATM   37  C   UNL     1       8.098  21.296  54.919  1.00  0.00    -0.047 C 
HETATM   38  C   UNL     1       9.626  21.251  55.153  1.00  0.00     0.015 C 
HETATM   39  C   UNL     1       7.445  20.407  55.999  1.00  0.00     0.015 C 
HETATM   40  C   UNL     1       7.811  20.672  53.540  1.00  0.00     0.015 C 
ENDBRANCH   8  37
TORSDOF 8
ENDMDL
MODEL 2
REMARK VINA RESULT:     -10.7      2.308      9.178
REMARK  8 active torsions:
REMARK  status: ('A' for Active; 'I' for Inactive)
REMARK    1  A    between atoms: C_6  and  N_7 
REMARK       I    between atoms: N_7  and  C_8 
REMARK    2  A    between atoms: C_8  and  C_9 
REMARK    3  A    between atoms: C_10  and  N_11 
REMARK       I    between atoms: N_11  and  C_12 
REMARK    4  A    between atoms: C_12  and  C_13 
REMARK    5  A    between atoms: C_13  and  N_14 
REMARK    6  A    between atoms: N_14  and  C_17 
REMARK    7  A    between atoms: C_17  and  C_18 
REMARK    8  A    between atoms: C_30  and  C_31 
ROOT
HETATM    1  C   UNL     1       5.863  27.157  52.661  1.00  0.00     0.073 A 
HETATM    2  C   UNL     1       5.680  28.404  53.259  1.00  0.00     0.093 A 
HETATM    3  S   UNL     1       4.514  29.358  52.497  1.00  0.00    -0.075 SA
HETATM    4  C   UNL     1       4.304  28.213  51.262  1.00  0.00    -0.008 A 
HETATM    5  C   UNL     1       5.092  27.086  51.430  1.00  0.00    -0.026 A 
HETATM    6  C   UNL     1       5.080  26.006  50.387  1.00  0.00     0.041 C 
HETATM    7  C   UNL     1       4.535  26.501  49.037  1.00  0.00     0.010 C 
HETATM    8  C   UNL     1       3.189  27.251  49.198  1.00  0.00    -0.002 C 
HETATM    9  C   UNL     1       3.397  28.501  50.097  1.00  0.00     0.052 C 
ENDROOT
BRANCH   2  10
HETATM   10  N   UNL     1       6.405  28.880  54.343  1.00  0.00    -0.319 N 
HETATM   11  C   UNL     1       6.061  28.849  55.671  1.00  0.00     0.248 C 
HETATM   12  O   UNL     1       5.152  28.232  56.220  1.00  0.00    -0.271 OA
HETATM   13  H   UNL     1       7.308  29.272  54.062  1.00  0.00     0.169 HD
BRANCH  11  14
HETATM   14  C   UNL     1       7.005  29.670  56.550  1.00  0.00     0.335 C 
BRANCH  14  15
HETATM   15  N   UNL     1       6.380  29.957  57.891  1.00  0.00    -0.063 N 
HETATM   16  H   UNL     1       5.378  29.735  57.879  1.00  0.00     0.278 HD
HETATM   17  H   UNL     1       6.817  29.305  58.564  1.00  0.00     0.278 HD
BRANCH  15  18
HETATM   18  C   UNL     1       6.599  31.343  58.394  1.00  0.00     0.272 C 
BRANCH  18  19
HETATM   19  C   UNL     1       7.470  31.351  59.608  1.00  0.00    -0.015 A 
HETATM   20  C   UNL     1       8.459  30.389  59.786  1.00  0.00     0.125 A 
HETATM   21  N   UNL     1       9.244  30.318  60.879  1.00  0.00    -0.273 NA
HETATM   22  C   UNL     1       9.061  31.249  61.839  1.00  0.00     0.116 A 
HETATM   23  C   UNL     1       8.108  32.248  61.758  1.00  0.00     0.020 A 
HETATM   24  C   UNL     1       7.297  32.296  60.627  1.00  0.00     0.012 A 
ENDBRANCH  18  19
ENDBRANCH  15  18
ENDBRANCH  14  15
ENDBRANCH  11  14
ENDBRANCH   2  10
BRANCH   1  25
HETATM   25  C   UNL     1       6.780  26.182  53.297  1.00  0.00     0.259 C 
HETATM   26  N   UNL     1       6.249  24.952  53.622  1.00  0.00    -0.322 N 
HETATM   27  H   UNL     1       5.395  24.687  53.163  1.00  0.00     0.169 HD
HETATM   28  O   UNL     1       7.948  26.515  53.512  1.00  0.00    -0.267 OA
BRANCH  26  29
HETATM   29  C   UNL     1       6.942  23.889  54.246  1.00  0.00     0.041 A 
HETATM   30  C   UNL     1       7.186  23.778  55.626  1.00  0.00    -0.035 A 
HETATM   31  C   UNL     1       7.971  22.701  56.091  1.00  0.00     0.015 A 
HETATM   32  C   UNL     1       6.612  24.694  56.670  1.00  0.00     0.050 C 
HETATM   33  C   UNL     1       8.443  21.708  55.226  1.00  0.00    -0.061 A 
HETATM   34  C   UNL     1       9.307  20.595  55.739  1.00  0.00     0.048 C 
HETATM   35  C   UNL     1       8.131  21.794  53.870  1.00  0.00     0.009 A 
HETATM   36  C   UNL     1       7.374  22.865  53.390  1.00  0.00     0.030 A 
ENDBRANCH  26  29
ENDBRANCH   1  25
BRANCH   8  37
HETATM   37  C   UNL     1       2.485  27.576  47.827  1.00  0.00    -0.047 C 
HETATM   38  C   UNL     1       2.668  26.398  46.843  1.00  0.00     0.015 C 
HETATM   39  C   UNL     1       0.967  27.765  48.035  1.00  0.00     0.015 C 
HETATM   40  C   UNL     1       3.043  28.846  47.157  1.00  0.00     0.015 C 
ENDBRANCH   8  37
TORSDOF 8
ENDMDL
MODEL 3
REMARK VINA RESULT:     -10.4      2.257      8.795
REMARK  8 active torsions:
REMARK  status: ('A' for Active; 'I' for Inactive)
REMARK    1  A    between atoms: C_6  and  N_7 
REMARK       I    between atoms: N_7  and  C_8 
REMARK    2  A    between atoms: C_8  and  C_9 
REMARK    3  A    between atoms: C_10  and  N_11 
REMARK       I    between atoms: N_11  and  C_12 
REMARK    4  A    between atoms: C_12  and  C_13 
REMARK    5  A    between atoms: C_13  and  N_14 
REMARK    6  A    between atoms: N_14  and  C_17 
REMARK    7  A    between atoms: C_17  and  C_18 
REMARK    8  A    between atoms: C_30  and  C_31 
ROOT
HETATM    1  C   UNL     1       5.083  28.050  52.594  1.00  0.00     0.073 A 
HETATM    2  C   UNL     1       4.686  29.141  53.365  1.00  0.00     0.093 A 
HETATM    3  S   UNL     1       3.431  30.037  52.678  1.00  0.00    -0.075 SA
HETATM    4  C   UNL     1       3.458  29.096  51.265  1.00  0.00    -0.008 A 
HETATM    5  C   UNL     1       4.396  28.078  51.313  1.00  0.00    -0.026 A 
HETATM    6  C   UNL     1       4.599  27.196  50.115  1.00  0.00     0.041 C 
HETATM    7  C   UNL     1       4.056  27.828  48.823  1.00  0.00     0.010 C 
HETATM    8  C   UNL     1       2.607  28.346  48.998  1.00  0.00    -0.002 C 
HETATM    9  C   UNL     1       2.579  29.445  50.095  1.00  0.00     0.052 C 
ENDROOT
BRANCH   2  10
HETATM   10  N   UNL     1       5.276  29.526  54.562  1.00  0.00    -0.319 N 
HETATM   11  C   UNL     1       4.872  29.227  55.839  1.00  0.00     0.248 C 
HETATM   12  O   UNL     1       4.039  28.406  56.214  1.00  0.00    -0.271 OA
HETATM   13  H   UNL     1       6.123  30.081  54.415  1.00  0.00     0.169 HD
BRANCH  11  14
HETATM   14  C   UNL     1       5.636  30.013  56.905  1.00  0.00     0.335 C 
BRANCH  14  15
HETATM   15  N   UNL     1       6.259  29.086  57.915  1.00  0.00    -0.063 N 
HETATM   16  H   UNL     1       6.462  29.585  58.789  1.00  0.00     0.278 HD
HETATM   17  H   UNL     1       5.543  28.375  58.142  1.00  0.00     0.278 HD
BRANCH  15  18
HETATM   18  C   UNL     1       7.475  28.368  57.435  1.00  0.00     0.272 C 
BRANCH  18  19
HETATM   19  C   UNL     1       8.682  29.246  57.486  1.00  0.00    -0.015 A 
HETATM   20  C   UNL     1       9.726  29.081  56.582  1.00  0.00     0.125 A 
HETATM   21  N   UNL     1      10.858  29.811  56.606  1.00  0.00    -0.273 NA
HETATM   22  C   UNL     1      10.964  30.765  57.556  1.00  0.00     0.116 A 
HETATM   23  C   UNL     1       9.982  31.012  58.499  1.00  0.00     0.020 A 
HETATM   24  C   UNL     1       8.827  30.236  58.465  1.00  0.00     0.012 A 
ENDBRANCH  18  19
ENDBRANCH  15  18
ENDBRANCH  14  15
ENDBRANCH  11  14
ENDBRANCH   2  10
BRANCH   1  25
HETATM   25  C   UNL     1       6.103  27.119  53.135  1.00  0.00     0.259 C 
HETATM   26  N   UNL     1       5.713  25.809  53.315  1.00  0.00    -0.322 N 
HETATM   27  H   UNL     1       4.897  25.503  52.815  1.00  0.00     0.169 HD
HETATM   28  O   UNL     1       7.224  27.556  53.406  1.00  0.00    -0.267 OA
BRANCH  26  29
HETATM   29  C   UNL     1       6.519  24.768  53.831  1.00  0.00     0.041 A 
HETATM   30  C   UNL     1       6.678  24.463  55.194  1.00  0.00    -0.035 A 
HETATM   31  C   UNL     1       7.588  23.449  55.561  1.00  0.00     0.015 A 
HETATM   32  C   UNL     1       5.890  25.097  56.307  1.00  0.00     0.050 C 
HETATM   33  C   UNL     1       8.273  22.695  54.603  1.00  0.00    -0.061 A 
HETATM   34  C   UNL     1       9.264  21.649  55.019  1.00  0.00     0.048 C 
HETATM   35  C   UNL     1       8.051  22.962  53.252  1.00  0.00     0.009 A 
HETATM   36  C   UNL     1       7.170  23.977  52.873  1.00  0.00     0.030 A 
ENDBRANCH  26  29
ENDBRANCH   1  25
BRANCH   8  37
HETATM   37  C   UNL     1       1.933  28.793  47.647  1.00  0.00    -0.047 C 
HETATM   38  C   UNL     1       0.795  29.800  47.928  1.00  0.00     0.015 C 
HETATM   39  C   UNL     1       2.962  29.508  46.745  1.00  0.00     0.015 C 
HETATM   40  C   UNL     1       1.338  27.611  46.858  1.00  0.00     0.015 C 
ENDBRANCH   8  37
TORSDOF 8
ENDMDL
MODEL 4
REMARK VINA RESULT:     -10.4      2.372      4.241
REMARK  8 active torsions:
REMARK  status: ('A' for Active; 'I' for Inactive)
REMARK    1  A    between atoms: C_6  and  N_7 
REMARK       I    between atoms: N_7  and  C_8 
REMARK    2  A    between atoms: C_8  and  C_9 
REMARK    3  A    between atoms: C_10  and  N_11 
REMARK       I    between atoms: N_11  and  C_12 
REMARK    4  A    between atoms: C_12  and  C_13 
REMARK    5  A    between atoms: C_13  and  N_14 
REMARK    6  A    between atoms: N_14  and  C_17 
REMARK    7  A    between atoms: C_17  and  C_18 
REMARK    8  A    between atoms: C_30  and  C_31 
ROOT
HETATM    1  C   UNL     1       6.681  27.067  54.938  1.00  0.00     0.073 A 
HETATM    2  C   UNL     1       6.051  27.215  53.703  1.00  0.00     0.093 A 
HETATM    3  S   UNL     1       5.819  25.758  52.881  1.00  0.00    -0.075 SA
HETATM    4  C   UNL     1       6.669  24.890  54.066  1.00  0.00    -0.008 A 
HETATM    5  C   UNL     1       7.110  25.688  55.108  1.00  0.00    -0.026 A 
HETATM    6  C   UNL     1       7.941  25.088  56.206  1.00  0.00     0.041 C 
HETATM    7  C   UNL     1       8.580  23.752  55.794  1.00  0.00     0.010 C 
HETATM    8  C   UNL     1       7.544  22.783  55.173  1.00  0.00    -0.002 C 
HETATM    9  C   UNL     1       6.942  23.421  53.890  1.00  0.00     0.052 C 
ENDROOT
BRANCH   2  10
HETATM   10  N   UNL     1       5.685  28.428  53.138  1.00  0.00    -0.319 N 
HETATM   11  C   UNL     1       4.425  28.862  52.806  1.00  0.00     0.248 C 
HETATM   12  O   UNL     1       3.338  28.379  53.107  1.00  0.00    -0.271 OA
HETATM   13  H   UNL     1       6.488  29.045  52.991  1.00  0.00     0.169 HD
BRANCH  11  14
HETATM   14  C   UNL     1       4.436  30.159  51.996  1.00  0.00     0.335 C 
BRANCH  14  15
HETATM   15  N   UNL     1       4.719  31.345  52.880  1.00  0.00    -0.063 N 
HETATM   16  H   UNL     1       5.488  31.139  53.528  1.00  0.00     0.278 HD
HETATM   17  H   UNL     1       5.053  32.101  52.259  1.00  0.00     0.278 HD
BRANCH  15  18
HETATM   18  C   UNL     1       3.536  31.860  53.627  1.00  0.00     0.272 C 
BRANCH  18  19
HETATM   19  C   UNL     1       3.759  31.810  55.103  1.00  0.00    -0.015 A 
HETATM   20  C   UNL     1       2.920  31.069  55.929  1.00  0.00     0.125 A 
HETATM   21  N   UNL     1       3.044  31.020  57.270  1.00  0.00    -0.273 NA
HETATM   22  C   UNL     1       4.053  31.723  57.828  1.00  0.00     0.116 A 
HETATM   23  C   UNL     1       4.943  32.489  57.096  1.00  0.00     0.020 A 
HETATM   24  C   UNL     1       4.789  32.536  55.713  1.00  0.00     0.012 A 
ENDBRANCH  18  19
ENDBRANCH  15  18
ENDBRANCH  14  15
ENDBRANCH  11  14
ENDBRANCH   2  10
BRANCH   1  25
HETATM   25  C   UNL     1       6.846  28.256  55.808  1.00  0.00     0.259 C 
HETATM   26  N   UNL     1       8.022  28.342  56.523  1.00  0.00    -0.322 N 
HETATM   27  H   UNL     1       8.792  27.781  56.206  1.00  0.00     0.169 HD
HETATM   28  O   UNL     1       5.937  29.088  55.859  1.00  0.00    -0.267 OA
BRANCH  26  29
HETATM   29  C   UNL     1       8.373  29.380  57.418  1.00  0.00     0.041 A 
HETATM   30  C   UNL     1       9.645  29.970  57.517  1.00  0.00    -0.035 A 
HETATM   31  C   UNL     1       9.867  30.937  58.521  1.00  0.00     0.015 A 
HETATM   32  C   UNL     1      10.787  29.698  56.579  1.00  0.00     0.050 C 
HETATM   33  C   UNL     1       8.839  31.372  59.363  1.00  0.00    -0.061 A 
HETATM   34  C   UNL     1       9.110  32.371  60.448  1.00  0.00     0.048 C 
HETATM   35  C   UNL     1       7.565  30.828  59.204  1.00  0.00     0.009 A 
HETATM   36  C   UNL     1       7.333  29.855  58.230  1.00  0.00     0.030 A 
ENDBRANCH  26  29
ENDBRANCH   1  25
BRANCH   8  37
HETATM   37  C   UNL     1       8.103  21.329  54.945  1.00  0.00    -0.047 C 
HETATM   38  C   UNL     1       9.638  21.314  55.131  1.00  0.00     0.015 C 
HETATM   39  C   UNL     1       7.508  20.356  55.986  1.00  0.00     0.015 C 
HETATM   40  C   UNL     1       7.791  20.784  53.539  1.00  0.00     0.015 C 
ENDBRANCH   8  37
TORSDOF 8
ENDMDL
MODEL 5
REMARK VINA RESULT:     -10.4      2.086      8.356
REMARK  8 active torsions:
REMARK  status: ('A' for Active; 'I' for Inactive)
REMARK    1  A    between atoms: C_6  and  N_7 
REMARK       I    between atoms: N_7  and  C_8 
REMARK    2  A    between atoms: C_8  and  C_9 
REMARK    3  A    between atoms: C_10  and  N_11 
REMARK       I    between atoms: N_11  and  C_12 
REMARK    4  A    between atoms: C_12  and  C_13 
REMARK    5  A    between atoms: C_13  and  N_14 
REMARK    6  A    between atoms: N_14  and  C_17 
REMARK    7  A    between atoms: C_17  and  C_18 
REMARK    8  A    between atoms: C_30  and  C_31 
ROOT
HETATM    1  C   UNL     1       6.698  26.574  54.113  1.00  0.00     0.073 A 
HETATM    2  C   UNL     1       6.657  27.061  55.420  1.00  0.00     0.093 A 
HETATM    3  S   UNL     1       7.283  25.988  56.563  1.00  0.00    -0.075 SA
HETATM    4  C   UNL     1       7.505  24.780  55.391  1.00  0.00    -0.008 A 
HETATM    5  C   UNL     1       7.136  25.188  54.120  1.00  0.00    -0.026 A 
HETATM    6  C   UNL     1       7.203  24.215  52.978  1.00  0.00     0.041 C 
HETATM    7  C   UNL     1       7.241  22.754  53.453  1.00  0.00     0.010 C 
HETATM    8  C   UNL     1       8.315  22.531  54.548  1.00  0.00    -0.002 C 
HETATM    9  C   UNL     1       7.983  23.409  55.785  1.00  0.00     0.052 C 
ENDROOT
BRANCH   2  10
HETATM   10  N   UNL     1       6.111  28.280  55.797  1.00  0.00    -0.319 N 
HETATM   11  C   UNL     1       6.769  29.413  56.205  1.00  0.00     0.248 C 
HETATM   12  O   UNL     1       7.967  29.676  56.140  1.00  0.00    -0.271 OA
HETATM   13  H   UNL     1       5.090  28.285  55.724  1.00  0.00     0.169 HD
BRANCH  11  14
HETATM   14  C   UNL     1       5.827  30.483  56.756  1.00  0.00     0.335 C 
BRANCH  14  15
HETATM   15  N   UNL     1       5.845  30.493  58.263  1.00  0.00    -0.063 N 
HETATM   16  H   UNL     1       4.935  30.204  58.638  1.00  0.00     0.278 HD
HETATM   17  H   UNL     1       6.525  29.770  58.553  1.00  0.00     0.278 HD
BRANCH  15  18
HETATM   18  C   UNL     1       6.271  31.786  58.871  1.00  0.00     0.272 C 
BRANCH  18  19
HETATM   19  C   UNL     1       7.373  31.587  59.859  1.00  0.00    -0.015 A 
HETATM   20  C   UNL     1       8.236  30.500  59.760  1.00  0.00     0.125 A 
HETATM   21  N   UNL     1       9.219  30.244  60.645  1.00  0.00    -0.273 NA
HETATM   22  C   UNL     1       9.375  31.107  61.671  1.00  0.00     0.116 A 
HETATM   23  C   UNL     1       8.572  32.218  61.859  1.00  0.00     0.020 A 
HETATM   24  C   UNL     1       7.553  32.458  60.941  1.00  0.00     0.012 A 
ENDBRANCH  18  19
ENDBRANCH  15  18
ENDBRANCH  14  15
ENDBRANCH  11  14
ENDBRANCH   2  10
BRANCH   1  25
HETATM   25  C   UNL     1       6.279  27.461  53.002  1.00  0.00     0.259 C 
HETATM   26  N   UNL     1       5.244  27.014  52.209  1.00  0.00    -0.322 N 
HETATM   27  H   UNL     1       4.659  26.290  52.587  1.00  0.00     0.169 HD
HETATM   28  O   UNL     1       6.872  28.529  52.836  1.00  0.00    -0.267 OA
BRANCH  26  29
HETATM   29  C   UNL     1       4.702  27.693  51.093  1.00  0.00     0.041 A 
HETATM   30  C   UNL     1       3.707  28.685  51.151  1.00  0.00    -0.035 A 
HETATM   31  C   UNL     1       3.203  29.211  49.943  1.00  0.00     0.015 A 
HETATM   32  C   UNL     1       3.178  29.289  52.423  1.00  0.00     0.050 C 
HETATM   33  C   UNL     1       3.719  28.826  48.702  1.00  0.00    -0.061 A 
HETATM   34  C   UNL     1       3.138  29.370  47.430  1.00  0.00     0.048 C 
HETATM   35  C   UNL     1       4.755  27.894  48.664  1.00  0.00     0.009 A 
HETATM   36  C   UNL     1       5.251  27.347  49.850  1.00  0.00     0.030 A 
ENDBRANCH  26  29
ENDBRANCH   1  25
BRANCH   8  37
HETATM   37  C   UNL     1       8.544  21.013  54.901  1.00  0.00    -0.047 C 
HETATM   38  C   UNL     1       8.635  20.173  53.607  1.00  0.00     0.015 C 
HETATM   39  C   UNL     1       9.879  20.834  55.656  1.00  0.00     0.015 C 
HETATM   40  C   UNL     1       7.414  20.427  55.769  1.00  0.00     0.015 C 
ENDBRANCH   8  37
TORSDOF 8
ENDMDL
MODEL 6
REMARK VINA RESULT:     -10.4      2.521      8.453
REMARK  8 active torsions:
REMARK  status: ('A' for Active; 'I' for Inactive)
REMARK    1  A    between atoms: C_6  and  N_7 
REMARK       I    between atoms: N_7  and  C_8 
REMARK    2  A    between atoms: C_8  and  C_9 
REMARK    3  A    between atoms: C_10  and  N_11 
REMARK       I    between atoms: N_11  and  C_12 
REMARK    4  A    between atoms: C_12  and  C_13 
REMARK    5  A    between atoms: C_13  and  N_14 
REMARK    6  A    between atoms: N_14  and  C_17 
REMARK    7  A    between atoms: C_17  and  C_18 
REMARK    8  A    between atoms: C_30  and  C_31 
ROOT
HETATM    1  C   UNL     1       7.379  26.644  55.209  1.00  0.00     0.073 A 
HETATM    2  C   UNL     1       7.647  26.980  56.535  1.00  0.00     0.093 A 
HETATM    3  S   UNL     1       8.312  25.716  57.435  1.00  0.00    -0.075 SA
HETATM    4  C   UNL     1       8.143  24.632  56.141  1.00  0.00    -0.008 A 
HETATM    5  C   UNL     1       7.609  25.223  55.008  1.00  0.00    -0.026 A 
HETATM    6  C   UNL     1       7.327  24.385  53.793  1.00  0.00     0.041 C 
HETATM    7  C   UNL     1       7.244  22.885  54.122  1.00  0.00     0.010 C 
HETATM    8  C   UNL     1       8.456  22.410  54.960  1.00  0.00    -0.002 C 
HETATM    9  C   UNL     1       8.485  23.176  56.311  1.00  0.00     0.052 C 
ENDROOT
BRANCH   2  10
HETATM   10  N   UNL     1       7.357  28.207  57.118  1.00  0.00    -0.319 N 
HETATM   11  C   UNL     1       8.196  29.279  57.296  1.00  0.00     0.248 C 
HETATM   12  O   UNL     1       9.308  29.477  56.816  1.00  0.00    -0.271 OA
HETATM   13  H   UNL     1       6.380  28.273  57.415  1.00  0.00     0.169 HD
BRANCH  11  14
HETATM   14  C   UNL     1       7.589  30.370  58.179  1.00  0.00     0.335 C 
BRANCH  14  15
HETATM   15  N   UNL     1       7.854  30.094  59.636  1.00  0.00    -0.063 N 
HETATM   16  H   UNL     1       6.973  30.020  60.157  1.00  0.00     0.278 HD
HETATM   17  H   UNL     1       8.302  29.163  59.682  1.00  0.00     0.278 HD
BRANCH  15  18
HETATM   18  C   UNL     1       8.768  31.070  60.297  1.00  0.00     0.272 C 
BRANCH  18  19
HETATM   19  C   UNL     1       8.054  31.861  61.343  1.00  0.00    -0.015 A 
HETATM   20  C   UNL     1       6.879  32.544  61.048  1.00  0.00     0.125 A 
HETATM   21  N   UNL     1       6.216  33.309  61.937  1.00  0.00    -0.273 NA
HETATM   22  C   UNL     1       6.723  33.396  63.185  1.00  0.00     0.116 A 
HETATM   23  C   UNL     1       7.883  32.755  63.581  1.00  0.00     0.020 A 
HETATM   24  C   UNL     1       8.561  31.981  62.644  1.00  0.00     0.012 A 
ENDBRANCH  18  19
ENDBRANCH  15  18
ENDBRANCH  14  15
ENDBRANCH  11  14
ENDBRANCH   2  10
BRANCH   1  25
HETATM   25  C   UNL     1       6.894  27.696  54.283  1.00  0.00     0.259 C 
HETATM   26  N   UNL     1       5.558  27.656  53.945  1.00  0.00    -0.322 N 
HETATM   27  H   UNL     1       4.950  27.127  54.546  1.00  0.00     0.169 HD
HETATM   28  O   UNL     1       7.695  28.532  53.860  1.00  0.00    -0.267 OA
BRANCH  26  29
HETATM   29  C   UNL     1       4.898  28.550  53.071  1.00  0.00     0.041 A 
HETATM   30  C   UNL     1       4.867  28.442  51.670  1.00  0.00    -0.035 A 
HETATM   31  C   UNL     1       4.240  29.463  50.924  1.00  0.00     0.015 A 
HETATM   32  C   UNL     1       5.401  27.270  50.893  1.00  0.00     0.050 C 
HETATM   33  C   UNL     1       3.588  30.532  51.547  1.00  0.00    -0.061 A 
HETATM   34  C   UNL     1       2.962  31.625  50.731  1.00  0.00     0.048 C 
HETATM   35  C   UNL     1       3.564  30.587  52.939  1.00  0.00     0.009 A 
HETATM   36  C   UNL     1       4.199  29.596  53.692  1.00  0.00     0.030 A 
ENDBRANCH  26  29
ENDBRANCH   1  25
BRANCH   8  37
HETATM   37  C   UNL     1       8.529  20.845  55.127  1.00  0.00    -0.047 C 
HETATM   38  C   UNL     1       9.765  20.456  55.969  1.00  0.00     0.015 C 
HETATM   39  C   UNL     1       7.283  20.328  55.879  1.00  0.00     0.015 C 
HETATM   40  C   UNL     1       8.621  20.107  53.778  1.00  0.00     0.015 C 
ENDBRANCH   8  37
TORSDOF 8
ENDMDL
MODEL 7
REMARK VINA RESULT:     -10.2      4.954      9.277
REMARK  8 active torsions:
REMARK  status: ('A' for Active; 'I' for Inactive)
REMARK    1  A    between atoms: C_6  and  N_7 
REMARK       I    between atoms: N_7  and  C_8 
REMARK    2  A    between atoms: C_8  and  C_9 
REMARK    3  A    between atoms: C_10  and  N_11 
REMARK       I    between atoms: N_11  and  C_12 
REMARK    4  A    between atoms: C_12  and  C_13 
REMARK    5  A    between atoms: C_13  and  N_14 
REMARK    6  A    between atoms: N_14  and  C_17 
REMARK    7  A    between atoms: C_17  and  C_18 
REMARK    8  A    between atoms: C_30  and  C_31 
ROOT
HETATM    1  C   UNL     1       6.353  30.989  58.016  1.00  0.00     0.073 A 
HETATM    2  C   UNL     1       5.360  31.634  57.279  1.00  0.00     0.093 A 
HETATM    3  S   UNL     1       4.683  30.674  56.066  1.00  0.00    -0.075 SA
HETATM    4  C   UNL     1       5.775  29.412  56.378  1.00  0.00    -0.008 A 
HETATM    5  C   UNL     1       6.641  29.694  57.421  1.00  0.00    -0.026 A 
HETATM    6  C   UNL     1       7.719  28.711  57.780  1.00  0.00     0.041 C 
HETATM    7  C   UNL     1       8.009  27.717  56.643  1.00  0.00     0.010 C 
HETATM    8  C   UNL     1       6.711  27.074  56.094  1.00  0.00    -0.002 C 
HETATM    9  C   UNL     1       5.788  28.180  55.514  1.00  0.00     0.052 C 
ENDROOT
BRANCH   2  10
HETATM   10  N   UNL     1       4.974  32.956  57.453  1.00  0.00    -0.319 N 
HETATM   11  C   UNL     1       3.885  33.437  58.137  1.00  0.00     0.248 C 
HETATM   12  O   UNL     1       3.131  32.845  58.904  1.00  0.00    -0.271 OA
HETATM   13  H   UNL     1       5.627  33.611  57.015  1.00  0.00     0.169 HD
BRANCH  11  14
HETATM   14  C   UNL     1       3.659  34.933  57.920  1.00  0.00     0.335 C 
BRANCH  14  15
HETATM   15  N   UNL     1       4.214  35.734  59.069  1.00  0.00    -0.063 N 
HETATM   16  H   UNL     1       4.977  35.226  59.530  1.00  0.00     0.278 HD
HETATM   17  H   UNL     1       4.634  36.585  58.657  1.00  0.00     0.278 HD
BRANCH  15  18
HETATM   18  C   UNL     1       3.199  36.169  60.071  1.00  0.00     0.272 C 
BRANCH  18  19
HETATM   19  C   UNL     1       3.839  36.545  61.367  1.00  0.00    -0.015 A 
HETATM   20  C   UNL     1       3.214  36.277  62.580  1.00  0.00     0.125 A 
HETATM   21  N   UNL     1       3.721  36.631  63.777  1.00  0.00    -0.273 NA
HETATM   22  C   UNL     1       4.911  37.268  63.785  1.00  0.00     0.116 A 
HETATM   23  C   UNL     1       5.615  37.580  62.636  1.00  0.00     0.020 A 
HETATM   24  C   UNL     1       5.068  37.218  61.409  1.00  0.00     0.012 A 
ENDBRANCH  18  19
ENDBRANCH  15  18
ENDBRANCH  14  15
ENDBRANCH  11  14
ENDBRANCH   2  10
BRANCH   1  25
HETATM   25  C   UNL     1       6.952  31.685  59.180  1.00  0.00     0.259 C 
HETATM   26  N   UNL     1       6.286  31.567  60.382  1.00  0.00    -0.322 N 
HETATM   27  H   UNL     1       5.632  30.810  60.469  1.00  0.00     0.169 HD
HETATM   28  O   UNL     1       7.989  32.332  59.018  1.00  0.00    -0.267 OA
BRANCH  26  29
HETATM   29  C   UNL     1       6.675  32.160  61.605  1.00  0.00     0.041 A 
HETATM   30  C   UNL     1       7.753  31.741  62.404  1.00  0.00    -0.035 A 
HETATM   31  C   UNL     1       7.965  32.378  63.645  1.00  0.00     0.015 A 
HETATM   32  C   UNL     1       8.756  30.695  62.003  1.00  0.00     0.050 C 
HETATM   33  C   UNL     1       7.180  33.458  64.060  1.00  0.00    -0.061 A 
HETATM   34  C   UNL     1       7.400  34.092  65.402  1.00  0.00     0.048 C 
HETATM   35  C   UNL     1       6.160  33.908  63.224  1.00  0.00     0.009 A 
HETATM   36  C   UNL     1       5.923  33.275  62.002  1.00  0.00     0.030 A 
ENDBRANCH  26  29
ENDBRANCH   1  25
BRANCH   8  37
HETATM   37  C   UNL     1       6.975  25.889  55.090  1.00  0.00    -0.047 C 
HETATM   38  C   UNL     1       7.616  26.427  53.790  1.00  0.00     0.015 C 
HETATM   39  C   UNL     1       7.966  24.877  55.702  1.00  0.00     0.015 C 
HETATM   40  C   UNL     1       5.687  25.135  54.707  1.00  0.00     0.015 C 
ENDBRANCH   8  37
TORSDOF 8
ENDMDL
MODEL 8
REMARK VINA RESULT:     -10.1      1.524      2.077
REMARK  8 active torsions:
REMARK  status: ('A' for Active; 'I' for Inactive)
REMARK    1  A    between atoms: C_6  and  N_7 
REMARK       I    between atoms: N_7  and  C_8 
REMARK    2  A    between atoms: C_8  and  C_9 
REMARK    3  A    between atoms: C_10  and  N_11 
REMARK       I    between atoms: N_11  and  C_12 
REMARK    4  A    between atoms: C_12  and  C_13 
REMARK    5  A    between atoms: C_13  and  N_14 
REMARK    6  A    between atoms: N_14  and  C_17 
REMARK    7  A    between atoms: C_17  and  C_18 
REMARK    8  A    between atoms: C_30  and  C_31 
ROOT
HETATM    1  C   UNL     1       5.893  26.998  54.253  1.00  0.00     0.073 A 
HETATM    2  C   UNL     1       5.919  27.247  52.881  1.00  0.00     0.093 A 
HETATM    3  S   UNL     1       6.357  25.906  51.956  1.00  0.00    -0.075 SA
HETATM    4  C   UNL     1       6.666  24.979  53.344  1.00  0.00    -0.008 A 
HETATM    5  C   UNL     1       6.412  25.666  54.519  1.00  0.00    -0.026 A 
HETATM    6  C   UNL     1       6.702  25.014  55.840  1.00  0.00     0.041 C 
HETATM    7  C   UNL     1       7.674  23.830  55.710  1.00  0.00     0.010 C 
HETATM    8  C   UNL     1       7.242  22.849  54.592  1.00  0.00    -0.002 C 
HETATM    9  C   UNL     1       7.232  23.590  53.227  1.00  0.00     0.052 C 
ENDROOT
BRANCH   2  10
HETATM   10  N   UNL     1       5.671  28.480  52.293  1.00  0.00    -0.319 N 
HETATM   11  C   UNL     1       4.467  28.995  51.881  1.00  0.00     0.248 C 
HETATM   12  O   UNL     1       3.332  28.586  52.111  1.00  0.00    -0.271 OA
HETATM   13  H   UNL     1       6.521  29.042  52.198  1.00  0.00     0.169 HD
BRANCH  11  14
HETATM   14  C   UNL     1       4.615  30.284  51.073  1.00  0.00     0.335 C 
BRANCH  14  15
HETATM   15  N   UNL     1       4.117  30.098  49.664  1.00  0.00    -0.063 N 
HETATM   16  H   UNL     1       3.133  29.805  49.663  1.00  0.00     0.278 HD
HETATM   17  H   UNL     1       4.146  31.030  49.217  1.00  0.00     0.278 HD
BRANCH  15  18
HETATM   18  C   UNL     1       4.935  29.170  48.832  1.00  0.00     0.272 C 
BRANCH  18  19
HETATM   19  C   UNL     1       4.122  28.018  48.340  1.00  0.00    -0.015 A 
HETATM   20  C   UNL     1       3.127  28.200  47.385  1.00  0.00     0.125 A 
HETATM   21  N   UNL     1       2.332  27.209  46.935  1.00  0.00    -0.273 NA
HETATM   22  C   UNL     1       2.535  25.972  47.437  1.00  0.00     0.116 A 
HETATM   23  C   UNL     1       3.499  25.685  48.387  1.00  0.00     0.020 A 
HETATM   24  C   UNL     1       4.300  26.725  48.848  1.00  0.00     0.012 A 
ENDBRANCH  18  19
ENDBRANCH  15  18
ENDBRANCH  14  15
ENDBRANCH  11  14
ENDBRANCH   2  10
BRANCH   1  25
HETATM   25  C   UNL     1       5.419  28.063  55.170  1.00  0.00     0.259 C 
HETATM   26  N   UNL     1       6.307  29.079  55.451  1.00  0.00    -0.322 N 
HETATM   27  H   UNL     1       7.079  29.199  54.820  1.00  0.00     0.169 HD
HETATM   28  O   UNL     1       4.280  27.983  55.636  1.00  0.00    -0.267 OA
BRANCH  26  29
HETATM   29  C   UNL     1       6.064  30.178  56.307  1.00  0.00     0.041 A 
HETATM   30  C   UNL     1       6.613  30.344  57.591  1.00  0.00    -0.035 A 
HETATM   31  C   UNL     1       6.207  31.453  58.363  1.00  0.00     0.015 A 
HETATM   32  C   UNL     1       7.668  29.456  58.189  1.00  0.00     0.050 C 
HETATM   33  C   UNL     1       5.336  32.422  57.856  1.00  0.00    -0.061 A 
HETATM   34  C   UNL     1       4.889  33.571  58.711  1.00  0.00     0.048 C 
HETATM   35  C   UNL     1       4.856  32.281  56.555  1.00  0.00     0.009 A 
HETATM   36  C   UNL     1       5.231  31.178  55.784  1.00  0.00     0.030 A 
ENDBRANCH  26  29
ENDBRANCH   1  25
BRANCH   8  37
HETATM   37  C   UNL     1       8.077  21.513  54.573  1.00  0.00    -0.047 C 
HETATM   38  C   UNL     1       7.909  20.800  53.213  1.00  0.00     0.015 C 
HETATM   39  C   UNL     1       9.580  21.818  54.746  1.00  0.00     0.015 C 
HETATM   40  C   UNL     1       7.652  20.530  55.680  1.00  0.00     0.015 C 
ENDBRANCH   8  37
TORSDOF 8
ENDMDL
MODEL 9
REMARK VINA RESULT:     -10.0      2.062      7.919
REMARK  8 active torsions:
REMARK  status: ('A' for Active; 'I' for Inactive)
REMARK    1  A    between atoms: C_6  and  N_7 
REMARK       I    between atoms: N_7  and  C_8 
REMARK    2  A    between atoms: C_8  and  C_9 
REMARK    3  A    between atoms: C_10  and  N_11 
REMARK       I    between atoms: N_11  and  C_12 
REMARK    4  A    between atoms: C_12  and  C_13 
REMARK    5  A    between atoms: C_13  and  N_14 
REMARK    6  A    between atoms: N_14  and  C_17 
REMARK    7  A    between atoms: C_17  and  C_18 
REMARK    8  A    between atoms: C_30  and  C_31 
ROOT
HETATM    1  C   UNL     1       6.225  27.327  53.370  1.00  0.00     0.073 A 
HETATM    2  C   UNL     1       6.412  27.915  54.620  1.00  0.00     0.093 A 
HETATM    3  S   UNL     1       7.288  26.954  55.698  1.00  0.00    -0.075 SA
HETATM    4  C   UNL     1       7.334  25.664  54.596  1.00  0.00    -0.008 A 
HETATM    5  C   UNL     1       6.714  25.958  53.393  1.00  0.00    -0.026 A 
HETATM    6  C   UNL     1       6.604  24.899  52.334  1.00  0.00     0.041 C 
HETATM    7  C   UNL     1       6.793  23.482  52.899  1.00  0.00     0.010 C 
HETATM    8  C   UNL     1       8.063  23.377  53.780  1.00  0.00    -0.002 C 
HETATM    9  C   UNL     1       7.936  24.342  54.990  1.00  0.00     0.052 C 
ENDROOT
BRANCH   2  10
HETATM   10  N   UNL     1       5.896  29.145  55.006  1.00  0.00    -0.319 N 
HETATM   11  C   UNL     1       4.687  29.406  55.600  1.00  0.00     0.248 C 
HETATM   12  O   UNL     1       3.887  28.622  56.103  1.00  0.00    -0.271 OA
HETATM   13  H   UNL     1       6.546  29.913  54.819  1.00  0.00     0.169 HD
BRANCH  11  14
HETATM   14  C   UNL     1       4.367  30.900  55.669  1.00  0.00     0.335 C 
BRANCH  14  15
HETATM   15  N   UNL     1       5.401  31.636  56.480  1.00  0.00    -0.063 N 
HETATM   16  H   UNL     1       6.311  31.621  56.006  1.00  0.00     0.278 HD
HETATM   17  H   UNL     1       5.101  32.625  56.509  1.00  0.00     0.278 HD
BRANCH  15  18
HETATM   18  C   UNL     1       5.540  31.162  57.887  1.00  0.00     0.272 C 
BRANCH  18  19
HETATM   19  C   UNL     1       6.964  31.203  58.337  1.00  0.00    -0.015 A 
HETATM   20  C   UNL     1       7.425  32.221  59.164  1.00  0.00     0.125 A 
HETATM   21  N   UNL     1       8.706  32.336  59.567  1.00  0.00    -0.273 NA
HETATM   22  C   UNL     1       9.576  31.392  59.149  1.00  0.00     0.116 A 
HETATM   23  C   UNL     1       9.219  30.337  58.328  1.00  0.00     0.020 A 
HETATM   24  C   UNL     1       7.894  30.245  57.912  1.00  0.00     0.012 A 
ENDBRANCH  18  19
ENDBRANCH  15  18
ENDBRANCH  14  15
ENDBRANCH  11  14
ENDBRANCH   2  10
BRANCH   1  25
HETATM   25  C   UNL     1       5.566  28.111  52.297  1.00  0.00     0.259 C 
HETATM   26  N   UNL     1       4.364  27.626  51.825  1.00  0.00    -0.322 N 
HETATM   27  H   UNL     1       3.876  26.970  52.408  1.00  0.00     0.169 HD
HETATM   28  O   UNL     1       6.118  29.131  51.879  1.00  0.00    -0.267 OA
BRANCH  26  29
HETATM   29  C   UNL     1       3.582  28.208  50.801  1.00  0.00     0.041 A 
HETATM   30  C   UNL     1       3.670  27.893  49.434  1.00  0.00    -0.035 A 
HETATM   31  C   UNL     1       2.883  28.623  48.518  1.00  0.00     0.015 A 
HETATM   32  C   UNL     1       4.500  26.775  48.868  1.00  0.00     0.050 C 
HETATM   33  C   UNL     1       1.969  29.593  48.944  1.00  0.00    -0.061 A 
HETATM   34  C   UNL     1       1.173  30.382  47.947  1.00  0.00     0.048 C 
HETATM   35  C   UNL     1       1.842  29.843  50.309  1.00  0.00     0.009 A 
HETATM   36  C   UNL     1       2.629  29.145  51.227  1.00  0.00     0.030 A 
ENDBRANCH  26  29
ENDBRANCH   1  25
BRANCH   8  37
HETATM   37  C   UNL     1       8.419  21.899  54.192  1.00  0.00    -0.047 C 
HETATM   38  C   UNL     1       9.893  21.815  54.649  1.00  0.00     0.015 C 
HETATM   39  C   UNL     1       7.546  21.449  55.383  1.00  0.00     0.015 C 
HETATM   40  C   UNL     1       8.221  20.895  53.041  1.00  0.00     0.015 C 
ENDBRANCH   8  37
TORSDOF 8
ENDMDL
MODEL 10
REMARK VINA RESULT:      -9.9      4.460      9.361
REMARK  8 active torsions:
REMARK  status: ('A' for Active; 'I' for Inactive)
REMARK    1  A    between atoms: C_6  and  N_7 
REMARK       I    between atoms: N_7  and  C_8 
REMARK    2  A    between atoms: C_8  and  C_9 
REMARK    3  A    between atoms: C_10  and  N_11 
REMARK       I    between atoms: N_11  and  C_12 
REMARK    4  A    between atoms: C_12  and  C_13 
REMARK    5  A    between atoms: C_13  and  N_14 
REMARK    6  A    between atoms: N_14  and  C_17 
REMARK    7  A    between atoms: C_17  and  C_18 
REMARK    8  A    between atoms: C_30  and  C_31 
ROOT
HETATM    1  C   UNL     1       6.530  29.875  57.410  1.00  0.00     0.073 A 
HETATM    2  C   UNL     1       7.819  29.900  57.943  1.00  0.00     0.093 A 
HETATM    3  S   UNL     1       8.876  28.804  57.213  1.00  0.00    -0.075 SA
HETATM    4  C   UNL     1       7.633  28.156  56.257  1.00  0.00    -0.008 A 
HETATM    5  C   UNL     1       6.414  28.782  56.459  1.00  0.00    -0.026 A 
HETATM    6  C   UNL     1       5.192  28.282  55.743  1.00  0.00     0.041 C 
HETATM    7  C   UNL     1       5.364  26.846  55.221  1.00  0.00     0.010 C 
HETATM    8  C   UNL     1       6.686  26.673  54.431  1.00  0.00    -0.002 C 
HETATM    9  C   UNL     1       7.891  26.972  55.365  1.00  0.00     0.052 C 
ENDROOT
BRANCH   2  10
HETATM   10  N   UNL     1       8.223  30.691  59.009  1.00  0.00    -0.319 N 
HETATM   11  C   UNL     1       9.300  31.540  59.074  1.00  0.00     0.248 C 
HETATM   12  O   UNL     1      10.021  31.943  58.166  1.00  0.00    -0.271 OA
HETATM   13  H   UNL     1       7.594  30.609  59.813  1.00  0.00     0.169 HD
BRANCH  11  14
HETATM   14  C   UNL     1       9.558  32.069  60.485  1.00  0.00     0.335 C 
BRANCH  14  15
HETATM   15  N   UNL     1       8.265  32.270  61.230  1.00  0.00    -0.063 N 
HETATM   16  H   UNL     1       8.027  33.268  61.281  1.00  0.00     0.278 HD
HETATM   17  H   UNL     1       7.526  31.821  60.663  1.00  0.00     0.278 HD
BRANCH  15  18
HETATM   18  C   UNL     1       8.229  31.659  62.590  1.00  0.00     0.272 C 
BRANCH  18  19
HETATM   19  C   UNL     1       7.205  32.315  63.456  1.00  0.00    -0.015 A 
HETATM   20  C   UNL     1       5.852  32.029  63.309  1.00  0.00     0.125 A 
HETATM   21  N   UNL     1       4.880  32.622  64.030  1.00  0.00    -0.273 NA
HETATM   22  C   UNL     1       5.256  33.530  64.955  1.00  0.00     0.116 A 
HETATM   23  C   UNL     1       6.574  33.884  65.181  1.00  0.00     0.020 A 
HETATM   24  C   UNL     1       7.562  33.271  64.416  1.00  0.00     0.012 A 
ENDBRANCH  18  19
ENDBRANCH  15  18
ENDBRANCH  14  15
ENDBRANCH  11  14
ENDBRANCH   2  10
BRANCH   1  25
HETATM   25  C   UNL     1       5.535  30.864  57.889  1.00  0.00     0.259 C 
HETATM   26  N   UNL     1       5.983  32.155  58.072  1.00  0.00    -0.322 N 
HETATM   27  H   UNL     1       6.837  32.412  57.610  1.00  0.00     0.169 HD
HETATM   28  O   UNL     1       4.381  30.489  58.108  1.00  0.00    -0.267 OA
BRANCH  26  29
HETATM   29  C   UNL     1       5.206  33.243  58.535  1.00  0.00     0.041 A 
HETATM   30  C   UNL     1       4.603  34.215  57.717  1.00  0.00    -0.035 A 
HETATM   31  C   UNL     1       3.931  35.293  58.330  1.00  0.00     0.015 A 
HETATM   32  C   UNL     1       4.558  34.158  56.215  1.00  0.00     0.050 C 
HETATM   33  C   UNL     1       3.788  35.376  59.719  1.00  0.00    -0.061 A 
HETATM   34  C   UNL     1       3.103  36.553  60.348  1.00  0.00     0.048 C 
HETATM   35  C   UNL     1       4.330  34.367  60.512  1.00  0.00     0.009 A 
HETATM   36  C   UNL     1       5.017  33.304  59.923  1.00  0.00     0.030 A 
ENDBRANCH  26  29
ENDBRANCH   1  25
BRANCH   8  37
HETATM   37  C   UNL     1       6.797  25.288  53.690  1.00  0.00    -0.047 C 
HETATM   38  C   UNL     1       7.148  24.171  54.699  1.00  0.00     0.015 C 
HETATM   39  C   UNL     1       5.444  24.914  53.046  1.00  0.00     0.015 C 
HETATM   40  C   UNL     1       7.873  25.287  52.588  1.00  0.00     0.015 C 
ENDBRANCH   8  37
TORSDOF 8
ENDMDL
