MODEL 1
REMARK VINA RESULT:      -9.0      0.000      0.000
REMARK  5 active torsions:
REMARK  status: ('A' for Active; 'I' for Inactive)
REMARK    1  A    between atoms: O_2  and  C_3 
REMARK    2  A    between atoms: C_5  and  C_6 
REMARK    3  A    between atoms: C_10  and  C_11 
REMARK       I    between atoms: C_11  and  N_12 
REMARK    4  A    between atoms: N_12  and  C_13 
REMARK    5  A    between atoms: C_13  and  C_14 
ROOT
HETATM    1  C   UNL     1       6.273  32.817  63.432  1.00  0.00     0.089 A 
HETATM    2  N   UNL     1       4.963  32.533  63.372  1.00  0.00    -0.174 NA
HETATM    3  N   UNL     1       4.461  33.000  64.525  1.00  0.00    -0.272 N 
HETATM    4  H   UNL     1       3.470  32.885  64.716  1.00  0.00     0.189 HD
HETATM    5  C   UNL     1       5.380  33.612  65.330  1.00  0.00     0.120 A 
HETATM    6  C   UNL     1       6.573  33.501  64.644  1.00  0.00     0.071 A 
ENDROOT
BRANCH   5   7
HETATM    7  C   UNL     1       5.010  34.194  66.593  1.00  0.00     0.269 C 
HETATM    8  N   UNL     1       5.899  33.976  67.616  1.00  0.00    -0.355 N 
HETATM    9  H   UNL     1       6.725  33.420  67.448  1.00  0.00     0.162 HD
HETATM   10  O   UNL     1       3.976  34.841  66.734  1.00  0.00    -0.266 OA
BRANCH   8  11
HETATM   11  C   UNL     1       5.671  34.451  68.965  1.00  0.00     0.128 C 
BRANCH  11  12
HETATM   12  C   UNL     1       6.782  34.023  69.921  1.00  0.00     0.012 C 
HETATM   13  C   UNL     1       8.105  34.833  69.820  1.00  0.00     0.014 C 
HETATM   14  C   UNL     1       8.746  34.485  71.169  1.00  0.00     0.017 C 
HETATM   15  C   UNL     1       7.827  36.298  70.071  1.00  0.00    -0.025 C 
HETATM   16  C   UNL     1       7.571  35.040  71.980  1.00  0.00     0.009 C 
HETATM   17  C   UNL     1       7.497  36.419  71.366  1.00  0.00    -0.026 C 
HETATM   18  C   UNL     1       6.395  34.210  71.423  1.00  0.00     0.015 C 
ENDBRANCH  11  12
ENDBRANCH   8  11
ENDBRANCH   5   7
BRANCH   1  19
HETATM   19  C   UNL     1       7.195  32.453  62.351  1.00  0.00    -0.003 A 
HETATM   20  C   UNL     1       6.755  32.453  61.015  1.00  0.00     0.050 A 
HETATM   21  C   UNL     1       7.627  32.124  59.975  1.00  0.00     0.069 A 
HETATM   22  C   UNL     1       8.950  31.788  60.272  1.00  0.00     0.037 A 
HETATM   23  C   UNL     1       9.399  31.775  61.592  1.00  0.00     0.004 A 
HETATM   24  C   UNL     1       8.524  32.106  62.627  1.00  0.00     0.014 A 
BRANCH  21  25
HETATM   25  O   UNL     1       7.319  32.097  58.643  1.00  0.00    -0.356 OA
HETATM   26  C   UNL     1       7.076  30.818  58.068  1.00  0.00     0.210 C 
ENDBRANCH  21  25
ENDBRANCH   1  19
TORSDOF 5
ENDMDL
MODEL 2
REMARK VINA RESULT:      -8.8      7.709     14.276
REMARK  5 active torsions:
REMARK  status: ('A' for Active; 'I' for Inactive)
REMARK    1  A    between atoms: O_2  and  C_3 
REMARK    2  A    between atoms: C_5  and  C_6 
REMARK    3  A    between atoms: C_10  and  C_11 
REMARK       I    between atoms: C_11  and  N_12 
REMARK    4  A    between atoms: N_12  and  C_13 
REMARK    5  A    between atoms: C_13  and  C_14 
ROOT
HETATM    1  C   UNL     1       7.947  28.496  56.477  1.00  0.00     0.089 A 
HETATM    2  N   UNL     1       7.166  28.901  55.464  1.00  0.00    -0.174 NA
HETATM    3  N   UNL     1       6.708  27.767  54.914  1.00  0.00    -0.272 N 
HETATM    4  H   UNL     1       6.095  27.822  54.106  1.00  0.00     0.189 HD
HETATM    5  C   UNL     1       7.126  26.628  55.544  1.00  0.00     0.120 A 
HETATM    6  C   UNL     1       7.942  27.075  56.564  1.00  0.00     0.071 A 
ENDROOT
BRANCH   5   7
HETATM    7  C   UNL     1       6.708  25.324  55.103  1.00  0.00     0.269 C 
HETATM    8  N   UNL     1       7.490  24.764  54.123  1.00  0.00    -0.355 N 
HETATM    9  H   UNL     1       8.275  25.282  53.756  1.00  0.00     0.162 HD
HETATM   10  O   UNL     1       5.726  24.760  55.576  1.00  0.00    -0.266 OA
BRANCH   8  11
HETATM   11  C   UNL     1       7.197  23.476  53.529  1.00  0.00     0.128 C 
BRANCH  11  12
HETATM   12  C   UNL     1       8.360  22.497  53.677  1.00  0.00     0.012 C 
HETATM   13  C   UNL     1       8.913  22.323  55.118  1.00  0.00     0.014 C 
HETATM   14  C   UNL     1       9.663  20.994  54.968  1.00  0.00     0.017 C 
HETATM   15  C   UNL     1       7.806  21.858  56.038  1.00  0.00    -0.025 C 
HETATM   16  C   UNL     1       8.411  20.226  54.534  1.00  0.00     0.009 C 
HETATM   17  C   UNL     1       7.499  20.602  55.678  1.00  0.00    -0.026 C 
HETATM   18  C   UNL     1       7.971  21.033  53.293  1.00  0.00     0.015 C 
ENDBRANCH  11  12
ENDBRANCH   8  11
ENDBRANCH   5   7
BRANCH   1  19
HETATM   19  C   UNL     1       8.658  29.448  57.337  1.00  0.00    -0.003 A 
HETATM   20  C   UNL     1       8.144  29.779  58.603  1.00  0.00     0.050 A 
HETATM   21  C   UNL     1       8.821  30.671  59.438  1.00  0.00     0.069 A 
HETATM   22  C   UNL     1      10.018  31.241  59.003  1.00  0.00     0.037 A 
HETATM   23  C   UNL     1      10.536  30.931  57.746  1.00  0.00     0.004 A 
HETATM   24  C   UNL     1       9.858  30.037  56.917  1.00  0.00     0.014 A 
BRANCH  21  25
HETATM   25  O   UNL     1       8.426  31.062  60.688  1.00  0.00    -0.356 OA
HETATM   26  C   UNL     1       9.139  30.506  61.787  1.00  0.00     0.210 C 
ENDBRANCH  21  25
ENDBRANCH   1  19
TORSDOF 5
ENDMDL
MODEL 3
REMARK VINA RESULT:      -8.7      6.914     10.906
REMARK  5 active torsions:
REMARK  status: ('A' for Active; 'I' for Inactive)
REMARK    1  A    between atoms: O_2  and  C_3 
REMARK    2  A    between atoms: C_5  and  C_6 
REMARK    3  A    between atoms: C_10  and  C_11 
REMARK       I    between atoms: C_11  and  N_12 
REMARK    4  A    between atoms: N_12  and  C_13 
REMARK    5  A    between atoms: C_13  and  C_14 
ROOT
HETATM    1  C   UNL     1       7.563  25.723  55.869  1.00  0.00     0.089 A 
HETATM    2  N   UNL     1       7.672  25.633  57.203  1.00  0.00    -0.174 NA
HETATM    3  N   UNL     1       7.517  26.891  57.642  1.00  0.00    -0.272 N 
HETATM    4  H   UNL     1       7.575  27.077  58.639  1.00  0.00     0.189 HD
HETATM    5  C   UNL     1       7.276  27.805  56.655  1.00  0.00     0.120 A 
HETATM    6  C   UNL     1       7.308  27.070  55.486  1.00  0.00     0.071 A 
ENDROOT
BRANCH   5   7
HETATM    7  C   UNL     1       7.058  29.196  56.950  1.00  0.00     0.269 C 
HETATM    8  N   UNL     1       7.480  29.598  58.194  1.00  0.00    -0.355 N 
HETATM    9  H   UNL     1       7.884  28.923  58.825  1.00  0.00     0.162 HD
HETATM   10  O   UNL     1       6.538  29.960  56.143  1.00  0.00    -0.266 OA
BRANCH   8  11
HETATM   11  C   UNL     1       7.306  30.952  58.679  1.00  0.00     0.128 C 
BRANCH  11  12
HETATM   12  C   UNL     1       8.515  31.438  59.473  1.00  0.00     0.012 C 
HETATM   13  C   UNL     1       8.225  32.533  60.538  1.00  0.00     0.014 C 
HETATM   14  C   UNL     1       9.478  32.408  61.412  1.00  0.00     0.017 C 
HETATM   15  C   UNL     1       7.203  32.023  61.529  1.00  0.00    -0.025 C 
HETATM   16  C   UNL     1       9.218  30.935  61.742  1.00  0.00     0.009 C 
HETATM   17  C   UNL     1       7.798  31.056  62.245  1.00  0.00    -0.026 C 
HETATM   18  C   UNL     1       9.170  30.309  60.332  1.00  0.00     0.015 C 
ENDBRANCH  11  12
ENDBRANCH   8  11
ENDBRANCH   5   7
BRANCH   1  19
HETATM   19  C   UNL     1       7.688  24.549  55.000  1.00  0.00    -0.003 A 
HETATM   20  C   UNL     1       7.633  23.254  55.547  1.00  0.00     0.050 A 
HETATM   21  C   UNL     1       7.734  22.127  54.728  1.00  0.00     0.069 A 
HETATM   22  C   UNL     1       7.896  22.294  53.352  1.00  0.00     0.037 A 
HETATM   23  C   UNL     1       7.962  23.570  52.795  1.00  0.00     0.004 A 
HETATM   24  C   UNL     1       7.858  24.694  53.616  1.00  0.00     0.014 A 
BRANCH  21  25
HETATM   25  O   UNL     1       7.685  20.824  55.141  1.00  0.00    -0.356 OA
HETATM   26  C   UNL     1       8.841  20.318  55.800  1.00  0.00     0.210 C 
ENDBRANCH  21  25
ENDBRANCH   1  19
TORSDOF 5
ENDMDL
MODEL 4
REMARK VINA RESULT:      -8.6     13.354     17.911
REMARK  5 active torsions:
REMARK  status: ('A' for Active; 'I' for Inactive)
REMARK    1  A    between atoms: O_2  and  C_3 
REMARK    2  A    between atoms: C_5  and  C_6 
REMARK    3  A    between atoms: C_10  and  C_11 
REMARK       I    between atoms: C_11  and  N_12 
REMARK    4  A    between atoms: N_12  and  C_13 
REMARK    5  A    between atoms: C_13  and  C_14 
ROOT
HETATM    1  C   UNL     1       6.336  24.575  52.904  1.00  0.00     0.089 A 
HETATM    2  N   UNL     1       5.100  24.823  53.362  1.00  0.00    -0.174 NA
HETATM    3  N   UNL     1       4.551  25.628  52.439  1.00  0.00    -0.272 N 
HETATM    4  H   UNL     1       3.603  25.965  52.578  1.00  0.00     0.189 HD
HETATM    5  C   UNL     1       5.363  25.894  51.372  1.00  0.00     0.120 A 
HETATM    6  C   UNL     1       6.537  25.225  51.653  1.00  0.00     0.071 A 
ENDROOT
BRANCH   5   7
HETATM    7  C   UNL     1       4.925  26.718  50.277  1.00  0.00     0.269 C 
HETATM    8  N   UNL     1       3.905  26.189  49.524  1.00  0.00    -0.355 N 
HETATM    9  H   UNL     1       3.541  25.275  49.751  1.00  0.00     0.162 HD
HETATM   10  O   UNL     1       5.428  27.812  50.043  1.00  0.00    -0.266 OA
BRANCH   8  11
HETATM   11  C   UNL     1       3.364  26.858  48.359  1.00  0.00     0.128 C 
BRANCH  11  12
HETATM   12  C   UNL     1       2.178  27.753  48.709  1.00  0.00     0.012 C 
HETATM   13  C   UNL     1       2.486  29.273  48.802  1.00  0.00     0.014 C 
HETATM   14  C   UNL     1       1.072  29.851  48.672  1.00  0.00     0.017 C 
HETATM   15  C   UNL     1       3.053  29.761  47.488  1.00  0.00    -0.025 C 
HETATM   16  C   UNL     1       0.829  29.205  47.305  1.00  0.00     0.009 C 
HETATM   17  C   UNL     1       2.060  29.709  46.588  1.00  0.00    -0.026 C 
HETATM   18  C   UNL     1       1.049  27.711  47.629  1.00  0.00     0.015 C 
ENDBRANCH  11  12
ENDBRANCH   8  11
ENDBRANCH   5   7
BRANCH   1  19
HETATM   19  C   UNL     1       7.281  23.730  53.642  1.00  0.00    -0.003 A 
HETATM   20  C   UNL     1       7.535  23.975  55.003  1.00  0.00     0.050 A 
HETATM   21  C   UNL     1       8.420  23.168  55.722  1.00  0.00     0.069 A 
HETATM   22  C   UNL     1       9.060  22.111  55.074  1.00  0.00     0.037 A 
HETATM   23  C   UNL     1       8.827  21.860  53.723  1.00  0.00     0.004 A 
HETATM   24  C   UNL     1       7.940  22.667  53.010  1.00  0.00     0.014 A 
BRANCH  21  25
HETATM   25  O   UNL     1       8.740  23.302  57.045  1.00  0.00    -0.356 OA
HETATM   26  C   UNL     1       8.785  24.628  57.561  1.00  0.00     0.210 C 
ENDBRANCH  21  25
ENDBRANCH   1  19
TORSDOF 5
ENDMDL
MODEL 5
REMARK VINA RESULT:      -8.5      6.381     13.177
REMARK  5 active torsions:
REMARK  status: ('A' for Active; 'I' for Inactive)
REMARK    1  A    between atoms: O_2  and  C_3 
REMARK    2  A    between atoms: C_5  and  C_6 
REMARK    3  A    between atoms: C_10  and  C_11 
REMARK       I    between atoms: C_11  and  N_12 
REMARK    4  A    between atoms: N_12  and  C_13 
REMARK    5  A    between atoms: C_13  and  C_14 
ROOT
HETATM    1  C   UNL     1       8.336  29.676  58.368  1.00  0.00     0.089 A 
HETATM    2  N   UNL     1       9.360  29.692  57.500  1.00  0.00    -0.174 NA
HETATM    3  N   UNL     1       9.079  28.713  56.627  1.00  0.00    -0.272 N 
HETATM    4  H   UNL     1       9.731  28.524  55.871  1.00  0.00     0.189 HD
HETATM    5  C   UNL     1       7.895  28.072  56.862  1.00  0.00     0.120 A 
HETATM    6  C   UNL     1       7.393  28.676  57.997  1.00  0.00     0.071 A 
ENDROOT
BRANCH   5   7
HETATM    7  C   UNL     1       7.426  27.015  56.007  1.00  0.00     0.269 C 
HETATM    8  N   UNL     1       7.240  25.804  56.630  1.00  0.00    -0.355 N 
HETATM    9  H   UNL     1       7.455  25.712  57.611  1.00  0.00     0.162 HD
HETATM   10  O   UNL     1       7.207  27.191  54.813  1.00  0.00    -0.266 OA
BRANCH   8  11
HETATM   11  C   UNL     1       6.812  24.617  55.919  1.00  0.00     0.128 C 
BRANCH  11  12
HETATM   12  C   UNL     1       7.940  24.002  55.095  1.00  0.00     0.012 C 
HETATM   13  C   UNL     1       8.869  23.016  55.856  1.00  0.00     0.014 C 
HETATM   14  C   UNL     1       9.508  22.271  54.678  1.00  0.00     0.017 C 
HETATM   15  C   UNL     1       8.050  21.880  56.427  1.00  0.00    -0.025 C 
HETATM   16  C   UNL     1       8.163  21.784  54.132  1.00  0.00     0.009 C 
HETATM   17  C   UNL     1       7.618  21.147  55.389  1.00  0.00    -0.026 C 
HETATM   18  C   UNL     1       7.418  23.119  53.916  1.00  0.00     0.015 C 
ENDBRANCH  11  12
ENDBRANCH   8  11
ENDBRANCH   5   7
BRANCH   1  19
HETATM   19  C   UNL     1       8.268  30.601  59.504  1.00  0.00    -0.003 A 
HETATM   20  C   UNL     1       7.201  31.510  59.613  1.00  0.00     0.050 A 
HETATM   21  C   UNL     1       7.116  32.386  60.698  1.00  0.00     0.069 A 
HETATM   22  C   UNL     1       8.107  32.356  61.680  1.00  0.00     0.037 A 
HETATM   23  C   UNL     1       9.176  31.467  61.583  1.00  0.00     0.004 A 
HETATM   24  C   UNL     1       9.256  30.592  60.498  1.00  0.00     0.014 A 
BRANCH  21  25
HETATM   25  O   UNL     1       6.126  33.304  60.916  1.00  0.00    -0.356 OA
HETATM   26  C   UNL     1       5.890  33.682  62.268  1.00  0.00     0.210 C 
ENDBRANCH  21  25
ENDBRANCH   1  19
TORSDOF 5
ENDMDL
MODEL 6
REMARK VINA RESULT:      -8.5     14.587     17.475
REMARK  5 active torsions:
REMARK  status: ('A' for Active; 'I' for Inactive)
REMARK    1  A    between atoms: O_2  and  C_3 
REMARK    2  A    between atoms: C_5  and  C_6 
REMARK    3  A    between atoms: C_10  and  C_11 
REMARK       I    between atoms: C_11  and  N_12 
REMARK    4  A    between atoms: N_12  and  C_13 
REMARK    5  A    between atoms: C_13  and  C_14 
ROOT
HETATM    1  C   UNL     1       6.737  24.293  53.990  1.00  0.00     0.089 A 
HETATM    2  N   UNL     1       6.944  25.244  54.915  1.00  0.00    -0.174 NA
HETATM    3  N   UNL     1       6.247  26.302  54.476  1.00  0.00    -0.272 N 
HETATM    4  H   UNL     1       6.263  27.162  55.015  1.00  0.00     0.189 HD
HETATM    5  C   UNL     1       5.558  26.080  53.316  1.00  0.00     0.120 A 
HETATM    6  C   UNL     1       5.866  24.778  52.974  1.00  0.00     0.071 A 
ENDROOT
BRANCH   5   7
HETATM    7  C   UNL     1       4.736  27.098  52.719  1.00  0.00     0.269 C 
HETATM    8  N   UNL     1       5.066  27.426  51.427  1.00  0.00    -0.355 N 
HETATM    9  H   UNL     1       5.851  26.974  50.983  1.00  0.00     0.162 HD
HETATM   10  O   UNL     1       3.808  27.625  53.325  1.00  0.00    -0.266 OA
BRANCH   8  11
HETATM   11  C   UNL     1       4.375  28.458  50.681  1.00  0.00     0.128 C 
BRANCH  11  12
HETATM   12  C   UNL     1       3.545  27.882  49.537  1.00  0.00     0.012 C 
HETATM   13  C   UNL     1       3.574  28.691  48.210  1.00  0.00     0.014 C 
HETATM   14  C   UNL     1       3.085  27.624  47.224  1.00  0.00     0.017 C 
HETATM   15  C   UNL     1       4.999  28.817  47.720  1.00  0.00    -0.025 C 
HETATM   16  C   UNL     1       4.226  26.658  47.554  1.00  0.00     0.009 C 
HETATM   17  C   UNL     1       5.393  27.593  47.337  1.00  0.00    -0.026 C 
HETATM   18  C   UNL     1       4.042  26.475  49.076  1.00  0.00     0.015 C 
ENDBRANCH  11  12
ENDBRANCH   8  11
ENDBRANCH   5   7
BRANCH   1  19
HETATM   19  C   UNL     1       7.346  22.964  54.095  1.00  0.00    -0.003 A 
HETATM   20  C   UNL     1       7.596  22.397  55.357  1.00  0.00     0.050 A 
HETATM   21  C   UNL     1       8.162  21.125  55.471  1.00  0.00     0.069 A 
HETATM   22  C   UNL     1       8.484  20.414  54.313  1.00  0.00     0.037 A 
HETATM   23  C   UNL     1       8.251  20.965  53.054  1.00  0.00     0.004 A 
HETATM   24  C   UNL     1       7.684  22.236  52.946  1.00  0.00     0.014 A 
BRANCH  21  25
HETATM   25  O   UNL     1       8.442  20.469  56.638  1.00  0.00    -0.356 OA
HETATM   26  C   UNL     1       8.425  21.247  57.829  1.00  0.00     0.210 C 
ENDBRANCH  21  25
ENDBRANCH   1  19
TORSDOF 5
ENDMDL
MODEL 7
REMARK VINA RESULT:      -8.5     14.535     18.072
REMARK  5 active torsions:
REMARK  status: ('A' for Active; 'I' for Inactive)
REMARK    1  A    between atoms: O_2  and  C_3 
REMARK    2  A    between atoms: C_5  and  C_6 
REMARK    3  A    between atoms: C_10  and  C_11 
REMARK       I    between atoms: C_11  and  N_12 
REMARK    4  A    between atoms: N_12  and  C_13 
REMARK    5  A    between atoms: C_13  and  C_14 
ROOT
HETATM    1  C   UNL     1       6.198  24.877  53.116  1.00  0.00     0.089 A 
HETATM    2  N   UNL     1       4.935  25.161  53.468  1.00  0.00    -0.174 NA
HETATM    3  N   UNL     1       4.440  25.852  52.430  1.00  0.00    -0.272 N 
HETATM    4  H   UNL     1       3.485  26.192  52.474  1.00  0.00     0.189 HD
HETATM    5  C   UNL     1       5.314  26.007  51.390  1.00  0.00     0.120 A 
HETATM    6  C   UNL     1       6.472  25.386  51.815  1.00  0.00     0.071 A 
ENDROOT
BRANCH   5   7
HETATM    7  C   UNL     1       4.940  26.698  50.186  1.00  0.00     0.269 C 
HETATM    8  N   UNL     1       3.978  26.072  49.431  1.00  0.00    -0.355 N 
HETATM    9  H   UNL     1       3.611  25.181  49.733  1.00  0.00     0.162 HD
HETATM   10  O   UNL     1       5.445  27.770  49.866  1.00  0.00    -0.266 OA
BRANCH   8  11
HETATM   11  C   UNL     1       3.508  26.600  48.168  1.00  0.00     0.128 C 
BRANCH  11  12
HETATM   12  C   UNL     1       2.208  27.385  48.321  1.00  0.00     0.012 C 
HETATM   13  C   UNL     1       2.364  28.865  48.771  1.00  0.00     0.014 C 
HETATM   14  C   UNL     1       1.002  29.428  48.351  1.00  0.00     0.017 C 
HETATM   15  C   UNL     1       3.234  29.610  47.784  1.00  0.00    -0.025 C 
HETATM   16  C   UNL     1       1.194  29.055  46.878  1.00  0.00     0.009 C 
HETATM   17  C   UNL     1       2.533  29.714  46.644  1.00  0.00    -0.026 C 
HETATM   18  C   UNL     1       1.427  27.532  46.975  1.00  0.00     0.015 C 
ENDBRANCH  11  12
ENDBRANCH   8  11
ENDBRANCH   5   7
BRANCH   1  19
HETATM   19  C   UNL     1       7.100  24.131  53.999  1.00  0.00    -0.003 A 
HETATM   20  C   UNL     1       7.532  22.841  53.642  1.00  0.00     0.050 A 
HETATM   21  C   UNL     1       8.404  22.126  54.466  1.00  0.00     0.069 A 
HETATM   22  C   UNL     1       8.845  22.702  55.659  1.00  0.00     0.037 A 
HETATM   23  C   UNL     1       8.419  23.976  56.031  1.00  0.00     0.004 A 
HETATM   24  C   UNL     1       7.550  24.688  55.203  1.00  0.00     0.014 A 
BRANCH  21  25
HETATM   25  O   UNL     1       8.898  20.873  54.223  1.00  0.00    -0.356 OA
HETATM   26  C   UNL     1       8.594  20.300  52.957  1.00  0.00     0.210 C 
ENDBRANCH  21  25
ENDBRANCH   1  19
TORSDOF 5
ENDMDL
MODEL 8
REMARK VINA RESULT:      -8.3      6.655     10.058
REMARK  5 active torsions:
REMARK  status: ('A' for Active; 'I' for Inactive)
REMARK    1  A    between atoms: O_2  and  C_3 
REMARK    2  A    between atoms: C_5  and  C_6 
REMARK    3  A    between atoms: C_10  and  C_11 
REMARK       I    between atoms: C_11  and  N_12 
REMARK    4  A    between atoms: N_12  and  C_13 
REMARK    5  A    between atoms: C_13  and  C_14 
ROOT
HETATM    1  C   UNL     1       6.493  26.459  56.615  1.00  0.00     0.089 A 
HETATM    2  N   UNL     1       5.185  26.579  56.888  1.00  0.00    -0.174 NA
HETATM    3  N   UNL     1       5.025  27.869  57.222  1.00  0.00    -0.272 N 
HETATM    4  H   UNL     1       4.102  28.200  57.486  1.00  0.00     0.189 HD
HETATM    5  C   UNL     1       6.168  28.614  57.148  1.00  0.00     0.120 A 
HETATM    6  C   UNL     1       7.144  27.716  56.762  1.00  0.00     0.071 A 
ENDROOT
BRANCH   5   7
HETATM    7  C   UNL     1       6.173  30.021  57.446  1.00  0.00     0.269 C 
HETATM    8  N   UNL     1       6.952  30.386  58.517  1.00  0.00    -0.355 N 
HETATM    9  H   UNL     1       7.446  29.676  59.037  1.00  0.00     0.162 HD
HETATM   10  O   UNL     1       5.529  30.830  56.784  1.00  0.00    -0.266 OA
BRANCH   8  11
HETATM   11  C   UNL     1       7.046  31.752  58.987  1.00  0.00     0.128 C 
BRANCH  11  12
HETATM   12  C   UNL     1       8.341  32.009  59.753  1.00  0.00     0.012 C 
HETATM   13  C   UNL     1       8.177  32.667  61.151  1.00  0.00     0.014 C 
HETATM   14  C   UNL     1       9.533  32.325  61.780  1.00  0.00     0.017 C 
HETATM   15  C   UNL     1       7.297  31.800  62.024  1.00  0.00    -0.025 C 
HETATM   16  C   UNL     1       9.335  30.815  61.619  1.00  0.00     0.009 C 
HETATM   17  C   UNL     1       7.989  30.684  62.295  1.00  0.00    -0.026 C 
HETATM   18  C   UNL     1       9.113  30.695  60.096  1.00  0.00     0.015 C 
ENDBRANCH  11  12
ENDBRANCH   8  11
ENDBRANCH   5   7
BRANCH   1  19
HETATM   19  C   UNL     1       7.087  25.179  56.216  1.00  0.00    -0.003 A 
HETATM   20  C   UNL     1       6.836  24.650  54.937  1.00  0.00     0.050 A 
HETATM   21  C   UNL     1       7.408  23.440  54.539  1.00  0.00     0.069 A 
HETATM   22  C   UNL     1       8.236  22.750  55.426  1.00  0.00     0.037 A 
HETATM   23  C   UNL     1       8.488  23.256  56.701  1.00  0.00     0.004 A 
HETATM   24  C   UNL     1       7.915  24.466  57.094  1.00  0.00     0.014 A 
BRANCH  21  25
HETATM   25  O   UNL     1       7.246  22.833  53.324  1.00  0.00    -0.356 OA
HETATM   26  C   UNL     1       8.036  21.676  53.075  1.00  0.00     0.210 C 
ENDBRANCH  21  25
ENDBRANCH   1  19
TORSDOF 5
ENDMDL
MODEL 9
REMARK VINA RESULT:      -8.3      5.095      8.358
REMARK  5 active torsions:
REMARK  status: ('A' for Active; 'I' for Inactive)
REMARK    1  A    between atoms: O_2  and  C_3 
REMARK    2  A    between atoms: C_5  and  C_6 
REMARK    3  A    between atoms: C_10  and  C_11 
REMARK       I    between atoms: C_11  and  N_12 
REMARK    4  A    between atoms: N_12  and  C_13 
REMARK    5  A    between atoms: C_13  and  C_14 
ROOT
HETATM    1  C   UNL     1       8.501  28.363  57.148  1.00  0.00     0.089 A 
HETATM    2  N   UNL     1       9.593  28.862  56.549  1.00  0.00    -0.174 NA
HETATM    3  N   UNL     1       9.819  30.028  57.172  1.00  0.00    -0.272 N 
HETATM    4  H   UNL     1      10.602  30.603  56.876  1.00  0.00     0.189 HD
HETATM    5  C   UNL     1       8.940  30.305  58.182  1.00  0.00     0.120 A 
HETATM    6  C   UNL     1       8.065  29.237  58.183  1.00  0.00     0.071 A 
ENDROOT
BRANCH   5   7
HETATM    7  C   UNL     1       9.052  31.501  58.973  1.00  0.00     0.269 C 
HETATM    8  N   UNL     1       8.077  31.659  59.928  1.00  0.00    -0.355 N 
HETATM    9  H   UNL     1       7.345  30.969  60.011  1.00  0.00     0.162 HD
HETATM   10  O   UNL     1       9.957  32.312  58.804  1.00  0.00    -0.266 OA
BRANCH   8  11
HETATM   11  C   UNL     1       8.006  32.821  60.789  1.00  0.00     0.128 C 
BRANCH  11  12
HETATM   12  C   UNL     1       6.711  32.859  61.597  1.00  0.00     0.012 C 
HETATM   13  C   UNL     1       6.687  31.968  62.870  1.00  0.00     0.014 C 
HETATM   14  C   UNL     1       5.523  32.608  63.635  1.00  0.00     0.017 C 
HETATM   15  C   UNL     1       7.814  32.367  63.795  1.00  0.00    -0.025 C 
HETATM   16  C   UNL     1       6.186  33.988  63.683  1.00  0.00     0.009 C 
HETATM   17  C   UNL     1       7.517  33.584  64.274  1.00  0.00    -0.026 C 
HETATM   18  C   UNL     1       6.403  34.276  62.181  1.00  0.00     0.015 C 
ENDBRANCH  11  12
ENDBRANCH   8  11
ENDBRANCH   5   7
BRANCH   1  19
HETATM   19  C   UNL     1       7.911  27.083  56.743  1.00  0.00    -0.003 A 
HETATM   20  C   UNL     1       7.020  27.027  55.656  1.00  0.00     0.050 A 
HETATM   21  C   UNL     1       6.464  25.812  55.250  1.00  0.00     0.069 A 
HETATM   22  C   UNL     1       6.797  24.643  55.936  1.00  0.00     0.037 A 
HETATM   23  C   UNL     1       7.672  24.683  57.020  1.00  0.00     0.004 A 
HETATM   24  C   UNL     1       8.227  25.899  57.422  1.00  0.00     0.014 A 
BRANCH  21  25
HETATM   25  O   UNL     1       5.596  25.632  54.208  1.00  0.00    -0.356 OA
HETATM   26  C   UNL     1       5.043  26.806  53.624  1.00  0.00     0.210 C 
ENDBRANCH  21  25
ENDBRANCH   1  19
TORSDOF 5
ENDMDL
MODEL 10
REMARK VINA RESULT:      -8.2      4.968     11.560
REMARK  5 active torsions:
REMARK  status: ('A' for Active; 'I' for Inactive)
REMARK    1  A    between atoms: O_2  and  C_3 
REMARK    2  A    between atoms: C_5  and  C_6 
REMARK    3  A    between atoms: C_10  and  C_11 
REMARK       I    between atoms: C_11  and  N_12 
REMARK    4  A    between atoms: N_12  and  C_13 
REMARK    5  A    between atoms: C_13  and  C_14 
ROOT
HETATM    1  C   UNL     1       8.328  31.712  60.510  1.00  0.00     0.089 A 
HETATM    2  N   UNL     1       9.333  32.393  59.940  1.00  0.00    -0.174 NA
HETATM    3  N   UNL     1       9.663  31.670  58.859  1.00  0.00    -0.272 N 
HETATM    4  H   UNL     1      10.423  31.988  58.266  1.00  0.00     0.189 HD
HETATM    5  C   UNL     1       8.894  30.555  58.673  1.00  0.00     0.120 A 
HETATM    6  C   UNL     1       8.019  30.554  59.741  1.00  0.00     0.071 A 
ENDROOT
BRANCH   5   7
HETATM    7  C   UNL     1       9.093  29.680  57.549  1.00  0.00     0.269 C 
HETATM    8  N   UNL     1       8.278  28.575  57.522  1.00  0.00    -0.355 N 
HETATM    9  H   UNL     1       7.621  28.423  58.273  1.00  0.00     0.162 HD
HETATM   10  O   UNL     1       9.929  29.914  56.681  1.00  0.00    -0.266 OA
BRANCH   8  11
HETATM   11  C   UNL     1       8.365  27.564  56.489  1.00  0.00     0.128 C 
BRANCH  11  12
HETATM   12  C   UNL     1       6.990  27.047  56.072  1.00  0.00     0.012 C 
HETATM   13  C   UNL     1       6.963  26.162  54.795  1.00  0.00     0.014 C 
HETATM   14  C   UNL     1       5.608  25.466  54.970  1.00  0.00     0.017 C 
HETATM   15  C   UNL     1       7.862  24.961  54.987  1.00  0.00    -0.025 C 
HETATM   16  C   UNL     1       5.990  24.848  56.318  1.00  0.00     0.009 C 
HETATM   17  C   UNL     1       7.281  24.179  55.909  1.00  0.00    -0.026 C 
HETATM   18  C   UNL     1       6.348  26.105  57.140  1.00  0.00     0.015 C 
ENDBRANCH  11  12
ENDBRANCH   8  11
ENDBRANCH   5   7
BRANCH   1  19
HETATM   19  C   UNL     1       7.683  32.170  61.745  1.00  0.00    -0.003 A 
HETATM   20  C   UNL     1       6.281  32.246  61.825  1.00  0.00     0.050 A 
HETATM   21  C   UNL     1       5.653  32.665  63.000  1.00  0.00     0.069 A 
HETATM   22  C   UNL     1       6.433  33.016  64.104  1.00  0.00     0.037 A 
HETATM   23  C   UNL     1       7.824  32.955  64.038  1.00  0.00     0.004 A 
HETATM   24  C   UNL     1       8.446  32.533  62.862  1.00  0.00     0.014 A 
BRANCH  21  25
HETATM   25  O   UNL     1       4.304  32.771  63.200  1.00  0.00    -0.356 OA
HETATM   26  C   UNL     1       3.499  32.962  62.043  1.00  0.00     0.210 C 
ENDBRANCH  21  25
ENDBRANCH   1  19
TORSDOF 5
ENDMDL
