MODEL 1
REMARK VINA RESULT:      -8.4      0.000      0.000
REMARK  6 active torsions:
REMARK  status: ('A' for Active; 'I' for Inactive)
REMARK    1  A    between atoms: O_2  and  C_3 
REMARK    2  A    between atoms: C_7  and  C_8 
REMARK    3  A    between atoms: C_8  and  C_9 
REMARK       I    between atoms: C_9  and  N_10 
REMARK    4  A    between atoms: N_10  and  C_11 
REMARK    5  A    between atoms: C_12  and  C_13 
REMARK       I    between atoms: C_13  and  N_14 
REMARK    6  A    between atoms: N_14  and  C_15 
ROOT
HETATM    1  C   UNL     1       8.215  24.398  57.070  1.00  0.00     0.226 C 
HETATM    2  N   UNL     1       7.272  23.613  56.433  1.00  0.00    -0.326 N 
HETATM    3  O   UNL     1       9.432  24.268  56.966  1.00  0.00    -0.273 OA
HETATM    4  H   UNL     1       6.320  23.661  56.787  1.00  0.00     0.169 HD
ENDROOT
BRANCH   2   5
HETATM    5  C   UNL     1       7.495  22.711  55.359  1.00  0.00     0.050 A 
HETATM    6  C   UNL     1       7.450  23.175  54.029  1.00  0.00     0.058 A 
HETATM    7  C   UNL     1       7.806  22.338  52.960  1.00  0.00     0.019 A 
HETATM    8  C   UNL     1       8.175  21.019  53.201  1.00  0.00     0.001 A 
HETATM    9  C   UNL     1       8.188  20.536  54.506  1.00  0.00     0.002 A 
HETATM   10  C   UNL     1       7.855  21.376  55.576  1.00  0.00     0.030 A 
BRANCH   6  11
HETATM   11  C   UNL     1       6.981  24.537  53.674  1.00  0.00     0.254 C 
HETATM   12  N   UNL     1       5.759  24.578  53.033  1.00  0.00    -0.352 N 
HETATM   13  H   UNL     1       5.329  23.702  52.751  1.00  0.00     0.163 HD
HETATM   14  O   UNL     1       7.675  25.513  53.926  1.00  0.00    -0.268 OA
BRANCH  12  15
HETATM   15  C   UNL     1       5.228  25.786  52.487  1.00  0.00     0.084 A 
HETATM   16  C   UNL     1       6.054  26.620  51.548  1.00  0.00     0.027 A 
HETATM   17  C   UNL     1       4.861  25.870  51.031  1.00  0.00     0.027 A 
ENDBRANCH  12  15
ENDBRANCH   6  11
ENDBRANCH   2   5
BRANCH   1  18
HETATM   18  C   UNL     1       7.635  25.546  57.881  1.00  0.00     0.144 C 
BRANCH  18  19
HETATM   19  C   UNL     1       7.602  26.858  57.175  1.00  0.00    -0.014 A 
HETATM   20  C   UNL     1       6.516  27.431  56.443  1.00  0.00     0.006 A 
HETATM   21  C   UNL     1       6.934  28.702  56.071  1.00  0.00     0.088 A 
HETATM   22  C   UNL     1       5.221  27.024  56.078  1.00  0.00     0.017 A 
HETATM   23  C   UNL     1       6.148  29.627  55.387  1.00  0.00     0.074 A 
HETATM   24  O   UNL     1       8.213  28.917  56.484  1.00  0.00    -0.321 OA
HETATM   25  C   UNL     1       4.849  29.221  55.072  1.00  0.00     0.070 A 
HETATM   26  C   UNL     1       4.407  27.930  55.383  1.00  0.00     0.038 A 
HETATM   27  C   UNL     1       8.606  27.807  57.154  1.00  0.00     0.151 A 
BRANCH  25  28
HETATM   28  O   UNL     1       3.930  30.008  54.425  1.00  0.00    -0.356 OA
HETATM   29  C   UNL     1       3.528  29.535  53.141  1.00  0.00     0.210 C 
ENDBRANCH  25  28
ENDBRANCH  18  19
ENDBRANCH   1  18
TORSDOF 6
ENDMDL
MODEL 2
REMARK VINA RESULT:      -8.4      3.632      8.034
REMARK  6 active torsions:
REMARK  status: ('A' for Active; 'I' for Inactive)
REMARK    1  A    between atoms: O_2  and  C_3 
REMARK    2  A    between atoms: C_7  and  C_8 
REMARK    3  A    between atoms: C_8  and  C_9 
REMARK       I    between atoms: C_9  and  N_10 
REMARK    4  A    between atoms: N_10  and  C_11 
REMARK    5  A    between atoms: C_12  and  C_13 
REMARK       I    between atoms: C_13  and  N_14 
REMARK    6  A    between atoms: N_14  and  C_15 
ROOT
HETATM    1  C   UNL     1       6.532  28.347  56.500  1.00  0.00     0.226 C 
HETATM    2  N   UNL     1       7.432  28.508  57.538  1.00  0.00    -0.326 N 
HETATM    3  O   UNL     1       6.480  29.047  55.492  1.00  0.00    -0.273 OA
HETATM    4  H   UNL     1       7.217  28.031  58.409  1.00  0.00     0.169 HD
ENDROOT
BRANCH   2   5
HETATM    5  C   UNL     1       8.608  29.304  57.534  1.00  0.00     0.050 A 
HETATM    6  C   UNL     1       8.666  30.478  58.312  1.00  0.00     0.058 A 
HETATM    7  C   UNL     1       9.861  31.202  58.436  1.00  0.00     0.019 A 
HETATM    8  C   UNL     1      11.003  30.787  57.757  1.00  0.00     0.001 A 
HETATM    9  C   UNL     1      10.949  29.651  56.956  1.00  0.00     0.002 A 
HETATM   10  C   UNL     1       9.764  28.913  56.848  1.00  0.00     0.030 A 
BRANCH   6  11
HETATM   11  C   UNL     1       7.477  31.043  58.994  1.00  0.00     0.254 C 
HETATM   12  N   UNL     1       7.729  31.592  60.235  1.00  0.00    -0.352 N 
HETATM   13  H   UNL     1       8.653  31.474  60.639  1.00  0.00     0.163 HD
HETATM   14  O   UNL     1       6.374  30.978  58.466  1.00  0.00    -0.268 OA
BRANCH  12  15
HETATM   15  C   UNL     1       6.681  32.043  61.093  1.00  0.00     0.084 A 
HETATM   16  C   UNL     1       6.774  31.833  62.579  1.00  0.00     0.027 A 
HETATM   17  C   UNL     1       6.894  33.216  62.010  1.00  0.00     0.027 A 
ENDBRANCH  12  15
ENDBRANCH   6  11
ENDBRANCH   2   5
BRANCH   1  18
HETATM   18  C   UNL     1       5.619  27.139  56.640  1.00  0.00     0.144 C 
BRANCH  18  19
HETATM   19  C   UNL     1       5.973  25.982  55.770  1.00  0.00    -0.014 A 
HETATM   20  C   UNL     1       6.898  24.929  56.048  1.00  0.00     0.006 A 
HETATM   21  C   UNL     1       6.796  24.040  54.986  1.00  0.00     0.088 A 
HETATM   22  C   UNL     1       7.790  24.620  57.090  1.00  0.00     0.017 A 
HETATM   23  C   UNL     1       7.490  22.835  54.890  1.00  0.00     0.074 A 
HETATM   24  O   UNL     1       5.910  24.507  54.064  1.00  0.00    -0.321 OA
HETATM   25  C   UNL     1       8.338  22.524  55.956  1.00  0.00     0.070 A 
HETATM   26  C   UNL     1       8.508  23.417  57.020  1.00  0.00     0.038 A 
HETATM   27  C   UNL     1       5.413  25.672  54.546  1.00  0.00     0.151 A 
BRANCH  25  28
HETATM   28  O   UNL     1       9.077  21.372  56.043  1.00  0.00    -0.356 OA
HETATM   29  C   UNL     1       8.393  20.185  55.646  1.00  0.00     0.210 C 
ENDBRANCH  25  28
ENDBRANCH  18  19
ENDBRANCH   1  18
TORSDOF 6
ENDMDL
MODEL 3
REMARK VINA RESULT:      -8.4      2.853      5.123
REMARK  6 active torsions:
REMARK  status: ('A' for Active; 'I' for Inactive)
REMARK    1  A    between atoms: O_2  and  C_3 
REMARK    2  A    between atoms: C_7  and  C_8 
REMARK    3  A    between atoms: C_8  and  C_9 
REMARK       I    between atoms: C_9  and  N_10 
REMARK    4  A    between atoms: N_10  and  C_11 
REMARK    5  A    between atoms: C_12  and  C_13 
REMARK       I    between atoms: C_13  and  N_14 
REMARK    6  A    between atoms: N_14  and  C_15 
ROOT
HETATM    1  C   UNL     1       7.537  27.429  55.763  1.00  0.00     0.226 C 
HETATM    2  N   UNL     1       7.854  26.808  54.568  1.00  0.00    -0.326 N 
HETATM    3  O   UNL     1       6.450  27.936  56.031  1.00  0.00    -0.273 OA
HETATM    4  H   UNL     1       8.841  26.652  54.381  1.00  0.00     0.169 HD
ENDROOT
BRANCH   2   5
HETATM    5  C   UNL     1       6.951  26.400  53.550  1.00  0.00     0.050 A 
HETATM    6  C   UNL     1       6.681  25.031  53.356  1.00  0.00     0.058 A 
HETATM    7  C   UNL     1       5.690  24.611  52.457  1.00  0.00     0.019 A 
HETATM    8  C   UNL     1       4.981  25.549  51.713  1.00  0.00     0.001 A 
HETATM    9  C   UNL     1       5.263  26.903  51.867  1.00  0.00     0.002 A 
HETATM   10  C   UNL     1       6.236  27.326  52.781  1.00  0.00     0.030 A 
BRANCH   6  11
HETATM   11  C   UNL     1       7.451  23.961  54.038  1.00  0.00     0.254 C 
HETATM   12  N   UNL     1       7.984  23.007  53.195  1.00  0.00    -0.352 N 
HETATM   13  H   UNL     1       7.729  23.030  52.213  1.00  0.00     0.163 HD
HETATM   14  O   UNL     1       7.551  23.956  55.258  1.00  0.00    -0.268 OA
BRANCH  12  15
HETATM   15  C   UNL     1       8.622  21.829  53.689  1.00  0.00     0.084 A 
HETATM   16  C   UNL     1       7.800  20.679  54.201  1.00  0.00     0.027 A 
HETATM   17  C   UNL     1       8.558  20.542  52.914  1.00  0.00     0.027 A 
ENDBRANCH  12  15
ENDBRANCH   6  11
ENDBRANCH   2   5
BRANCH   1  18
HETATM   18  C   UNL     1       8.634  27.369  56.814  1.00  0.00     0.144 C 
BRANCH  18  19
HETATM   19  C   UNL     1       9.311  28.668  57.086  1.00  0.00    -0.014 A 
HETATM   20  C   UNL     1       8.913  29.686  58.007  1.00  0.00     0.006 A 
HETATM   21  C   UNL     1       9.920  30.644  57.978  1.00  0.00     0.088 A 
HETATM   22  C   UNL     1       7.828  29.890  58.877  1.00  0.00     0.017 A 
HETATM   23  C   UNL     1       9.954  31.784  58.778  1.00  0.00     0.074 A 
HETATM   24  O   UNL     1      10.871  30.298  57.068  1.00  0.00    -0.321 OA
HETATM   25  C   UNL     1       8.889  31.946  59.668  1.00  0.00     0.070 A 
HETATM   26  C   UNL     1       7.829  31.032  59.691  1.00  0.00     0.038 A 
HETATM   27  C   UNL     1      10.503  29.105  56.541  1.00  0.00     0.151 A 
BRANCH  25  28
HETATM   28  O   UNL     1       8.771  32.993  60.546  1.00  0.00    -0.356 OA
HETATM   29  C   UNL     1       7.660  32.912  61.436  1.00  0.00     0.210 C 
ENDBRANCH  25  28
ENDBRANCH  18  19
ENDBRANCH   1  18
TORSDOF 6
ENDMDL
MODEL 4
REMARK VINA RESULT:      -8.2      3.454      6.794
REMARK  6 active torsions:
REMARK  status: ('A' for Active; 'I' for Inactive)
REMARK    1  A    between atoms: O_2  and  C_3 
REMARK    2  A    between atoms: C_7  and  C_8 
REMARK    3  A    between atoms: C_8  and  C_9 
REMARK       I    between atoms: C_9  and  N_10 
REMARK    4  A    between atoms: N_10  and  C_11 
REMARK    5  A    between atoms: C_12  and  C_13 
REMARK       I    between atoms: C_13  and  N_14 
REMARK    6  A    between atoms: N_14  and  C_15 
ROOT
HETATM    1  C   UNL     1       5.467  25.716  51.838  1.00  0.00     0.226 C 
HETATM    2  N   UNL     1       6.279  26.126  52.879  1.00  0.00    -0.326 N 
HETATM    3  O   UNL     1       4.603  24.845  51.913  1.00  0.00    -0.273 OA
HETATM    4  H   UNL     1       7.104  26.667  52.632  1.00  0.00     0.169 HD
ENDROOT
BRANCH   2   5
HETATM    5  C   UNL     1       6.110  25.838  54.260  1.00  0.00     0.050 A 
HETATM    6  C   UNL     1       6.865  24.813  54.863  1.00  0.00     0.058 A 
HETATM    7  C   UNL     1       6.821  24.604  56.249  1.00  0.00     0.019 A 
HETATM    8  C   UNL     1       5.997  25.391  57.047  1.00  0.00     0.001 A 
HETATM    9  C   UNL     1       5.218  26.384  56.460  1.00  0.00     0.002 A 
HETATM   10  C   UNL     1       5.276  26.609  55.080  1.00  0.00     0.030 A 
BRANCH   6  11
HETATM   11  C   UNL     1       7.698  23.868  54.079  1.00  0.00     0.254 C 
HETATM   12  N   UNL     1       7.724  22.577  54.567  1.00  0.00    -0.352 N 
HETATM   13  H   UNL     1       7.283  22.389  55.462  1.00  0.00     0.163 HD
HETATM   14  O   UNL     1       8.318  24.261  53.099  1.00  0.00    -0.268 OA
BRANCH  12  15
HETATM   15  C   UNL     1       8.590  21.578  54.028  1.00  0.00     0.084 A 
HETATM   16  C   UNL     1       8.449  20.143  54.453  1.00  0.00     0.027 A 
HETATM   17  C   UNL     1       8.065  20.552  53.062  1.00  0.00     0.027 A 
ENDBRANCH  12  15
ENDBRANCH   6  11
ENDBRANCH   2   5
BRANCH   1  18
HETATM   18  C   UNL     1       5.650  26.502  50.549  1.00  0.00     0.144 C 
BRANCH  18  19
HETATM   19  C   UNL     1       4.452  27.273  50.111  1.00  0.00    -0.014 A 
HETATM   20  C   UNL     1       3.625  27.031  48.971  1.00  0.00     0.006 A 
HETATM   21  C   UNL     1       2.582  27.946  49.054  1.00  0.00     0.088 A 
HETATM   22  C   UNL     1       3.630  26.127  47.896  1.00  0.00     0.017 A 
HETATM   23  C   UNL     1       1.512  28.012  48.165  1.00  0.00     0.074 A 
HETATM   24  O   UNL     1       2.750  28.753  50.137  1.00  0.00    -0.321 OA
HETATM   25  C   UNL     1       1.512  27.075  47.127  1.00  0.00     0.070 A 
HETATM   26  C   UNL     1       2.570  26.172  46.979  1.00  0.00     0.038 A 
HETATM   27  C   UNL     1       3.872  28.339  50.773  1.00  0.00     0.151 A 
BRANCH  25  28
HETATM   28  O   UNL     1       0.528  26.978  46.177  1.00  0.00    -0.356 OA
HETATM   29  C   UNL     1      -0.423  28.040  46.182  1.00  0.00     0.210 C 
ENDBRANCH  25  28
ENDBRANCH  18  19
ENDBRANCH   1  18
TORSDOF 6
ENDMDL
MODEL 5
REMARK VINA RESULT:      -8.1      2.092      4.628
REMARK  6 active torsions:
REMARK  status: ('A' for Active; 'I' for Inactive)
REMARK    1  A    between atoms: O_2  and  C_3 
REMARK    2  A    between atoms: C_7  and  C_8 
REMARK    3  A    between atoms: C_8  and  C_9 
REMARK       I    between atoms: C_9  and  N_10 
REMARK    4  A    between atoms: N_10  and  C_11 
REMARK    5  A    between atoms: C_12  and  C_13 
REMARK       I    between atoms: C_13  and  N_14 
REMARK    6  A    between atoms: N_14  and  C_15 
ROOT
HETATM    1  C   UNL     1       6.815  25.233  53.420  1.00  0.00     0.226 C 
HETATM    2  N   UNL     1       7.912  24.392  53.386  1.00  0.00    -0.326 N 
HETATM    3  O   UNL     1       5.658  24.882  53.643  1.00  0.00    -0.273 OA
HETATM    4  H   UNL     1       8.757  24.758  52.956  1.00  0.00     0.169 HD
ENDROOT
BRANCH   2   5
HETATM    5  C   UNL     1       7.976  23.051  53.850  1.00  0.00     0.050 A 
HETATM    6  C   UNL     1       7.929  22.782  55.232  1.00  0.00     0.058 A 
HETATM    7  C   UNL     1       7.847  21.465  55.709  1.00  0.00     0.019 A 
HETATM    8  C   UNL     1       7.848  20.399  54.815  1.00  0.00     0.001 A 
HETATM    9  C   UNL     1       7.931  20.648  53.448  1.00  0.00     0.002 A 
HETATM   10  C   UNL     1       7.990  21.963  52.969  1.00  0.00     0.030 A 
BRANCH   6  11
HETATM   11  C   UNL     1       8.015  23.851  56.257  1.00  0.00     0.254 C 
HETATM   12  N   UNL     1       6.827  24.505  56.512  1.00  0.00    -0.352 N 
HETATM   13  H   UNL     1       6.025  24.302  55.922  1.00  0.00     0.163 HD
HETATM   14  O   UNL     1       9.088  24.112  56.786  1.00  0.00    -0.268 OA
BRANCH  12  15
HETATM   15  C   UNL     1       6.759  25.656  57.355  1.00  0.00     0.084 A 
HETATM   16  C   UNL     1       7.351  26.962  56.903  1.00  0.00     0.027 A 
HETATM   17  C   UNL     1       5.862  26.810  57.002  1.00  0.00     0.027 A 
ENDBRANCH  12  15
ENDBRANCH   6  11
ENDBRANCH   2   5
BRANCH   1  18
HETATM   18  C   UNL     1       7.146  26.707  53.245  1.00  0.00     0.144 C 
BRANCH  18  19
HETATM   19  C   UNL     1       6.014  27.551  52.769  1.00  0.00    -0.014 A 
HETATM   20  C   UNL     1       5.333  27.475  51.514  1.00  0.00     0.006 A 
HETATM   21  C   UNL     1       4.290  28.390  51.589  1.00  0.00     0.088 A 
HETATM   22  C   UNL     1       5.470  26.720  50.337  1.00  0.00     0.017 A 
HETATM   23  C   UNL     1       3.338  28.592  50.592  1.00  0.00     0.074 A 
HETATM   24  O   UNL     1       4.324  29.045  52.781  1.00  0.00    -0.321 OA
HETATM   25  C   UNL     1       3.465  27.799  49.447  1.00  0.00     0.070 A 
HETATM   26  C   UNL     1       4.532  26.904  49.311  1.00  0.00     0.038 A 
HETATM   27  C   UNL     1       5.358  28.531  53.489  1.00  0.00     0.151 A 
BRANCH  25  28
HETATM   28  O   UNL     1       2.607  27.845  48.379  1.00  0.00    -0.356 OA
HETATM   29  C   UNL     1       3.014  27.082  47.245  1.00  0.00     0.210 C 
ENDBRANCH  25  28
ENDBRANCH  18  19
ENDBRANCH   1  18
TORSDOF 6
ENDMDL
MODEL 6
REMARK VINA RESULT:      -8.0      6.934      8.969
REMARK  6 active torsions:
REMARK  status: ('A' for Active; 'I' for Inactive)
REMARK    1  A    between atoms: O_2  and  C_3 
REMARK    2  A    between atoms: C_7  and  C_8 
REMARK    3  A    between atoms: C_8  and  C_9 
REMARK       I    between atoms: C_9  and  N_10 
REMARK    4  A    between atoms: N_10  and  C_11 
REMARK    5  A    between atoms: C_12  and  C_13 
REMARK       I    between atoms: C_13  and  N_14 
REMARK    6  A    between atoms: N_14  and  C_15 
ROOT
HETATM    1  C   UNL     1       8.886  31.198  60.765  1.00  0.00     0.226 C 
HETATM    2  N   UNL     1       8.874  31.502  59.416  1.00  0.00    -0.326 N 
HETATM    3  O   UNL     1       9.123  30.090  61.240  1.00  0.00    -0.273 OA
HETATM    4  H   UNL     1       8.430  32.376  59.146  1.00  0.00     0.169 HD
ENDROOT
BRANCH   2   5
HETATM    5  C   UNL     1       9.379  30.704  58.356  1.00  0.00     0.050 A 
HETATM    6  C   UNL     1       8.491  30.096  57.447  1.00  0.00     0.058 A 
HETATM    7  C   UNL     1       8.968  29.423  56.312  1.00  0.00     0.019 A 
HETATM    8  C   UNL     1      10.337  29.316  56.088  1.00  0.00     0.001 A 
HETATM    9  C   UNL     1      11.227  29.879  56.997  1.00  0.00     0.002 A 
HETATM   10  C   UNL     1      10.753  30.571  58.119  1.00  0.00     0.030 A 
BRANCH   6  11
HETATM   11  C   UNL     1       7.022  30.082  57.655  1.00  0.00     0.254 C 
HETATM   12  N   UNL     1       6.378  28.969  57.151  1.00  0.00    -0.352 N 
HETATM   13  H   UNL     1       6.911  28.313  56.589  1.00  0.00     0.163 HD
HETATM   14  O   UNL     1       6.469  31.022  58.211  1.00  0.00    -0.268 OA
BRANCH  12  15
HETATM   15  C   UNL     1       4.954  28.861  57.128  1.00  0.00     0.084 A 
HETATM   16  C   UNL     1       4.148  29.678  56.157  1.00  0.00     0.027 A 
HETATM   17  C   UNL     1       4.256  28.192  55.976  1.00  0.00     0.027 A 
ENDBRANCH  12  15
ENDBRANCH   6  11
ENDBRANCH   2   5
BRANCH   1  18
HETATM   18  C   UNL     1       8.664  32.391  61.681  1.00  0.00     0.144 C 
BRANCH  18  19
HETATM   19  C   UNL     1       7.285  32.507  62.235  1.00  0.00    -0.014 A 
HETATM   20  C   UNL     1       6.899  32.967  63.532  1.00  0.00     0.006 A 
HETATM   21  C   UNL     1       5.510  32.995  63.531  1.00  0.00     0.088 A 
HETATM   22  C   UNL     1       7.570  33.386  64.693  1.00  0.00     0.017 A 
HETATM   23  C   UNL     1       4.724  33.443  64.590  1.00  0.00     0.074 A 
HETATM   24  O   UNL     1       5.032  32.536  62.342  1.00  0.00    -0.321 OA
HETATM   25  C   UNL     1       5.411  33.897  65.720  1.00  0.00     0.070 A 
HETATM   26  C   UNL     1       6.808  33.838  65.781  1.00  0.00     0.038 A 
HETATM   27  C   UNL     1       6.104  32.252  61.564  1.00  0.00     0.151 A 
BRANCH  25  28
HETATM   28  O   UNL     1       4.802  34.395  66.843  1.00  0.00    -0.356 OA
HETATM   29  C   UNL     1       3.610  35.140  66.603  1.00  0.00     0.210 C 
ENDBRANCH  25  28
ENDBRANCH  18  19
ENDBRANCH   1  18
TORSDOF 6
ENDMDL
MODEL 7
REMARK VINA RESULT:      -7.9      3.411      6.438
REMARK  6 active torsions:
REMARK  status: ('A' for Active; 'I' for Inactive)
REMARK    1  A    between atoms: O_2  and  C_3 
REMARK    2  A    between atoms: C_7  and  C_8 
REMARK    3  A    between atoms: C_8  and  C_9 
REMARK       I    between atoms: C_9  and  N_10 
REMARK    4  A    between atoms: N_10  and  C_11 
REMARK    5  A    between atoms: C_12  and  C_13 
REMARK       I    between atoms: C_13  and  N_14 
REMARK    6  A    between atoms: N_14  and  C_15 
ROOT
HETATM    1  C   UNL     1       5.822  26.044  51.482  1.00  0.00     0.226 C 
HETATM    2  N   UNL     1       7.032  25.716  52.066  1.00  0.00    -0.326 N 
HETATM    3  O   UNL     1       4.819  25.335  51.486  1.00  0.00    -0.273 OA
HETATM    4  H   UNL     1       7.840  26.267  51.787  1.00  0.00     0.169 HD
ENDROOT
BRANCH   2   5
HETATM    5  C   UNL     1       7.280  24.664  52.987  1.00  0.00     0.050 A 
HETATM    6  C   UNL     1       7.018  24.852  54.359  1.00  0.00     0.058 A 
HETATM    7  C   UNL     1       7.119  23.787  55.266  1.00  0.00     0.019 A 
HETATM    8  C   UNL     1       7.518  22.530  54.823  1.00  0.00     0.001 A 
HETATM    9  C   UNL     1       7.816  22.338  53.478  1.00  0.00     0.002 A 
HETATM   10  C   UNL     1       7.694  23.394  52.566  1.00  0.00     0.030 A 
BRANCH   6  11
HETATM   11  C   UNL     1       6.678  26.178  54.931  1.00  0.00     0.254 C 
HETATM   12  N   UNL     1       7.728  26.829  55.547  1.00  0.00    -0.352 N 
HETATM   13  H   UNL     1       8.604  26.329  55.668  1.00  0.00     0.163 HD
HETATM   14  O   UNL     1       5.532  26.603  54.862  1.00  0.00    -0.268 OA
BRANCH  12  15
HETATM   15  C   UNL     1       7.545  28.040  56.281  1.00  0.00     0.084 A 
HETATM   16  C   UNL     1       7.411  28.006  57.778  1.00  0.00     0.027 A 
HETATM   17  C   UNL     1       8.647  28.581  57.150  1.00  0.00     0.027 A 
ENDBRANCH  12  15
ENDBRANCH   6  11
ENDBRANCH   2   5
BRANCH   1  18
HETATM   18  C   UNL     1       5.771  27.438  50.880  1.00  0.00     0.144 C 
BRANCH  18  19
HETATM   19  C   UNL     1       4.418  27.880  50.437  1.00  0.00    -0.014 A 
HETATM   20  C   UNL     1       3.725  27.513  49.242  1.00  0.00     0.006 A 
HETATM   21  C   UNL     1       2.465  28.091  49.337  1.00  0.00     0.088 A 
HETATM   22  C   UNL     1       4.016  26.738  48.106  1.00  0.00     0.017 A 
HETATM   23  C   UNL     1       1.446  27.931  48.401  1.00  0.00     0.074 A 
HETATM   24  O   UNL     1       2.368  28.821  50.482  1.00  0.00    -0.321 OA
HETATM   25  C   UNL     1       1.740  27.121  47.301  1.00  0.00     0.070 A 
HETATM   26  C   UNL     1       3.013  26.563  47.142  1.00  0.00     0.038 A 
HETATM   27  C   UNL     1       3.543  28.684  51.143  1.00  0.00     0.151 A 
BRANCH  25  28
HETATM   28  O   UNL     1       0.851  26.833  46.297  1.00  0.00    -0.356 OA
HETATM   29  C   UNL     1      -0.265  27.716  46.207  1.00  0.00     0.210 C 
ENDBRANCH  25  28
ENDBRANCH  18  19
ENDBRANCH   1  18
TORSDOF 6
ENDMDL
MODEL 8
REMARK VINA RESULT:      -7.9      1.569      3.966
REMARK  6 active torsions:
REMARK  status: ('A' for Active; 'I' for Inactive)
REMARK    1  A    between atoms: O_2  and  C_3 
REMARK    2  A    between atoms: C_7  and  C_8 
REMARK    3  A    between atoms: C_8  and  C_9 
REMARK       I    between atoms: C_9  and  N_10 
REMARK    4  A    between atoms: N_10  and  C_11 
REMARK    5  A    between atoms: C_12  and  C_13 
REMARK       I    between atoms: C_13  and  N_14 
REMARK    6  A    between atoms: N_14  and  C_15 
ROOT
HETATM    1  C   UNL     1       6.869  24.913  53.287  1.00  0.00     0.226 C 
HETATM    2  N   UNL     1       8.004  24.122  53.304  1.00  0.00    -0.326 N 
HETATM    3  O   UNL     1       5.727  24.519  53.516  1.00  0.00    -0.273 OA
HETATM    4  H   UNL     1       8.837  24.506  52.865  1.00  0.00     0.169 HD
ENDROOT
BRANCH   2   5
HETATM    5  C   UNL     1       8.124  22.810  53.834  1.00  0.00     0.050 A 
HETATM    6  C   UNL     1       8.049  22.604  55.226  1.00  0.00     0.058 A 
HETATM    7  C   UNL     1       8.022  21.308  55.764  1.00  0.00     0.019 A 
HETATM    8  C   UNL     1       8.106  20.203  54.923  1.00  0.00     0.001 A 
HETATM    9  C   UNL     1       8.217  20.392  53.549  1.00  0.00     0.002 A 
HETATM   10  C   UNL     1       8.222  21.684  53.008  1.00  0.00     0.030 A 
BRANCH   6  11
HETATM   11  C   UNL     1       8.049  23.723  56.200  1.00  0.00     0.254 C 
HETATM   12  N   UNL     1       6.803  24.251  56.474  1.00  0.00    -0.352 N 
HETATM   13  H   UNL     1       6.010  23.932  55.925  1.00  0.00     0.163 HD
HETATM   14  O   UNL     1       9.103  24.127  56.674  1.00  0.00    -0.268 OA
BRANCH  12  15
HETATM   15  C   UNL     1       6.634  25.425  57.268  1.00  0.00     0.084 A 
HETATM   16  C   UNL     1       7.018  26.772  56.722  1.00  0.00     0.027 A 
HETATM   17  C   UNL     1       5.571  26.433  56.927  1.00  0.00     0.027 A 
ENDBRANCH  12  15
ENDBRANCH   6  11
ENDBRANCH   2   5
BRANCH   1  18
HETATM   18  C   UNL     1       7.134  26.390  53.042  1.00  0.00     0.144 C 
BRANCH  18  19
HETATM   19  C   UNL     1       5.990  27.142  52.453  1.00  0.00    -0.014 A 
HETATM   20  C   UNL     1       5.252  28.214  53.043  1.00  0.00     0.006 A 
HETATM   21  C   UNL     1       4.366  28.651  52.066  1.00  0.00     0.088 A 
HETATM   22  C   UNL     1       5.252  28.875  54.283  1.00  0.00     0.017 A 
HETATM   23  C   UNL     1       3.495  29.729  52.210  1.00  0.00     0.074 A 
HETATM   24  O   UNL     1       4.486  27.887  50.946  1.00  0.00    -0.321 OA
HETATM   25  C   UNL     1       3.541  30.401  53.434  1.00  0.00     0.070 A 
HETATM   26  C   UNL     1       4.381  29.960  54.463  1.00  0.00     0.038 A 
HETATM   27  C   UNL     1       5.470  26.986  51.183  1.00  0.00     0.151 A 
BRANCH  25  28
HETATM   28  O   UNL     1       2.775  31.497  53.742  1.00  0.00    -0.356 OA
HETATM   29  C   UNL     1       2.639  31.766  55.136  1.00  0.00     0.210 C 
ENDBRANCH  25  28
ENDBRANCH  18  19
ENDBRANCH   1  18
TORSDOF 6
ENDMDL
MODEL 9
REMARK VINA RESULT:      -7.8      2.430      6.192
REMARK  6 active torsions:
REMARK  status: ('A' for Active; 'I' for Inactive)
REMARK    1  A    between atoms: O_2  and  C_3 
REMARK    2  A    between atoms: C_7  and  C_8 
REMARK    3  A    between atoms: C_8  and  C_9 
REMARK       I    between atoms: C_9  and  N_10 
REMARK    4  A    between atoms: N_10  and  C_11 
REMARK    5  A    between atoms: C_12  and  C_13 
REMARK       I    between atoms: C_13  and  N_14 
REMARK    6  A    between atoms: N_14  and  C_15 
ROOT
HETATM    1  C   UNL     1       5.878  25.554  51.684  1.00  0.00     0.226 C 
HETATM    2  N   UNL     1       5.841  26.408  50.597  1.00  0.00    -0.326 N 
HETATM    3  O   UNL     1       4.908  25.235  52.368  1.00  0.00    -0.273 OA
HETATM    4  H   UNL     1       6.731  26.778  50.275  1.00  0.00     0.169 HD
ENDROOT
BRANCH   2   5
HETATM    5  C   UNL     1       4.687  26.861  49.905  1.00  0.00     0.050 A 
HETATM    6  C   UNL     1       4.235  28.184  50.079  1.00  0.00     0.058 A 
HETATM    7  C   UNL     1       3.186  28.697  49.301  1.00  0.00     0.019 A 
HETATM    8  C   UNL     1       2.551  27.886  48.365  1.00  0.00     0.001 A 
HETATM    9  C   UNL     1       2.963  26.566  48.208  1.00  0.00     0.002 A 
HETATM   10  C   UNL     1       4.024  26.059  48.968  1.00  0.00     0.030 A 
BRANCH   6  11
HETATM   11  C   UNL     1       4.791  29.088  51.116  1.00  0.00     0.254 C 
HETATM   12  N   UNL     1       3.944  29.343  52.175  1.00  0.00    -0.352 N 
HETATM   13  H   UNL     1       2.988  29.005  52.124  1.00  0.00     0.163 HD
HETATM   14  O   UNL     1       5.910  29.566  50.980  1.00  0.00    -0.268 OA
BRANCH  12  15
HETATM   15  C   UNL     1       4.256  30.306  53.182  1.00  0.00     0.084 A 
HETATM   16  C   UNL     1       3.302  30.553  54.317  1.00  0.00     0.027 A 
HETATM   17  C   UNL     1       4.611  29.867  54.576  1.00  0.00     0.027 A 
ENDBRANCH  12  15
ENDBRANCH   6  11
ENDBRANCH   2   5
BRANCH   1  18
HETATM   18  C   UNL     1       7.238  24.928  51.947  1.00  0.00     0.144 C 
BRANCH  18  19
HETATM   19  C   UNL     1       7.535  24.655  53.382  1.00  0.00    -0.014 A 
HETATM   20  C   UNL     1       7.635  25.599  54.450  1.00  0.00     0.006 A 
HETATM   21  C   UNL     1       7.815  24.851  55.607  1.00  0.00     0.088 A 
HETATM   22  C   UNL     1       7.567  26.998  54.568  1.00  0.00     0.017 A 
HETATM   23  C   UNL     1       7.900  25.383  56.891  1.00  0.00     0.074 A 
HETATM   24  O   UNL     1       7.881  23.525  55.304  1.00  0.00    -0.321 OA
HETATM   25  C   UNL     1       7.786  26.773  56.993  1.00  0.00     0.070 A 
HETATM   26  C   UNL     1       7.655  27.566  55.847  1.00  0.00     0.038 A 
HETATM   27  C   UNL     1       7.704  23.414  53.965  1.00  0.00     0.151 A 
BRANCH  25  28
HETATM   28  O   UNL     1       7.821  27.465  58.176  1.00  0.00    -0.356 OA
HETATM   29  C   UNL     1       7.671  28.877  58.054  1.00  0.00     0.210 C 
ENDBRANCH  25  28
ENDBRANCH  18  19
ENDBRANCH   1  18
TORSDOF 6
ENDMDL
MODEL 10
REMARK VINA RESULT:      -7.8      3.594      7.854
REMARK  6 active torsions:
REMARK  status: ('A' for Active; 'I' for Inactive)
REMARK    1  A    between atoms: O_2  and  C_3 
REMARK    2  A    between atoms: C_7  and  C_8 
REMARK    3  A    between atoms: C_8  and  C_9 
REMARK       I    between atoms: C_9  and  N_10 
REMARK    4  A    between atoms: N_10  and  C_11 
REMARK    5  A    between atoms: C_12  and  C_13 
REMARK       I    between atoms: C_13  and  N_14 
REMARK    6  A    between atoms: N_14  and  C_15 
ROOT
HETATM    1  C   UNL     1       7.722  27.728  56.822  1.00  0.00     0.226 C 
HETATM    2  N   UNL     1       7.791  29.092  56.607  1.00  0.00    -0.326 N 
HETATM    3  O   UNL     1       8.392  27.105  57.641  1.00  0.00    -0.273 OA
HETATM    4  H   UNL     1       7.373  29.443  55.749  1.00  0.00     0.169 HD
ENDROOT
BRANCH   2   5
HETATM    5  C   UNL     1       8.420  30.058  57.437  1.00  0.00     0.050 A 
HETATM    6  C   UNL     1       7.641  30.885  58.270  1.00  0.00     0.058 A 
HETATM    7  C   UNL     1       8.243  31.745  59.200  1.00  0.00     0.019 A 
HETATM    8  C   UNL     1       9.630  31.818  59.286  1.00  0.00     0.001 A 
HETATM    9  C   UNL     1      10.412  31.034  58.444  1.00  0.00     0.002 A 
HETATM   10  C   UNL     1       9.814  30.158  57.530  1.00  0.00     0.030 A 
BRANCH   6  11
HETATM   11  C   UNL     1       6.161  30.940  58.181  1.00  0.00     0.254 C 
HETATM   12  N   UNL     1       5.553  31.714  59.150  1.00  0.00    -0.352 N 
HETATM   13  H   UNL     1       6.124  32.087  59.902  1.00  0.00     0.163 HD
HETATM   14  O   UNL     1       5.572  30.307  57.315  1.00  0.00    -0.268 OA
BRANCH  12  15
HETATM   15  C   UNL     1       4.134  31.757  59.306  1.00  0.00     0.084 A 
HETATM   16  C   UNL     1       3.529  32.138  60.629  1.00  0.00     0.027 A 
HETATM   17  C   UNL     1       3.421  33.072  59.459  1.00  0.00     0.027 A 
ENDBRANCH  12  15
ENDBRANCH   6  11
ENDBRANCH   2   5
BRANCH   1  18
HETATM   18  C   UNL     1       6.653  27.015  56.008  1.00  0.00     0.144 C 
BRANCH  18  19
HETATM   19  C   UNL     1       7.161  26.276  54.818  1.00  0.00    -0.014 A 
HETATM   20  C   UNL     1       7.359  24.868  54.682  1.00  0.00     0.006 A 
HETATM   21  C   UNL     1       7.739  24.661  53.361  1.00  0.00     0.088 A 
HETATM   22  C   UNL     1       7.236  23.747  55.520  1.00  0.00     0.017 A 
HETATM   23  C   UNL     1       7.974  23.412  52.789  1.00  0.00     0.074 A 
HETATM   24  O   UNL     1       7.831  25.850  52.706  1.00  0.00    -0.321 OA
HETATM   25  C   UNL     1       7.803  22.307  53.628  1.00  0.00     0.070 A 
HETATM   26  C   UNL     1       7.472  22.476  54.977  1.00  0.00     0.038 A 
HETATM   27  C   UNL     1       7.475  26.817  53.585  1.00  0.00     0.151 A 
BRANCH  25  28
HETATM   28  O   UNL     1       7.966  21.004  53.229  1.00  0.00    -0.356 OA
HETATM   29  C   UNL     1       8.655  20.171  54.160  1.00  0.00     0.210 C 
ENDBRANCH  25  28
ENDBRANCH  18  19
ENDBRANCH   1  18
TORSDOF 6
ENDMDL
