MODEL 1
REMARK VINA RESULT:      -8.9      0.000      0.000
REMARK  1 active torsions:
REMARK  status: ('A' for Active; 'I' for Inactive)
REMARK    1  A    between atoms: C_11  and  N_12 
REMARK       I    between atoms: N_12  and  C_13 
REMARK       I    between atoms: C_13  and  N_14 
ROOT
HETATM    1  N   UNL     1       7.096  24.898  56.197  1.00  0.00    -0.308 N 
HETATM    2  C   UNL     1       6.201  25.933  56.089  1.00  0.00     0.323 C 
HETATM    3  N   UNL     1       6.364  26.943  57.053  1.00  0.00    -0.332 N 
HETATM    4  C   UNL     1       5.360  28.007  57.046  1.00  0.00     0.160 C 
HETATM    5  C   UNL     1       5.805  29.277  56.279  1.00  0.00     0.204 C 
HETATM    6  N   UNL     1       6.472  30.240  57.239  1.00  0.00    -0.069 N 
HETATM    7  H   UNL     1       5.813  30.498  57.987  1.00  0.00     0.277 HD
HETATM    8  H   UNL     1       6.640  31.119  56.728  1.00  0.00     0.277 HD
HETATM    9  C   UNL     1       7.764  29.784  57.836  1.00  0.00     0.239 C 
HETATM   10  C   UNL     1       8.309  28.529  57.152  1.00  0.00     0.029 C 
HETATM   11  C   UNL     1       7.641  27.247  57.699  1.00  0.00     0.134 C 
HETATM   12  C   UNL     1       6.799  29.050  55.136  1.00  0.00     0.035 C 
HETATM   13  C   UNL     1       8.203  28.649  55.623  1.00  0.00     0.010 C 
HETATM   14  O   UNL     1       5.326  26.036  55.235  1.00  0.00    -0.247 OA
HETATM   15  H   UNL     1       7.415  24.729  57.134  1.00  0.00     0.170 HD
ENDROOT
BRANCH   1  16
HETATM   16  C   UNL     1       7.368  23.873  55.248  1.00  0.00     0.049 A 
HETATM   17  C   UNL     1       7.857  22.600  55.700  1.00  0.00     0.021 A 
HETATM   18  C   UNL     1       8.152  21.583  54.754  1.00  0.00     0.090 A 
HETATM   19  C   UNL     1       8.088  22.266  57.060  1.00  0.00     0.017 A 
HETATM   20  N   UNL     1       8.622  20.372  55.131  1.00  0.00    -0.259 NA
HETATM   21  C   UNL     1       7.951  21.863  53.398  1.00  0.00     0.063 A 
HETATM   22  C   UNL     1       8.823  20.106  56.434  1.00  0.00     0.117 A 
HETATM   23  C   UNL     1       8.574  21.017  57.430  1.00  0.00     0.020 A 
HETATM   24 CL   UNL     1       8.286  20.673  52.179  1.00  0.00    -0.082 Cl
HETATM   25  C   UNL     1       7.489  23.102  52.958  1.00  0.00     0.028 A 
HETATM   26  C   UNL     1       7.209  24.102  53.879  1.00  0.00     0.032 A 
ENDBRANCH   1  16
TORSDOF 1
ENDMDL
MODEL 2
REMARK VINA RESULT:      -8.4      7.739     10.771
REMARK  1 active torsions:
REMARK  status: ('A' for Active; 'I' for Inactive)
REMARK    1  A    between atoms: C_11  and  N_12 
REMARK       I    between atoms: N_12  and  C_13 
REMARK       I    between atoms: C_13  and  N_14 
ROOT
HETATM    1  N   UNL     1       7.166  32.833  62.831  1.00  0.00    -0.308 N 
HETATM    2  C   UNL     1       6.028  32.702  63.588  1.00  0.00     0.323 C 
HETATM    3  N   UNL     1       5.787  33.777  64.461  1.00  0.00    -0.332 N 
HETATM    4  C   UNL     1       4.649  33.627  65.368  1.00  0.00     0.160 C 
HETATM    5  C   UNL     1       3.357  34.317  64.865  1.00  0.00     0.204 C 
HETATM    6  N   UNL     1       3.295  35.730  65.406  1.00  0.00    -0.069 N 
HETATM    7  H   UNL     1       3.300  35.709  66.436  1.00  0.00     0.277 HD
HETATM    8  H   UNL     1       2.370  36.115  65.160  1.00  0.00     0.277 HD
HETATM    9  C   UNL     1       4.346  36.670  64.912  1.00  0.00     0.239 C 
HETATM   10  C   UNL     1       5.135  36.093  63.736  1.00  0.00     0.029 C 
HETATM   11  C   UNL     1       6.255  35.142  64.214  1.00  0.00     0.134 C 
HETATM   12  C   UNL     1       3.212  34.430  63.345  1.00  0.00     0.035 C 
HETATM   13  C   UNL     1       4.193  35.435  62.714  1.00  0.00     0.010 C 
HETATM   14  O   UNL     1       5.239  31.764  63.539  1.00  0.00    -0.247 OA
HETATM   15  H   UNL     1       7.892  33.368  63.273  1.00  0.00     0.170 HD
ENDROOT
BRANCH   1  16
HETATM   16  C   UNL     1       7.552  32.071  61.693  1.00  0.00     0.049 A 
HETATM   17  C   UNL     1       6.809  32.193  60.471  1.00  0.00     0.021 A 
HETATM   18  C   UNL     1       7.178  31.416  59.341  1.00  0.00     0.090 A 
HETATM   19  C   UNL     1       5.689  33.048  60.295  1.00  0.00     0.017 A 
HETATM   20  N   UNL     1       6.502  31.491  58.171  1.00  0.00    -0.259 NA
HETATM   21  C   UNL     1       8.269  30.549  59.463  1.00  0.00     0.063 A 
HETATM   22  C   UNL     1       5.448  32.319  58.057  1.00  0.00     0.117 A 
HETATM   23  C   UNL     1       5.004  33.112  59.086  1.00  0.00     0.020 A 
HETATM   24 CL   UNL     1       8.784  29.566  58.128  1.00  0.00    -0.082 Cl
HETATM   25  C   UNL     1       8.982  30.420  60.652  1.00  0.00     0.028 A 
HETATM   26  C   UNL     1       8.619  31.171  61.762  1.00  0.00     0.032 A 
ENDBRANCH   1  16
TORSDOF 1
ENDMDL
MODEL 3
REMARK VINA RESULT:      -8.4      6.281      7.739
REMARK  1 active torsions:
REMARK  status: ('A' for Active; 'I' for Inactive)
REMARK    1  A    between atoms: C_11  and  N_12 
REMARK       I    between atoms: N_12  and  C_13 
REMARK       I    between atoms: C_13  and  N_14 
ROOT
HETATM    1  N   UNL     1       4.722  26.795  50.807  1.00  0.00    -0.308 N 
HETATM    2  C   UNL     1       4.835  27.805  49.885  1.00  0.00     0.323 C 
HETATM    3  N   UNL     1       4.180  27.554  48.668  1.00  0.00    -0.332 N 
HETATM    4  C   UNL     1       4.370  28.552  47.615  1.00  0.00     0.160 C 
HETATM    5  C   UNL     1       3.216  29.581  47.519  1.00  0.00     0.204 C 
HETATM    6  N   UNL     1       2.180  29.087  46.531  1.00  0.00    -0.069 N 
HETATM    7  H   UNL     1       2.613  28.963  45.605  1.00  0.00     0.277 HD
HETATM    8  H   UNL     1       1.495  29.846  46.395  1.00  0.00     0.277 HD
HETATM    9  C   UNL     1       1.442  27.847  46.917  1.00  0.00     0.239 C 
HETATM   10  C   UNL     1       1.686  27.455  48.375  1.00  0.00     0.029 C 
HETATM   11  C   UNL     1       3.012  26.680  48.542  1.00  0.00     0.134 C 
HETATM   12  C   UNL     1       2.466  29.865  48.824  1.00  0.00     0.035 C 
HETATM   13  C   UNL     1       1.598  28.685  49.295  1.00  0.00     0.010 C 
HETATM   14  O   UNL     1       5.424  28.868  50.056  1.00  0.00    -0.247 OA
HETATM   15  H   UNL     1       4.627  25.880  50.403  1.00  0.00     0.170 HD
ENDROOT
BRANCH   1  16
HETATM   16  C   UNL     1       5.036  26.837  52.195  1.00  0.00     0.049 A 
HETATM   17  C   UNL     1       6.069  25.984  52.715  1.00  0.00     0.021 A 
HETATM   18  C   UNL     1       6.368  26.007  54.103  1.00  0.00     0.090 A 
HETATM   19  C   UNL     1       6.834  25.082  51.931  1.00  0.00     0.017 A 
HETATM   20  N   UNL     1       7.325  25.216  54.640  1.00  0.00    -0.259 NA
HETATM   21  C   UNL     1       5.635  26.872  54.923  1.00  0.00     0.063 A 
HETATM   22  C   UNL     1       8.023  24.378  53.852  1.00  0.00     0.117 A 
HETATM   23  C   UNL     1       7.814  24.274  52.499  1.00  0.00     0.020 A 
HETATM   24 CL   UNL     1       5.941  26.959  56.630  1.00  0.00    -0.082 Cl
HETATM   25  C   UNL     1       4.625  27.689  54.422  1.00  0.00     0.028 A 
HETATM   26  C   UNL     1       4.323  27.664  53.067  1.00  0.00     0.032 A 
ENDBRANCH   1  16
TORSDOF 1
ENDMDL
MODEL 4
REMARK VINA RESULT:      -8.4      1.218      2.513
REMARK  1 active torsions:
REMARK  status: ('A' for Active; 'I' for Inactive)
REMARK    1  A    between atoms: C_11  and  N_12 
REMARK       I    between atoms: N_12  and  C_13 
REMARK       I    between atoms: C_13  and  N_14 
ROOT
HETATM    1  N   UNL     1       7.754  25.121  57.065  1.00  0.00    -0.308 N 
HETATM    2  C   UNL     1       6.614  25.881  56.969  1.00  0.00     0.323 C 
HETATM    3  N   UNL     1       6.764  27.206  57.412  1.00  0.00    -0.332 N 
HETATM    4  C   UNL     1       5.547  28.018  57.435  1.00  0.00     0.160 C 
HETATM    5  C   UNL     1       5.376  28.919  56.187  1.00  0.00     0.204 C 
HETATM    6  N   UNL     1       5.999  30.274  56.452  1.00  0.00    -0.069 N 
HETATM    7  H   UNL     1       5.542  30.713  57.263  1.00  0.00     0.277 HD
HETATM    8  H   UNL     1       5.758  30.885  55.658  1.00  0.00     0.277 HD
HETATM    9  C   UNL     1       7.482  30.292  56.633  1.00  0.00     0.239 C 
HETATM   10  C   UNL     1       8.131  28.962  56.246  1.00  0.00     0.029 C 
HETATM   11  C   UNL     1       8.036  27.929  57.391  1.00  0.00     0.134 C 
HETATM   12  C   UNL     1       6.015  28.396  54.897  1.00  0.00     0.035 C 
HETATM   13  C   UNL     1       7.554  28.436  54.921  1.00  0.00     0.010 C 
HETATM   14  O   UNL     1       5.536  25.501  56.524  1.00  0.00    -0.247 OA
HETATM   15  H   UNL     1       8.366  25.394  57.813  1.00  0.00     0.170 HD
ENDROOT
BRANCH   1  16
HETATM   16  C   UNL     1       8.011  23.851  56.477  1.00  0.00     0.049 A 
HETATM   17  C   UNL     1       7.988  23.713  55.047  1.00  0.00     0.021 A 
HETATM   18  C   UNL     1       8.221  22.442  54.459  1.00  0.00     0.090 A 
HETATM   19  C   UNL     1       7.732  24.777  54.143  1.00  0.00     0.017 A 
HETATM   20  N   UNL     1       8.201  22.262  53.118  1.00  0.00    -0.259 NA
HETATM   21  C   UNL     1       8.468  21.356  55.305  1.00  0.00     0.063 A 
HETATM   22  C   UNL     1       7.954  23.304  52.304  1.00  0.00     0.117 A 
HETATM   23  C   UNL     1       7.713  24.574  52.767  1.00  0.00     0.020 A 
HETATM   24 CL   UNL     1       8.764  19.770  54.664  1.00  0.00    -0.082 Cl
HETATM   25  C   UNL     1       8.478  21.487  56.692  1.00  0.00     0.028 A 
HETATM   26  C   UNL     1       8.242  22.725  57.272  1.00  0.00     0.032 A 
ENDBRANCH   1  16
TORSDOF 1
ENDMDL
MODEL 5
REMARK VINA RESULT:      -8.2      4.174      7.420
REMARK  1 active torsions:
REMARK  status: ('A' for Active; 'I' for Inactive)
REMARK    1  A    between atoms: C_11  and  N_12 
REMARK       I    between atoms: N_12  and  C_13 
REMARK       I    between atoms: C_13  and  N_14 
ROOT
HETATM    1  N   UNL     1       6.514  29.196  55.195  1.00  0.00    -0.308 N 
HETATM    2  C   UNL     1       5.622  28.166  55.028  1.00  0.00     0.323 C 
HETATM    3  N   UNL     1       5.719  27.512  53.788  1.00  0.00    -0.332 N 
HETATM    4  C   UNL     1       4.713  26.483  53.521  1.00  0.00     0.160 C 
HETATM    5  C   UNL     1       5.201  25.044  53.822  1.00  0.00     0.204 C 
HETATM    6  N   UNL     1       5.801  24.441  52.570  1.00  0.00    -0.069 N 
HETATM    7  H   UNL     1       5.095  24.420  51.821  1.00  0.00     0.277 HD
HETATM    8  H   UNL     1       5.997  23.449  52.768  1.00  0.00     0.277 HD
HETATM    9  C   UNL     1       7.055  25.081  52.068  1.00  0.00     0.239 C 
HETATM   10  C   UNL     1       7.648  26.067  53.076  1.00  0.00     0.029 C 
HETATM   11  C   UNL     1       6.952  27.445  53.002  1.00  0.00     0.134 C 
HETATM   12  C   UNL     1       6.266  24.917  54.916  1.00  0.00     0.035 C 
HETATM   13  C   UNL     1       7.638  25.472  54.494  1.00  0.00     0.010 C 
HETATM   14  O   UNL     1       4.803  27.786  55.859  1.00  0.00    -0.247 OA
HETATM   15  H   UNL     1       6.773  29.656  54.340  1.00  0.00     0.170 HD
ENDROOT
BRANCH   1  16
HETATM   16  C   UNL     1       6.850  29.876  56.399  1.00  0.00     0.049 A 
HETATM   17  C   UNL     1       8.223  29.953  56.812  1.00  0.00     0.021 A 
HETATM   18  C   UNL     1       8.559  30.610  58.024  1.00  0.00     0.090 A 
HETATM   19  C   UNL     1       9.310  29.396  56.088  1.00  0.00     0.017 A 
HETATM   20  N   UNL     1       9.837  30.700  58.459  1.00  0.00    -0.259 NA
HETATM   21  C   UNL     1       7.523  31.168  58.783  1.00  0.00     0.063 A 
HETATM   22  C   UNL     1      10.831  30.156  57.734  1.00  0.00     0.117 A 
HETATM   23  C   UNL     1      10.618  29.495  56.549  1.00  0.00     0.020 A 
HETATM   24 CL   UNL     1       7.851  31.990  60.276  1.00  0.00    -0.082 Cl
HETATM   25  C   UNL     1       6.190  31.083  58.389  1.00  0.00     0.028 A 
HETATM   26  C   UNL     1       5.856  30.434  57.209  1.00  0.00     0.032 A 
ENDBRANCH   1  16
TORSDOF 1
ENDMDL
MODEL 6
REMARK VINA RESULT:      -8.1      4.276      5.433
REMARK  1 active torsions:
REMARK  status: ('A' for Active; 'I' for Inactive)
REMARK    1  A    between atoms: C_11  and  N_12 
REMARK       I    between atoms: N_12  and  C_13 
REMARK       I    between atoms: C_13  and  N_14 
ROOT
HETATM    1  N   UNL     1       6.372  27.279  52.759  1.00  0.00    -0.308 N 
HETATM    2  C   UNL     1       5.052  27.513  52.464  1.00  0.00     0.323 C 
HETATM    3  N   UNL     1       4.807  28.755  51.853  1.00  0.00    -0.332 N 
HETATM    4  C   UNL     1       3.403  29.095  51.625  1.00  0.00     0.160 C 
HETATM    5  C   UNL     1       2.913  28.787  50.189  1.00  0.00     0.204 C 
HETATM    6  N   UNL     1       3.102  30.011  49.317  1.00  0.00    -0.069 N 
HETATM    7  H   UNL     1       2.567  30.800  49.705  1.00  0.00     0.277 HD
HETATM    8  H   UNL     1       2.653  29.816  48.409  1.00  0.00     0.277 HD
HETATM    9  C   UNL     1       4.515  30.428  49.067  1.00  0.00     0.239 C 
HETATM   10  C   UNL     1       5.522  29.372  49.525  1.00  0.00     0.029 C 
HETATM   11  C   UNL     1       5.796  29.468  51.043  1.00  0.00     0.134 C 
HETATM   12  C   UNL     1       3.626  27.635  49.475  1.00  0.00     0.035 C 
HETATM   13  C   UNL     1       5.079  27.966  49.088  1.00  0.00     0.010 C 
HETATM   14  O   UNL     1       4.124  26.738  52.670  1.00  0.00    -0.247 OA
HETATM   15  H   UNL     1       6.902  28.109  52.952  1.00  0.00     0.170 HD
ENDROOT
BRANCH   1  16
HETATM   16  C   UNL     1       6.980  26.047  53.131  1.00  0.00     0.049 A 
HETATM   17  C   UNL     1       7.323  25.812  54.506  1.00  0.00     0.021 A 
HETATM   18  C   UNL     1       7.952  24.594  54.877  1.00  0.00     0.090 A 
HETATM   19  C   UNL     1       7.087  26.733  55.560  1.00  0.00     0.017 A 
HETATM   20  N   UNL     1       8.301  24.331  56.157  1.00  0.00    -0.259 NA
HETATM   21  C   UNL     1       8.217  23.655  53.874  1.00  0.00     0.063 A 
HETATM   22  C   UNL     1       8.054  25.238  57.119  1.00  0.00     0.117 A 
HETATM   23  C   UNL     1       7.454  26.448  56.871  1.00  0.00     0.020 A 
HETATM   24 CL   UNL     1       8.981  22.141  54.245  1.00  0.00    -0.082 Cl
HETATM   25  C   UNL     1       7.896  23.888  52.539  1.00  0.00     0.028 A 
HETATM   26  C   UNL     1       7.290  25.080  52.171  1.00  0.00     0.032 A 
ENDBRANCH   1  16
TORSDOF 1
ENDMDL
MODEL 7
REMARK VINA RESULT:      -8.0      4.707      6.299
REMARK  1 active torsions:
REMARK  status: ('A' for Active; 'I' for Inactive)
REMARK    1  A    between atoms: C_11  and  N_12 
REMARK       I    between atoms: N_12  and  C_13 
REMARK       I    between atoms: C_13  and  N_14 
ROOT
HETATM    1  N   UNL     1       5.943  28.749  53.147  1.00  0.00    -0.308 N 
HETATM    2  C   UNL     1       4.688  28.757  52.590  1.00  0.00     0.323 C 
HETATM    3  N   UNL     1       4.557  29.597  51.471  1.00  0.00    -0.332 N 
HETATM    4  C   UNL     1       3.209  29.724  50.916  1.00  0.00     0.160 C 
HETATM    5  C   UNL     1       2.946  28.799  49.703  1.00  0.00     0.204 C 
HETATM    6  N   UNL     1       3.283  29.535  48.423  1.00  0.00    -0.069 N 
HETATM    7  H   UNL     1       2.704  30.382  48.346  1.00  0.00     0.277 HD
HETATM    8  H   UNL     1       2.979  28.942  47.636  1.00  0.00     0.277 HD
HETATM    9  C   UNL     1       4.723  29.884  48.225  1.00  0.00     0.239 C 
HETATM   10  C   UNL     1       5.634  29.189  49.238  1.00  0.00     0.029 C 
HETATM   11  C   UNL     1       5.668  29.946  50.585  1.00  0.00     0.134 C 
HETATM   12  C   UNL     1       3.748  27.494  49.674  1.00  0.00     0.035 C 
HETATM   13  C   UNL     1       5.247  27.709  49.398  1.00  0.00     0.010 C 
HETATM   14  O   UNL     1       3.730  28.095  52.976  1.00  0.00    -0.247 OA
HETATM   15  H   UNL     1       6.447  29.611  53.033  1.00  0.00     0.170 HD
ENDROOT
BRANCH   1  16
HETATM   16  C   UNL     1       6.471  27.836  54.102  1.00  0.00     0.049 A 
HETATM   17  C   UNL     1       6.982  26.567  53.665  1.00  0.00     0.021 A 
HETATM   18  C   UNL     1       7.487  25.645  54.618  1.00  0.00     0.090 A 
HETATM   19  C   UNL     1       7.014  26.139  52.312  1.00  0.00     0.017 A 
HETATM   20  N   UNL     1       7.970  24.434  54.255  1.00  0.00    -0.259 NA
HETATM   21  C   UNL     1       7.470  26.013  55.968  1.00  0.00     0.063 A 
HETATM   22  C   UNL     1       7.979  24.077  52.958  1.00  0.00     0.117 A 
HETATM   23  C   UNL     1       7.512  24.891  51.955  1.00  0.00     0.020 A 
HETATM   24 CL   UNL     1       8.071  24.942  57.195  1.00  0.00    -0.082 Cl
HETATM   25  C   UNL     1       6.963  27.238  56.394  1.00  0.00     0.028 A 
HETATM   26  C   UNL     1       6.459  28.139  55.467  1.00  0.00     0.032 A 
ENDBRANCH   1  16
TORSDOF 1
ENDMDL
MODEL 8
REMARK VINA RESULT:      -8.0      4.176      8.133
REMARK  1 active torsions:
REMARK  status: ('A' for Active; 'I' for Inactive)
REMARK    1  A    between atoms: C_11  and  N_12 
REMARK       I    between atoms: N_12  and  C_13 
REMARK       I    between atoms: C_13  and  N_14 
ROOT
HETATM    1  N   UNL     1       6.697  29.180  55.480  1.00  0.00    -0.308 N 
HETATM    2  C   UNL     1       5.727  28.262  55.164  1.00  0.00     0.323 C 
HETATM    3  N   UNL     1       5.879  27.671  53.897  1.00  0.00    -0.332 N 
HETATM    4  C   UNL     1       4.806  26.772  53.472  1.00  0.00     0.160 C 
HETATM    5  C   UNL     1       5.114  25.275  53.721  1.00  0.00     0.204 C 
HETATM    6  N   UNL     1       5.771  24.683  52.492  1.00  0.00    -0.069 N 
HETATM    7  H   UNL     1       5.143  24.779  51.682  1.00  0.00     0.277 HD
HETATM    8  H   UNL     1       5.846  23.666  52.641  1.00  0.00     0.277 HD
HETATM    9  C   UNL     1       7.126  25.214  52.151  1.00  0.00     0.239 C 
HETATM   10  C   UNL     1       7.713  26.072  53.272  1.00  0.00     0.029 C 
HETATM   11  C   UNL     1       7.170  27.518  53.225  1.00  0.00     0.134 C 
HETATM   12  C   UNL     1       6.048  24.974  54.897  1.00  0.00     0.035 C 
HETATM   13  C   UNL     1       7.505  25.403  54.641  1.00  0.00     0.010 C 
HETATM   14  O   UNL     1       4.796  27.925  55.889  1.00  0.00    -0.247 OA
HETATM   15  H   UNL     1       7.084  29.657  54.685  1.00  0.00     0.170 HD
ENDROOT
BRANCH   1  16
HETATM   16  C   UNL     1       6.979  29.752  56.752  1.00  0.00     0.049 A 
HETATM   17  C   UNL     1       6.285  30.939  57.166  1.00  0.00     0.021 A 
HETATM   18  C   UNL     1       6.582  31.526  58.424  1.00  0.00     0.090 A 
HETATM   19  C   UNL     1       5.299  31.604  56.390  1.00  0.00     0.017 A 
HETATM   20  N   UNL     1       5.960  32.648  58.854  1.00  0.00    -0.259 NA
HETATM   21  C   UNL     1       7.554  30.917  59.226  1.00  0.00     0.063 A 
HETATM   22  C   UNL     1       5.032  33.239  58.080  1.00  0.00     0.117 A 
HETATM   23  C   UNL     1       4.670  32.758  56.846  1.00  0.00     0.020 A 
HETATM   24 CL   UNL     1       7.974  31.571  60.777  1.00  0.00    -0.082 Cl
HETATM   25  C   UNL     1       8.237  29.773  58.818  1.00  0.00     0.028 A 
HETATM   26  C   UNL     1       7.957  29.201  57.585  1.00  0.00     0.032 A 
ENDBRANCH   1  16
TORSDOF 1
ENDMDL
MODEL 9
REMARK VINA RESULT:      -8.0      6.411      8.262
REMARK  1 active torsions:
REMARK  status: ('A' for Active; 'I' for Inactive)
REMARK    1  A    between atoms: C_11  and  N_12 
REMARK       I    between atoms: N_12  and  C_13 
REMARK       I    between atoms: C_13  and  N_14 
ROOT
HETATM    1  N   UNL     1       5.118  26.361  50.069  1.00  0.00    -0.308 N 
HETATM    2  C   UNL     1       5.119  27.462  49.249  1.00  0.00     0.323 C 
HETATM    3  N   UNL     1       4.249  27.365  48.149  1.00  0.00    -0.332 N 
HETATM    4  C   UNL     1       4.302  28.466  47.187  1.00  0.00     0.160 C 
HETATM    5  C   UNL     1       3.202  29.535  47.404  1.00  0.00     0.204 C 
HETATM    6  N   UNL     1       1.985  29.184  46.573  1.00  0.00    -0.069 N 
HETATM    7  H   UNL     1       2.243  29.148  45.577  1.00  0.00     0.277 HD
HETATM    8  H   UNL     1       1.327  29.975  46.640  1.00  0.00     0.277 HD
HETATM    9  C   UNL     1       1.265  27.933  46.957  1.00  0.00     0.239 C 
HETATM   10  C   UNL     1       1.741  27.378  48.301  1.00  0.00     0.029 C 
HETATM   11  C   UNL     1       3.035  26.547  48.147  1.00  0.00     0.134 C 
HETATM   12  C   UNL     1       2.708  29.699  48.844  1.00  0.00     0.035 C 
HETATM   13  C   UNL     1       1.877  28.502  49.341  1.00  0.00     0.010 C 
HETATM   14  O   UNL     1       5.781  28.481  49.418  1.00  0.00    -0.247 OA
HETATM   15  H   UNL     1       4.908  25.500  49.598  1.00  0.00     0.170 HD
ENDROOT
BRANCH   1  16
HETATM   16  C   UNL     1       5.672  26.242  51.374  1.00  0.00     0.049 A 
HETATM   17  C   UNL     1       5.130  27.025  52.450  1.00  0.00     0.021 A 
HETATM   18  C   UNL     1       5.696  26.926  53.748  1.00  0.00     0.090 A 
HETATM   19  C   UNL     1       4.045  27.930  52.315  1.00  0.00     0.017 A 
HETATM   20  N   UNL     1       5.225  27.650  54.790  1.00  0.00    -0.259 NA
HETATM   21  C   UNL     1       6.776  26.056  53.934  1.00  0.00     0.063 A 
HETATM   22  C   UNL     1       4.192  28.493  54.608  1.00  0.00     0.117 A 
HETATM   23  C   UNL     1       3.574  28.668  53.395  1.00  0.00     0.020 A 
HETATM   24 CL   UNL     1       7.522  25.877  55.491  1.00  0.00    -0.082 Cl
HETATM   25  C   UNL     1       7.310  25.306  52.889  1.00  0.00     0.028 A 
HETATM   26  C   UNL     1       6.766  25.407  51.616  1.00  0.00     0.032 A 
ENDBRANCH   1  16
TORSDOF 1
ENDMDL
MODEL 10
REMARK VINA RESULT:      -7.9      3.046      4.283
REMARK  1 active torsions:
REMARK  status: ('A' for Active; 'I' for Inactive)
REMARK    1  A    between atoms: C_11  and  N_12 
REMARK       I    between atoms: N_12  and  C_13 
REMARK       I    between atoms: C_13  and  N_14 
ROOT
HETATM    1  N   UNL     1       7.789  25.249  53.924  1.00  0.00    -0.308 N 
HETATM    2  C   UNL     1       7.243  26.501  54.060  1.00  0.00     0.323 C 
HETATM    3  N   UNL     1       6.903  27.119  52.845  1.00  0.00    -0.332 N 
HETATM    4  C   UNL     1       6.425  28.499  52.936  1.00  0.00     0.160 C 
HETATM    5  C   UNL     1       4.882  28.625  52.925  1.00  0.00     0.204 C 
HETATM    6  N   UNL     1       4.399  28.805  51.501  1.00  0.00    -0.069 N 
HETATM    7  H   UNL     1       4.820  29.653  51.096  1.00  0.00     0.277 HD
HETATM    8  H   UNL     1       3.390  29.011  51.541  1.00  0.00     0.277 HD
HETATM    9  C   UNL     1       4.610  27.644  50.584  1.00  0.00     0.239 C 
HETATM   10  C   UNL     1       5.037  26.381  51.333  1.00  0.00     0.029 C 
HETATM   11  C   UNL     1       6.554  26.381  51.630  1.00  0.00     0.134 C 
HETATM   12  C   UNL     1       4.113  27.428  53.494  1.00  0.00     0.035 C 
HETATM   13  C   UNL     1       4.184  26.179  52.597  1.00  0.00     0.010 C 
HETATM   14  O   UNL     1       7.026  27.075  55.122  1.00  0.00    -0.247 OA
HETATM   15  H   UNL     1       8.297  25.114  53.068  1.00  0.00     0.170 HD
ENDROOT
BRANCH   1  16
HETATM   16  C   UNL     1       7.996  24.269  54.935  1.00  0.00     0.049 A 
HETATM   17  C   UNL     1       8.103  22.884  54.571  1.00  0.00     0.021 A 
HETATM   18  C   UNL     1       8.285  21.902  55.580  1.00  0.00     0.090 A 
HETATM   19  C   UNL     1       8.026  22.397  53.240  1.00  0.00     0.017 A 
HETATM   20  N   UNL     1       8.382  20.585  55.286  1.00  0.00    -0.259 NA
HETATM   21  C   UNL     1       8.357  22.327  56.911  1.00  0.00     0.063 A 
HETATM   22  C   UNL     1       8.305  20.176  54.006  1.00  0.00     0.117 A 
HETATM   23  C   UNL     1       8.126  21.039  52.954  1.00  0.00     0.020 A 
HETATM   24 CL   UNL     1       8.581  21.190  58.203  1.00  0.00    -0.082 Cl
HETATM   25  C   UNL     1       8.241  23.669  57.266  1.00  0.00     0.028 A 
HETATM   26  C   UNL     1       8.053  24.631  56.284  1.00  0.00     0.032 A 
ENDBRANCH   1  16
TORSDOF 1
ENDMDL
