MODEL 1
REMARK VINA RESULT:      -9.2      0.000      0.000
REMARK  7 active torsions:
REMARK  status: ('A' for Active; 'I' for Inactive)
REMARK    1  A    between atoms: C_2  and  N_3 
REMARK    2  A    between atoms: N_3  and  N_4 
REMARK       I    between atoms: N_4  and  C_5 
REMARK    3  A    between atoms: C_5  and  C_6 
REMARK    4  A    between atoms: C_6  and  C_7 
REMARK    5  A    between atoms: C_7  and  C_8 
REMARK    6  A    between atoms: C_8  and  N_9 
REMARK       I    between atoms: N_9  and  C_10 
REMARK       I    between atoms: C_10  and  N_11 
REMARK    7  A    between atoms: N_11  and  C_12 
ROOT
HETATM    1  C   UNL     1       7.469  22.771  55.367  1.00  0.00     0.068 A 
HETATM    2  C   UNL     1       7.028  24.088  55.439  1.00  0.00     0.124 A 
HETATM    3  N   UNL     1       6.886  24.850  54.340  1.00  0.00    -0.223 NA
HETATM    4  C   UNL     1       7.213  24.307  53.152  1.00  0.00     0.129 A 
HETATM    5 CL   UNL     1       7.002  25.348  51.807  1.00  0.00    -0.062 Cl
HETATM    6  C   UNL     1       7.676  23.020  52.980  1.00  0.00     0.067 A 
HETATM    7  C   UNL     1       7.804  22.238  54.121  1.00  0.00     0.051 A 
HETATM    8  C   UNL     1       8.272  20.889  54.021  1.00  0.00     0.099 C 
HETATM    9  N   UNL     1       8.653  19.797  53.936  1.00  0.00    -0.191 NA
ENDROOT
BRANCH   2  10
HETATM   10  N   UNL     1       6.626  24.667  56.662  1.00  0.00    -0.186 NA
HETATM   11  H   UNL     1       5.820  24.105  56.974  1.00  0.00     0.154 HD
BRANCH  10  12
HETATM   12  N   UNL     1       6.302  26.041  56.564  1.00  0.00    -0.286 N 
HETATM   13  C   UNL     1       7.126  26.908  57.263  1.00  0.00     0.232 C 
HETATM   14  O   UNL     1       7.947  26.536  58.098  1.00  0.00    -0.272 OA
HETATM   15  H   UNL     1       5.945  26.327  55.655  1.00  0.00     0.184 HD
BRANCH  13  16
HETATM   16  C   UNL     1       6.966  28.362  56.878  1.00  0.00     0.106 C 
BRANCH  16  17
HETATM   17  C   UNL     1       8.245  28.949  56.289  1.00  0.00     0.029 C 
BRANCH  17  18
HETATM   18  C   UNL     1       9.056  29.672  57.360  1.00  0.00     0.125 C 
BRANCH  18  19
HETATM   19  N   UNL     1       8.312  29.810  58.595  1.00  0.00    -0.343 N 
HETATM   20  C   UNL     1       8.310  30.991  59.297  1.00  0.00     0.316 C 
HETATM   21  N   UNL     1       7.518  30.889  60.412  1.00  0.00    -0.339 N 
HETATM   22  O   UNL     1       8.937  31.983  58.959  1.00  0.00    -0.248 OA
HETATM   23  H   UNL     1       7.401  29.946  60.749  1.00  0.00     0.164 HD
HETATM   24  H   UNL     1       7.514  29.209  58.731  1.00  0.00     0.164 HD
BRANCH  21  25
HETATM   25  C   UNL     1       7.388  31.936  61.419  1.00  0.00     0.086 C 
HETATM   26  C   UNL     1       8.166  31.644  62.708  1.00  0.00     0.025 C 
HETATM   27  C   UNL     1       8.052  32.805  63.695  1.00  0.00     0.002 C 
HETATM   28  C   UNL     1       6.595  33.160  63.985  1.00  0.00     0.000 C 
HETATM   29  C   UNL     1       5.815  33.439  62.703  1.00  0.00     0.002 C 
HETATM   30  C   UNL     1       5.922  32.280  61.714  1.00  0.00     0.025 C 
ENDBRANCH  21  25
ENDBRANCH  18  19
ENDBRANCH  17  18
ENDBRANCH  16  17
ENDBRANCH  13  16
ENDBRANCH  10  12
ENDBRANCH   2  10
TORSDOF 7
ENDMDL
MODEL 2
REMARK VINA RESULT:      -8.9      1.418      2.241
REMARK  7 active torsions:
REMARK  status: ('A' for Active; 'I' for Inactive)
REMARK    1  A    between atoms: C_2  and  N_3 
REMARK    2  A    between atoms: N_3  and  N_4 
REMARK       I    between atoms: N_4  and  C_5 
REMARK    3  A    between atoms: C_5  and  C_6 
REMARK    4  A    between atoms: C_6  and  C_7 
REMARK    5  A    between atoms: C_7  and  C_8 
REMARK    6  A    between atoms: C_8  and  N_9 
REMARK       I    between atoms: N_9  and  C_10 
REMARK       I    between atoms: C_10  and  N_11 
REMARK    7  A    between atoms: N_11  and  C_12 
ROOT
HETATM    1  C   UNL     1       6.310  24.786  54.621  1.00  0.00     0.068 A 
HETATM    2  C   UNL     1       6.876  24.017  55.632  1.00  0.00     0.124 A 
HETATM    3  N   UNL     1       7.650  22.950  55.362  1.00  0.00    -0.223 NA
HETATM    4  C   UNL     1       7.844  22.624  54.070  1.00  0.00     0.129 A 
HETATM    5 CL   UNL     1       8.842  21.253  53.820  1.00  0.00    -0.062 Cl
HETATM    6  C   UNL     1       7.312  23.312  53.001  1.00  0.00     0.067 A 
HETATM    7  C   UNL     1       6.527  24.421  53.291  1.00  0.00     0.051 A 
HETATM    8  C   UNL     1       5.946  25.189  52.232  1.00  0.00     0.099 C 
HETATM    9  N   UNL     1       5.476  25.808  51.373  1.00  0.00    -0.191 NA
ENDROOT
BRANCH   2  10
HETATM   10  N   UNL     1       6.736  24.365  56.992  1.00  0.00    -0.186 NA
HETATM   11  H   UNL     1       6.017  23.724  57.361  1.00  0.00     0.154 HD
BRANCH  10  12
HETATM   12  N   UNL     1       6.390  25.721  57.202  1.00  0.00    -0.286 N 
HETATM   13  C   UNL     1       7.440  26.574  57.499  1.00  0.00     0.232 C 
HETATM   14  O   UNL     1       8.567  26.184  57.790  1.00  0.00    -0.272 OA
HETATM   15  H   UNL     1       5.632  26.059  56.613  1.00  0.00     0.184 HD
BRANCH  13  16
HETATM   16  C   UNL     1       7.097  28.043  57.388  1.00  0.00     0.106 C 
BRANCH  16  17
HETATM   17  C   UNL     1       8.145  28.826  56.603  1.00  0.00     0.029 C 
BRANCH  17  18
HETATM   18  C   UNL     1       8.958  29.725  57.530  1.00  0.00     0.125 C 
BRANCH  18  19
HETATM   19  N   UNL     1       8.301  29.916  58.806  1.00  0.00    -0.343 N 
HETATM   20  C   UNL     1       8.330  31.130  59.448  1.00  0.00     0.316 C 
HETATM   21  N   UNL     1       7.620  31.074  60.620  1.00  0.00    -0.339 N 
HETATM   22  O   UNL     1       8.916  32.112  59.018  1.00  0.00    -0.248 OA
HETATM   23  H   UNL     1       7.542  30.148  61.011  1.00  0.00     0.164 HD
HETATM   24  H   UNL     1       7.524  29.312  59.028  1.00  0.00     0.164 HD
BRANCH  21  25
HETATM   25  C   UNL     1       7.545  32.168  61.581  1.00  0.00     0.086 C 
HETATM   26  C   UNL     1       7.973  31.767  62.999  1.00  0.00     0.025 C 
HETATM   27  C   UNL     1       7.943  32.968  63.944  1.00  0.00     0.002 C 
HETATM   28  C   UNL     1       6.580  33.657  63.940  1.00  0.00     0.000 C 
HETATM   29  C   UNL     1       6.146  34.046  62.529  1.00  0.00     0.002 C 
HETATM   30  C   UNL     1       6.170  32.849  61.581  1.00  0.00     0.025 C 
ENDBRANCH  21  25
ENDBRANCH  18  19
ENDBRANCH  17  18
ENDBRANCH  16  17
ENDBRANCH  13  16
ENDBRANCH  10  12
ENDBRANCH   2  10
TORSDOF 7
ENDMDL
MODEL 3
REMARK VINA RESULT:      -8.8      2.824     10.685
REMARK  7 active torsions:
REMARK  status: ('A' for Active; 'I' for Inactive)
REMARK    1  A    between atoms: C_2  and  N_3 
REMARK    2  A    between atoms: N_3  and  N_4 
REMARK       I    between atoms: N_4  and  C_5 
REMARK    3  A    between atoms: C_5  and  C_6 
REMARK    4  A    between atoms: C_6  and  C_7 
REMARK    5  A    between atoms: C_7  and  C_8 
REMARK    6  A    between atoms: C_8  and  N_9 
REMARK       I    between atoms: N_9  and  C_10 
REMARK       I    between atoms: C_10  and  N_11 
REMARK    7  A    between atoms: N_11  and  C_12 
ROOT
HETATM    1  C   UNL     1       7.889  31.722  62.210  1.00  0.00     0.068 A 
HETATM    2  C   UNL     1       7.737  31.315  60.888  1.00  0.00     0.124 A 
HETATM    3  N   UNL     1       6.820  31.871  60.076  1.00  0.00    -0.223 NA
HETATM    4  C   UNL     1       6.023  32.827  60.590  1.00  0.00     0.129 A 
HETATM    5 CL   UNL     1       4.885  33.479  59.486  1.00  0.00    -0.062 Cl
HETATM    6  C   UNL     1       6.084  33.283  61.889  1.00  0.00     0.067 A 
HETATM    7  C   UNL     1       7.045  32.712  62.714  1.00  0.00     0.051 A 
HETATM    8  C   UNL     1       7.174  33.140  64.073  1.00  0.00     0.099 C 
HETATM    9  N   UNL     1       7.274  33.488  65.174  1.00  0.00    -0.191 NA
ENDROOT
BRANCH   2  10
HETATM   10  N   UNL     1       8.592  30.355  60.307  1.00  0.00    -0.186 NA
HETATM   11  H   UNL     1       9.393  30.893  59.943  1.00  0.00     0.154 HD
BRANCH  10  12
HETATM   12  N   UNL     1       7.977  29.581  59.294  1.00  0.00    -0.286 N 
HETATM   13  C   UNL     1       8.730  29.372  58.150  1.00  0.00     0.232 C 
HETATM   14  O   UNL     1       9.766  29.984  57.902  1.00  0.00    -0.272 OA
HETATM   15  H   UNL     1       7.386  28.827  59.639  1.00  0.00     0.184 HD
BRANCH  13  16
HETATM   16  C   UNL     1       8.196  28.285  57.244  1.00  0.00     0.106 C 
BRANCH  16  17
HETATM   17  C   UNL     1       6.713  28.465  56.935  1.00  0.00     0.029 C 
BRANCH  17  18
HETATM   18  C   UNL     1       6.355  27.829  55.594  1.00  0.00     0.125 C 
BRANCH  18  19
HETATM   19  N   UNL     1       7.234  26.723  55.275  1.00  0.00    -0.343 N 
HETATM   20  C   UNL     1       6.740  25.458  55.070  1.00  0.00     0.316 C 
HETATM   21  N   UNL     1       7.753  24.588  54.756  1.00  0.00    -0.339 N 
HETATM   22  O   UNL     1       5.557  25.167  55.163  1.00  0.00    -0.248 OA
HETATM   23  H   UNL     1       8.659  24.872  55.095  1.00  0.00     0.164 HD
HETATM   24  H   UNL     1       8.113  26.936  54.829  1.00  0.00     0.164 HD
BRANCH  21  25
HETATM   25  C   UNL     1       7.571  23.152  54.582  1.00  0.00     0.086 C 
HETATM   26  C   UNL     1       7.995  22.329  55.805  1.00  0.00     0.025 C 
HETATM   27  C   UNL     1       7.714  20.842  55.593  1.00  0.00     0.002 C 
HETATM   28  C   UNL     1       8.362  20.321  54.312  1.00  0.00     0.000 C 
HETATM   29  C   UNL     1       7.951  21.146  53.094  1.00  0.00     0.002 C 
HETATM   30  C   UNL     1       8.233  22.633  53.299  1.00  0.00     0.025 C 
ENDBRANCH  21  25
ENDBRANCH  18  19
ENDBRANCH  17  18
ENDBRANCH  16  17
ENDBRANCH  13  16
ENDBRANCH  10  12
ENDBRANCH   2  10
TORSDOF 7
ENDMDL
MODEL 4
REMARK VINA RESULT:      -8.7      4.138      8.760
REMARK  7 active torsions:
REMARK  status: ('A' for Active; 'I' for Inactive)
REMARK    1  A    between atoms: C_2  and  N_3 
REMARK    2  A    between atoms: N_3  and  N_4 
REMARK       I    between atoms: N_4  and  C_5 
REMARK    3  A    between atoms: C_5  and  C_6 
REMARK    4  A    between atoms: C_6  and  C_7 
REMARK    5  A    between atoms: C_7  and  C_8 
REMARK    6  A    between atoms: C_8  and  N_9 
REMARK       I    between atoms: N_9  and  C_10 
REMARK       I    between atoms: C_10  and  N_11 
REMARK    7  A    between atoms: N_11  and  C_12 
ROOT
HETATM    1  C   UNL     1       5.971  27.235  56.897  1.00  0.00     0.068 A 
HETATM    2  C   UNL     1       5.156  28.359  56.816  1.00  0.00     0.124 A 
HETATM    3  N   UNL     1       5.557  29.560  57.269  1.00  0.00    -0.223 NA
HETATM    4  C   UNL     1       6.776  29.644  57.835  1.00  0.00     0.129 A 
HETATM    5 CL   UNL     1       7.204  31.210  58.383  1.00  0.00    -0.062 Cl
HETATM    6  C   UNL     1       7.648  28.585  57.978  1.00  0.00     0.067 A 
HETATM    7  C   UNL     1       7.228  27.353  57.492  1.00  0.00     0.051 A 
HETATM    8  C   UNL     1       8.082  26.209  57.598  1.00  0.00     0.099 C 
HETATM    9  N   UNL     1       8.775  25.285  57.687  1.00  0.00    -0.191 NA
ENDROOT
BRANCH   2  10
HETATM   10  N   UNL     1       3.897  28.315  56.180  1.00  0.00    -0.186 NA
HETATM   11  H   UNL     1       3.295  27.766  56.812  1.00  0.00     0.154 HD
BRANCH  10  12
HETATM   12  N   UNL     1       3.934  27.762  54.878  1.00  0.00    -0.286 N 
HETATM   13  C   UNL     1       4.028  28.671  53.837  1.00  0.00     0.232 C 
HETATM   14  O   UNL     1       3.865  29.881  53.979  1.00  0.00    -0.272 OA
HETATM   15  H   UNL     1       4.437  26.880  54.808  1.00  0.00     0.184 HD
BRANCH  13  16
HETATM   16  C   UNL     1       4.399  28.056  52.506  1.00  0.00     0.106 C 
BRANCH  16  17
HETATM   17  C   UNL     1       5.888  28.184  52.202  1.00  0.00     0.029 C 
BRANCH  17  18
HETATM   18  C   UNL     1       6.723  27.903  53.448  1.00  0.00     0.125 C 
BRANCH  18  19
HETATM   19  N   UNL     1       7.470  26.668  53.326  1.00  0.00    -0.343 N 
HETATM   20  C   UNL     1       6.931  25.468  53.722  1.00  0.00     0.316 C 
HETATM   21  N   UNL     1       7.810  24.442  53.486  1.00  0.00    -0.339 N 
HETATM   22  O   UNL     1       5.820  25.353  54.217  1.00  0.00    -0.248 OA
HETATM   23  H   UNL     1       8.777  24.727  53.452  1.00  0.00     0.164 HD
HETATM   24  H   UNL     1       8.190  26.623  52.621  1.00  0.00     0.164 HD
BRANCH  21  25
HETATM   25  C   UNL     1       7.578  23.060  53.888  1.00  0.00     0.086 C 
HETATM   26  C   UNL     1       8.066  22.746  55.308  1.00  0.00     0.025 C 
HETATM   27  C   UNL     1       7.732  21.307  55.700  1.00  0.00     0.002 C 
HETATM   28  C   UNL     1       8.272  20.304  54.684  1.00  0.00     0.000 C 
HETATM   29  C   UNL     1       7.799  20.620  53.268  1.00  0.00     0.002 C 
HETATM   30  C   UNL     1       8.134  22.057  52.869  1.00  0.00     0.025 C 
ENDBRANCH  21  25
ENDBRANCH  18  19
ENDBRANCH  17  18
ENDBRANCH  16  17
ENDBRANCH  13  16
ENDBRANCH  10  12
ENDBRANCH   2  10
TORSDOF 7
ENDMDL
MODEL 5
REMARK VINA RESULT:      -8.5      3.851      9.115
REMARK  7 active torsions:
REMARK  status: ('A' for Active; 'I' for Inactive)
REMARK    1  A    between atoms: C_2  and  N_3 
REMARK    2  A    between atoms: N_3  and  N_4 
REMARK       I    between atoms: N_4  and  C_5 
REMARK    3  A    between atoms: C_5  and  C_6 
REMARK    4  A    between atoms: C_6  and  C_7 
REMARK    5  A    between atoms: C_7  and  C_8 
REMARK    6  A    between atoms: C_8  and  N_9 
REMARK       I    between atoms: N_9  and  C_10 
REMARK       I    between atoms: C_10  and  N_11 
REMARK    7  A    between atoms: N_11  and  C_12 
ROOT
HETATM    1  C   UNL     1       7.236  29.752  57.516  1.00  0.00     0.068 A 
HETATM    2  C   UNL     1       6.288  28.743  57.382  1.00  0.00     0.124 A 
HETATM    3  N   UNL     1       6.640  27.451  57.258  1.00  0.00    -0.223 NA
HETATM    4  C   UNL     1       7.954  27.156  57.239  1.00  0.00     0.129 A 
HETATM    5 CL   UNL     1       8.310  25.487  57.078  1.00  0.00    -0.062 Cl
HETATM    6  C   UNL     1       8.966  28.085  57.347  1.00  0.00     0.067 A 
HETATM    7  C   UNL     1       8.590  29.414  57.490  1.00  0.00     0.051 A 
HETATM    8  C   UNL     1       9.586  30.435  57.614  1.00  0.00     0.099 C 
HETATM    9  N   UNL     1      10.395  31.259  57.713  1.00  0.00    -0.191 NA
ENDROOT
BRANCH   2  10
HETATM   10  N   UNL     1       4.905  29.015  57.452  1.00  0.00    -0.186 NA
HETATM   11  H   UNL     1       4.588  28.572  58.328  1.00  0.00     0.154 HD
BRANCH  10  12
HETATM   12  N   UNL     1       4.174  28.548  56.333  1.00  0.00    -0.286 N 
HETATM   13  C   UNL     1       4.187  29.370  55.217  1.00  0.00     0.232 C 
HETATM   14  O   UNL     1       4.599  30.527  55.234  1.00  0.00    -0.272 OA
HETATM   15  H   UNL     1       4.201  27.540  56.202  1.00  0.00     0.184 HD
BRANCH  13  16
HETATM   16  C   UNL     1       3.691  28.706  53.952  1.00  0.00     0.106 C 
BRANCH  16  17
HETATM   17  C   UNL     1       4.289  27.317  53.753  1.00  0.00     0.029 C 
BRANCH  17  18
HETATM   18  C   UNL     1       5.760  27.410  53.358  1.00  0.00     0.125 C 
BRANCH  18  19
HETATM   19  N   UNL     1       6.553  26.382  53.999  1.00  0.00    -0.343 N 
HETATM   20  C   UNL     1       6.424  25.060  53.649  1.00  0.00     0.316 C 
HETATM   21  N   UNL     1       7.292  24.281  54.369  1.00  0.00    -0.339 N 
HETATM   22  O   UNL     1       5.634  24.654  52.809  1.00  0.00    -0.248 OA
HETATM   23  H   UNL     1       7.571  24.683  55.252  1.00  0.00     0.164 HD
HETATM   24  H   UNL     1       7.440  26.653  54.397  1.00  0.00     0.164 HD
BRANCH  21  25
HETATM   25  C   UNL     1       7.329  22.825  54.305  1.00  0.00     0.086 C 
HETATM   26  C   UNL     1       7.777  22.165  55.615  1.00  0.00     0.025 C 
HETATM   27  C   UNL     1       7.726  20.642  55.511  1.00  0.00     0.002 C 
HETATM   28  C   UNL     1       8.531  20.129  54.319  1.00  0.00     0.000 C 
HETATM   29  C   UNL     1       8.096  20.793  53.014  1.00  0.00     0.002 C 
HETATM   30  C   UNL     1       8.149  22.316  53.112  1.00  0.00     0.025 C 
ENDBRANCH  21  25
ENDBRANCH  18  19
ENDBRANCH  17  18
ENDBRANCH  16  17
ENDBRANCH  13  16
ENDBRANCH  10  12
ENDBRANCH   2  10
TORSDOF 7
ENDMDL
MODEL 6
REMARK VINA RESULT:      -8.5      3.730      9.979
REMARK  7 active torsions:
REMARK  status: ('A' for Active; 'I' for Inactive)
REMARK    1  A    between atoms: C_2  and  N_3 
REMARK    2  A    between atoms: N_3  and  N_4 
REMARK       I    between atoms: N_4  and  C_5 
REMARK    3  A    between atoms: C_5  and  C_6 
REMARK    4  A    between atoms: C_6  and  C_7 
REMARK    5  A    between atoms: C_7  and  C_8 
REMARK    6  A    between atoms: C_8  and  N_9 
REMARK       I    between atoms: N_9  and  C_10 
REMARK       I    between atoms: C_10  and  N_11 
REMARK    7  A    between atoms: N_11  and  C_12 
ROOT
HETATM    1  C   UNL     1       7.393  31.762  59.327  1.00  0.00     0.068 A 
HETATM    2  C   UNL     1       6.372  31.889  60.264  1.00  0.00     0.124 A 
HETATM    3  N   UNL     1       6.625  32.186  61.551  1.00  0.00    -0.223 NA
HETATM    4  C   UNL     1       7.911  32.334  61.922  1.00  0.00     0.129 A 
HETATM    5 CL   UNL     1       8.139  32.711  63.579  1.00  0.00    -0.062 Cl
HETATM    6  C   UNL     1       8.990  32.209  61.074  1.00  0.00     0.067 A 
HETATM    7  C   UNL     1       8.716  31.917  59.744  1.00  0.00     0.051 A 
HETATM    8  C   UNL     1       9.785  31.779  58.801  1.00  0.00     0.099 C 
HETATM    9  N   UNL     1      10.653  31.667  58.042  1.00  0.00    -0.191 NA
ENDROOT
BRANCH   2  10
HETATM   10  N   UNL     1       5.014  31.794  59.895  1.00  0.00    -0.186 NA
HETATM   11  H   UNL     1       4.528  31.454  60.739  1.00  0.00     0.154 HD
BRANCH  10  12
HETATM   12  N   UNL     1       4.782  30.953  58.781  1.00  0.00    -0.286 N 
HETATM   13  C   UNL     1       3.825  31.392  57.880  1.00  0.00     0.232 C 
HETATM   14  O   UNL     1       3.054  32.320  58.112  1.00  0.00    -0.272 OA
HETATM   15  H   UNL     1       5.611  30.483  58.427  1.00  0.00     0.184 HD
BRANCH  13  16
HETATM   16  C   UNL     1       3.837  30.661  56.556  1.00  0.00     0.106 C 
BRANCH  16  17
HETATM   17  C   UNL     1       4.801  29.479  56.555  1.00  0.00     0.029 C 
BRANCH  17  18
HETATM   18  C   UNL     1       5.295  29.181  55.142  1.00  0.00     0.125 C 
BRANCH  18  19
HETATM   19  N   UNL     1       5.290  27.761  54.860  1.00  0.00    -0.343 N 
HETATM   20  C   UNL     1       6.460  27.048  54.770  1.00  0.00     0.316 C 
HETATM   21  N   UNL     1       6.203  25.724  54.523  1.00  0.00    -0.339 N 
HETATM   22  O   UNL     1       7.570  27.546  54.893  1.00  0.00    -0.248 OA
HETATM   23  H   UNL     1       5.316  25.554  54.074  1.00  0.00     0.164 HD
HETATM   24  H   UNL     1       4.466  27.236  55.112  1.00  0.00     0.164 HD
BRANCH  21  25
HETATM   25  C   UNL     1       7.235  24.725  54.272  1.00  0.00     0.086 C 
HETATM   26  C   UNL     1       6.895  23.771  53.119  1.00  0.00     0.025 C 
HETATM   27  C   UNL     1       8.041  22.796  52.855  1.00  0.00     0.002 C 
HETATM   28  C   UNL     1       8.438  22.034  54.118  1.00  0.00     0.000 C 
HETATM   29  C   UNL     1       8.764  22.980  55.271  1.00  0.00     0.002 C 
HETATM   30  C   UNL     1       7.620  23.955  55.542  1.00  0.00     0.025 C 
ENDBRANCH  21  25
ENDBRANCH  18  19
ENDBRANCH  17  18
ENDBRANCH  16  17
ENDBRANCH  13  16
ENDBRANCH  10  12
ENDBRANCH   2  10
TORSDOF 7
ENDMDL
MODEL 7
REMARK VINA RESULT:      -8.4      1.963      2.328
REMARK  7 active torsions:
REMARK  status: ('A' for Active; 'I' for Inactive)
REMARK    1  A    between atoms: C_2  and  N_3 
REMARK    2  A    between atoms: N_3  and  N_4 
REMARK       I    between atoms: N_4  and  C_5 
REMARK    3  A    between atoms: C_5  and  C_6 
REMARK    4  A    between atoms: C_6  and  C_7 
REMARK    5  A    between atoms: C_7  and  C_8 
REMARK    6  A    between atoms: C_8  and  N_9 
REMARK       I    between atoms: N_9  and  C_10 
REMARK       I    between atoms: C_10  and  N_11 
REMARK    7  A    between atoms: N_11  and  C_12 
ROOT
HETATM    1  C   UNL     1       7.688  23.360  53.402  1.00  0.00     0.068 A 
HETATM    2  C   UNL     1       7.519  24.551  54.099  1.00  0.00     0.124 A 
HETATM    3  N   UNL     1       7.879  24.675  55.389  1.00  0.00    -0.223 NA
HETATM    4  C   UNL     1       8.390  23.593  56.006  1.00  0.00     0.129 A 
HETATM    5 CL   UNL     1       8.820  23.842  57.647  1.00  0.00    -0.062 Cl
HETATM    6  C   UNL     1       8.578  22.366  55.407  1.00  0.00     0.067 A 
HETATM    7  C   UNL     1       8.217  22.255  54.070  1.00  0.00     0.051 A 
HETATM    8  C   UNL     1       8.390  21.013  53.379  1.00  0.00     0.099 C 
HETATM    9  N   UNL     1       8.530  20.006  52.822  1.00  0.00    -0.191 NA
ENDROOT
BRANCH   2  10
HETATM   10  N   UNL     1       7.038  25.717  53.466  1.00  0.00    -0.186 NA
HETATM   11  H   UNL     1       7.184  25.556  52.458  1.00  0.00     0.154 HD
BRANCH  10  12
HETATM   12  N   UNL     1       7.666  26.906  53.904  1.00  0.00    -0.286 N 
HETATM   13  C   UNL     1       6.908  27.724  54.727  1.00  0.00     0.232 C 
HETATM   14  O   UNL     1       5.701  27.575  54.900  1.00  0.00    -0.272 OA
HETATM   15  H   UNL     1       8.663  26.815  54.086  1.00  0.00     0.184 HD
BRANCH  13  16
HETATM   16  C   UNL     1       7.701  28.797  55.439  1.00  0.00     0.106 C 
BRANCH  16  17
HETATM   17  C   UNL     1       7.179  29.065  56.847  1.00  0.00     0.029 C 
BRANCH  17  18
HETATM   18  C   UNL     1       6.462  30.411  56.914  1.00  0.00     0.125 C 
BRANCH  18  19
HETATM   19  N   UNL     1       6.010  30.711  58.256  1.00  0.00    -0.343 N 
HETATM   20  C   UNL     1       6.718  31.558  59.073  1.00  0.00     0.316 C 
HETATM   21  N   UNL     1       6.084  31.709  60.280  1.00  0.00    -0.339 N 
HETATM   22  O   UNL     1       7.769  32.092  58.751  1.00  0.00    -0.248 OA
HETATM   23  H   UNL     1       5.483  30.939  60.528  1.00  0.00     0.164 HD
HETATM   24  H   UNL     1       5.024  30.627  58.449  1.00  0.00     0.164 HD
BRANCH  21  25
HETATM   25  C   UNL     1       6.633  32.462  61.402  1.00  0.00     0.086 C 
HETATM   26  C   UNL     1       7.611  31.653  62.262  1.00  0.00     0.025 C 
HETATM   27  C   UNL     1       8.208  32.512  63.376  1.00  0.00     0.002 C 
HETATM   28  C   UNL     1       7.123  33.170  64.225  1.00  0.00     0.000 C 
HETATM   29  C   UNL     1       6.140  33.967  63.371  1.00  0.00     0.002 C 
HETATM   30  C   UNL     1       5.537  33.111  62.258  1.00  0.00     0.025 C 
ENDBRANCH  21  25
ENDBRANCH  18  19
ENDBRANCH  17  18
ENDBRANCH  16  17
ENDBRANCH  13  16
ENDBRANCH  10  12
ENDBRANCH   2  10
TORSDOF 7
ENDMDL
MODEL 8
REMARK VINA RESULT:      -8.3      3.351     10.644
REMARK  7 active torsions:
REMARK  status: ('A' for Active; 'I' for Inactive)
REMARK    1  A    between atoms: C_2  and  N_3 
REMARK    2  A    between atoms: N_3  and  N_4 
REMARK       I    between atoms: N_4  and  C_5 
REMARK    3  A    between atoms: C_5  and  C_6 
REMARK    4  A    between atoms: C_6  and  C_7 
REMARK    5  A    between atoms: C_7  and  C_8 
REMARK    6  A    between atoms: C_8  and  N_9 
REMARK       I    between atoms: N_9  and  C_10 
REMARK       I    between atoms: C_10  and  N_11 
REMARK    7  A    between atoms: N_11  and  C_12 
ROOT
HETATM    1  C   UNL     1       6.501  31.910  59.685  1.00  0.00     0.068 A 
HETATM    2  C   UNL     1       7.700  31.418  60.191  1.00  0.00     0.124 A 
HETATM    3  N   UNL     1       8.121  31.720  61.432  1.00  0.00    -0.223 NA
HETATM    4  C   UNL     1       7.356  32.544  62.173  1.00  0.00     0.129 A 
HETATM    5 CL   UNL     1       7.970  32.874  63.740  1.00  0.00    -0.062 Cl
HETATM    6  C   UNL     1       6.165  33.095  61.754  1.00  0.00     0.067 A 
HETATM    7  C   UNL     1       5.732  32.764  60.476  1.00  0.00     0.051 A 
HETATM    8  C   UNL     1       4.500  33.292  59.973  1.00  0.00     0.099 C 
HETATM    9  N   UNL     1       3.504  33.724  59.569  1.00  0.00    -0.191 NA
ENDROOT
BRANCH   2  10
HETATM   10  N   UNL     1       8.495  30.511  59.460  1.00  0.00    -0.186 NA
HETATM   11  H   UNL     1       9.464  30.841  59.585  1.00  0.00     0.154 HD
BRANCH  10  12
HETATM   12  N   UNL     1       8.144  30.418  58.092  1.00  0.00    -0.286 N 
HETATM   13  C   UNL     1       7.772  29.159  57.648  1.00  0.00     0.232 C 
HETATM   14  O   UNL     1       7.940  28.133  58.303  1.00  0.00    -0.272 OA
HETATM   15  H   UNL     1       7.658  31.232  57.724  1.00  0.00     0.184 HD
BRANCH  13  16
HETATM   16  C   UNL     1       7.092  29.153  56.296  1.00  0.00     0.106 C 
BRANCH  16  17
HETATM   17  C   UNL     1       5.776  28.382  56.313  1.00  0.00     0.029 C 
BRANCH  17  18
HETATM   18  C   UNL     1       5.762  27.307  55.230  1.00  0.00     0.125 C 
BRANCH  18  19
HETATM   19  N   UNL     1       6.601  26.180  55.582  1.00  0.00    -0.343 N 
HETATM   20  C   UNL     1       6.477  24.972  54.940  1.00  0.00     0.316 C 
HETATM   21  N   UNL     1       7.391  24.071  55.424  1.00  0.00    -0.339 N 
HETATM   22  O   UNL     1       5.655  24.750  54.064  1.00  0.00    -0.248 OA
HETATM   23  H   UNL     1       7.704  24.266  56.362  1.00  0.00     0.164 HD
HETATM   24  H   UNL     1       7.501  26.376  55.993  1.00  0.00     0.164 HD
BRANCH  21  25
HETATM   25  C   UNL     1       7.448  22.671  55.022  1.00  0.00     0.086 C 
HETATM   26  C   UNL     1       8.203  21.780  56.016  1.00  0.00     0.025 C 
HETATM   27  C   UNL     1       8.168  20.315  55.581  1.00  0.00     0.002 C 
HETATM   28  C   UNL     1       8.688  20.135  54.157  1.00  0.00     0.000 C 
HETATM   29  C   UNL     1       7.947  21.030  53.166  1.00  0.00     0.002 C 
HETATM   30  C   UNL     1       7.982  22.496  53.594  1.00  0.00     0.025 C 
ENDBRANCH  21  25
ENDBRANCH  18  19
ENDBRANCH  17  18
ENDBRANCH  16  17
ENDBRANCH  13  16
ENDBRANCH  10  12
ENDBRANCH   2  10
TORSDOF 7
ENDMDL
MODEL 9
REMARK VINA RESULT:      -8.3      3.167      4.783
REMARK  7 active torsions:
REMARK  status: ('A' for Active; 'I' for Inactive)
REMARK    1  A    between atoms: C_2  and  N_3 
REMARK    2  A    between atoms: N_3  and  N_4 
REMARK       I    between atoms: N_4  and  C_5 
REMARK    3  A    between atoms: C_5  and  C_6 
REMARK    4  A    between atoms: C_6  and  C_7 
REMARK    5  A    between atoms: C_7  and  C_8 
REMARK    6  A    between atoms: C_8  and  N_9 
REMARK       I    between atoms: N_9  and  C_10 
REMARK       I    between atoms: C_10  and  N_11 
REMARK    7  A    between atoms: N_11  and  C_12 
ROOT
HETATM    1  C   UNL     1       7.954  23.029  52.793  1.00  0.00     0.068 A 
HETATM    2  C   UNL     1       7.660  24.375  52.985  1.00  0.00     0.124 A 
HETATM    3  N   UNL     1       7.748  24.954  54.196  1.00  0.00    -0.223 NA
HETATM    4  C   UNL     1       8.107  24.180  55.238  1.00  0.00     0.129 A 
HETATM    5 CL   UNL     1       8.194  25.001  56.741  1.00  0.00    -0.062 Cl
HETATM    6  C   UNL     1       8.399  22.836  55.152  1.00  0.00     0.067 A 
HETATM    7  C   UNL     1       8.319  22.253  53.894  1.00  0.00     0.051 A 
HETATM    8  C   UNL     1       8.616  20.863  53.724  1.00  0.00     0.099 C 
HETATM    9  N   UNL     1       8.854  19.736  53.592  1.00  0.00    -0.191 NA
ENDROOT
BRANCH   2  10
HETATM   10  N   UNL     1       7.335  25.222  51.905  1.00  0.00    -0.186 NA
HETATM   11  H   UNL     1       8.233  25.426  51.442  1.00  0.00     0.154 HD
BRANCH  10  12
HETATM   12  N   UNL     1       6.662  26.406  52.291  1.00  0.00    -0.286 N 
HETATM   13  C   UNL     1       5.577  26.767  51.508  1.00  0.00     0.232 C 
HETATM   14  O   UNL     1       5.325  26.252  50.421  1.00  0.00    -0.272 OA
HETATM   15  H   UNL     1       6.615  26.557  53.295  1.00  0.00     0.184 HD
BRANCH  13  16
HETATM   16  C   UNL     1       4.690  27.826  52.126  1.00  0.00     0.106 C 
BRANCH  16  17
HETATM   17  C   UNL     1       4.176  27.419  53.503  1.00  0.00     0.029 C 
BRANCH  17  18
HETATM   18  C   UNL     1       4.556  28.457  54.555  1.00  0.00     0.125 C 
BRANCH  18  19
HETATM   19  N   UNL     1       5.671  28.016  55.365  1.00  0.00    -0.343 N 
HETATM   20  C   UNL     1       6.498  28.918  55.990  1.00  0.00     0.316 C 
HETATM   21  N   UNL     1       7.461  28.268  56.718  1.00  0.00    -0.339 N 
HETATM   22  O   UNL     1       6.376  30.130  55.895  1.00  0.00    -0.248 OA
HETATM   23  H   UNL     1       7.665  27.336  56.392  1.00  0.00     0.164 HD
HETATM   24  H   UNL     1       5.615  27.100  55.783  1.00  0.00     0.164 HD
BRANCH  21  25
HETATM   25  C   UNL     1       8.552  28.940  57.413  1.00  0.00     0.086 C 
HETATM   26  C   UNL     1       8.076  29.936  58.479  1.00  0.00     0.025 C 
HETATM   27  C   UNL     1       9.259  30.555  59.223  1.00  0.00     0.002 C 
HETATM   28  C   UNL     1      10.260  31.194  58.262  1.00  0.00     0.000 C 
HETATM   29  C   UNL     1      10.726  30.209  57.192  1.00  0.00     0.002 C 
HETATM   30  C   UNL     1       9.547  29.591  56.443  1.00  0.00     0.025 C 
ENDBRANCH  21  25
ENDBRANCH  18  19
ENDBRANCH  17  18
ENDBRANCH  16  17
ENDBRANCH  13  16
ENDBRANCH  10  12
ENDBRANCH   2  10
TORSDOF 7
ENDMDL
MODEL 10
REMARK VINA RESULT:      -8.1      7.000     10.811
REMARK  7 active torsions:
REMARK  status: ('A' for Active; 'I' for Inactive)
REMARK    1  A    between atoms: C_2  and  N_3 
REMARK    2  A    between atoms: N_3  and  N_4 
REMARK       I    between atoms: N_4  and  C_5 
REMARK    3  A    between atoms: C_5  and  C_6 
REMARK    4  A    between atoms: C_6  and  C_7 
REMARK    5  A    between atoms: C_7  and  C_8 
REMARK    6  A    between atoms: C_8  and  N_9 
REMARK       I    between atoms: N_9  and  C_10 
REMARK       I    between atoms: C_10  and  N_11 
REMARK    7  A    between atoms: N_11  and  C_12 
ROOT
HETATM    1  C   UNL     1       1.042  27.169  46.945  1.00  0.00     0.068 A 
HETATM    2  C   UNL     1       1.664  27.773  48.032  1.00  0.00     0.124 A 
HETATM    3  N   UNL     1       1.462  29.067  48.337  1.00  0.00    -0.223 NA
HETATM    4  C   UNL     1       0.651  29.782  47.534  1.00  0.00     0.129 A 
HETATM    5 CL   UNL     1       0.451  31.421  47.997  1.00  0.00    -0.062 Cl
HETATM    6  C   UNL     1       0.005  29.280  46.425  1.00  0.00     0.067 A 
HETATM    7  C   UNL     1       0.209  27.938  46.130  1.00  0.00     0.051 A 
HETATM    8  C   UNL     1      -0.434  27.344  44.998  1.00  0.00     0.099 C 
HETATM    9  N   UNL     1      -0.955  26.866  44.079  1.00  0.00    -0.191 NA
ENDROOT
BRANCH   2  10
HETATM   10  N   UNL     1       2.475  27.037  48.922  1.00  0.00    -0.186 NA
HETATM   11  H   UNL     1       1.894  26.239  49.220  1.00  0.00     0.154 HD
BRANCH  10  12
HETATM   12  N   UNL     1       2.940  27.790  50.026  1.00  0.00    -0.286 N 
HETATM   13  C   UNL     1       4.236  27.522  50.438  1.00  0.00     0.232 C 
HETATM   14  O   UNL     1       4.884  26.554  50.047  1.00  0.00    -0.272 OA
HETATM   15  H   UNL     1       2.604  28.749  50.056  1.00  0.00     0.184 HD
BRANCH  13  16
HETATM   16  C   UNL     1       4.813  28.553  51.382  1.00  0.00     0.106 C 
BRANCH  16  17
HETATM   17  C   UNL     1       6.018  28.023  52.154  1.00  0.00     0.029 C 
BRANCH  17  18
HETATM   18  C   UNL     1       5.620  27.615  53.570  1.00  0.00     0.125 C 
BRANCH  18  19
HETATM   19  N   UNL     1       6.499  26.594  54.101  1.00  0.00    -0.343 N 
HETATM   20  C   UNL     1       6.304  25.266  53.810  1.00  0.00     0.316 C 
HETATM   21  N   UNL     1       7.272  24.495  54.401  1.00  0.00    -0.339 N 
HETATM   22  O   UNL     1       5.386  24.849  53.120  1.00  0.00    -0.248 OA
HETATM   23  H   UNL     1       7.693  24.914  55.216  1.00  0.00     0.164 HD
HETATM   24  H   UNL     1       7.440  26.865  54.343  1.00  0.00     0.164 HD
BRANCH  21  25
HETATM   25  C   UNL     1       7.287  23.037  54.369  1.00  0.00     0.086 C 
HETATM   26  C   UNL     1       7.871  22.403  55.637  1.00  0.00     0.025 C 
HETATM   27  C   UNL     1       7.794  20.878  55.577  1.00  0.00     0.002 C 
HETATM   28  C   UNL     1       8.456  20.327  54.316  1.00  0.00     0.000 C 
HETATM   29  C   UNL     1       7.886  20.966  53.052  1.00  0.00     0.002 C 
HETATM   30  C   UNL     1       7.964  22.490  53.105  1.00  0.00     0.025 C 
ENDBRANCH  21  25
ENDBRANCH  18  19
ENDBRANCH  17  18
ENDBRANCH  16  17
ENDBRANCH  13  16
ENDBRANCH  10  12
ENDBRANCH   2  10
TORSDOF 7
ENDMDL
