MODEL 1
REMARK VINA RESULT:     -10.0      0.000      0.000
REMARK  6 active torsions:
REMARK  status: ('A' for Active; 'I' for Inactive)
REMARK    1  A    between atoms: C_5  and  N_6 
REMARK    2  A    between atoms: N_6  and  C_7 
REMARK    3  A    between atoms: C_7  and  C_8 
REMARK    4  A    between atoms: N_10  and  C_12 
REMARK    5  A    between atoms: C_12  and  C_13 
REMARK    6  A    between atoms: C_14  and  C_15 
ROOT
HETATM    1  C   UNL     1       8.584  28.649  57.224  1.00  0.00     0.031 C 
HETATM    2  C   UNL     1       8.217  29.046  55.791  1.00  0.00     0.241 C 
HETATM    3  N   UNL     1       7.084  28.115  55.405  1.00  0.00    -0.067 N 
HETATM    4  H   UNL     1       6.262  28.691  55.179  1.00  0.00     0.280 HD
HETATM    5  C   UNL     1       6.732  27.287  56.616  1.00  0.00     0.235 C 
HETATM    6  C   UNL     1       7.269  28.110  57.775  1.00  0.00     0.035 C 
ENDROOT
BRANCH   3   7
HETATM    7  C   UNL     1       7.323  27.284  54.164  1.00  0.00     0.277 C 
BRANCH   7   8
HETATM    8  C   UNL     1       6.127  26.537  53.694  1.00  0.00     0.016 A 
HETATM    9  C   UNL     1       5.982  25.111  53.617  1.00  0.00     0.102 A 
HETATM   10  N   UNL     1       4.779  24.790  53.133  1.00  0.00    -0.174 NA
HETATM   11  N   UNL     1       4.135  25.945  52.965  1.00  0.00    -0.288 N 
HETATM   12  H   UNL     1       3.171  25.914  52.639  1.00  0.00     0.188 HD
HETATM   13  C   UNL     1       4.904  27.031  53.271  1.00  0.00     0.120 A 
BRANCH   9  14
HETATM   14  C   UNL     1       6.920  24.062  54.007  1.00  0.00     0.072 A 
HETATM   15  C   UNL     1       6.973  23.599  55.324  1.00  0.00     0.132 A 
HETATM   16  F   UNL     1       6.214  24.169  56.274  1.00  0.00    -0.205 F 
HETATM   17  C   UNL     1       7.822  22.556  55.698  1.00  0.00     0.043 A 
HETATM   18  C   UNL     1       8.643  21.957  54.745  1.00  0.00     0.006 A 
HETATM   19  C   UNL     1       8.618  22.415  53.429  1.00  0.00     0.043 A 
HETATM   20  C   UNL     1       7.762  23.459  53.068  1.00  0.00     0.132 A 
HETATM   21  F   UNL     1       7.807  23.901  51.804  1.00  0.00    -0.205 F 
ENDBRANCH   9  14
ENDBRANCH   7   8
ENDBRANCH   3   7
BRANCH   1  22
HETATM   22  C   UNL     1       9.175  29.822  58.016  1.00  0.00     0.127 C 
BRANCH  22  23
HETATM   23  N   UNL     1       8.131  30.618  58.657  1.00  0.00    -0.376 N 
HETATM   24  H   UNL     1       7.250  30.717  58.168  1.00  0.00     0.161 HD
BRANCH  23  25
HETATM   25  C   UNL     1       8.267  31.111  59.940  1.00  0.00     0.101 A 
HETATM   26  N   UNL     1       7.158  31.238  60.692  1.00  0.00    -0.347 N 
HETATM   27  C   UNL     1       7.147  31.708  61.955  1.00  0.00     0.007 A 
HETATM   28  H   UNL     1       6.275  30.964  60.275  1.00  0.00     0.167 HD
HETATM   29  C   UNL     1       5.844  31.805  62.682  1.00  0.00     0.068 C 
HETATM   30  C   UNL     1       8.346  32.093  62.547  1.00  0.00     0.025 A 
HETATM   31  C   UNL     1       9.522  31.989  61.821  1.00  0.00     0.006 A 
HETATM   32  C   UNL     1       9.483  31.502  60.515  1.00  0.00     0.048 A 
ENDBRANCH  23  25
ENDBRANCH  22  23
ENDBRANCH   1  22
TORSDOF 6
ENDMDL
MODEL 2
REMARK VINA RESULT:      -9.8      1.821      2.475
REMARK  6 active torsions:
REMARK  status: ('A' for Active; 'I' for Inactive)
REMARK    1  A    between atoms: C_5  and  N_6 
REMARK    2  A    between atoms: N_6  and  C_7 
REMARK    3  A    between atoms: C_7  and  C_8 
REMARK    4  A    between atoms: N_10  and  C_12 
REMARK    5  A    between atoms: C_12  and  C_13 
REMARK    6  A    between atoms: C_14  and  C_15 
ROOT
HETATM    1  C   UNL     1       9.110  30.412  58.141  1.00  0.00     0.031 C 
HETATM    2  C   UNL     1       8.236  29.166  57.969  1.00  0.00     0.241 C 
HETATM    3  N   UNL     1       8.695  28.545  56.663  1.00  0.00    -0.067 N 
HETATM    4  H   UNL     1       9.034  27.595  56.866  1.00  0.00     0.280 HD
HETATM    5  C   UNL     1       9.873  29.341  56.160  1.00  0.00     0.235 C 
HETATM    6  C   UNL     1      10.392  30.034  57.409  1.00  0.00     0.035 C 
ENDROOT
BRANCH   3   7
HETATM    7  C   UNL     1       7.615  28.353  55.622  1.00  0.00     0.277 C 
BRANCH   7   8
HETATM    8  C   UNL     1       6.404  27.655  56.125  1.00  0.00     0.016 A 
HETATM    9  C   UNL     1       6.194  26.236  56.180  1.00  0.00     0.102 A 
HETATM   10  N   UNL     1       4.983  25.963  56.676  1.00  0.00    -0.174 NA
HETATM   11  N   UNL     1       4.448  27.141  56.997  1.00  0.00    -0.288 N 
HETATM   12  H   UNL     1       3.530  27.146  57.436  1.00  0.00     0.188 HD
HETATM   13  C   UNL     1       5.252  28.195  56.672  1.00  0.00     0.120 A 
BRANCH   9  14
HETATM   14  C   UNL     1       7.097  25.150  55.811  1.00  0.00     0.072 A 
HETATM   15  C   UNL     1       8.170  24.797  56.634  1.00  0.00     0.132 A 
HETATM   16  F   UNL     1       8.435  25.507  57.743  1.00  0.00    -0.205 F 
HETATM   17  C   UNL     1       9.007  23.724  56.324  1.00  0.00     0.043 A 
HETATM   18  C   UNL     1       8.778  22.981  55.167  1.00  0.00     0.006 A 
HETATM   19  C   UNL     1       7.723  23.326  54.324  1.00  0.00     0.043 A 
HETATM   20  C   UNL     1       6.893  24.402  54.648  1.00  0.00     0.132 A 
HETATM   21  F   UNL     1       5.922  24.731  53.784  1.00  0.00    -0.205 F 
ENDBRANCH   9  14
ENDBRANCH   7   8
ENDBRANCH   3   7
BRANCH   1  22
HETATM   22  C   UNL     1       9.302  30.785  59.616  1.00  0.00     0.127 C 
BRANCH  22  23
HETATM   23  N   UNL     1       8.107  30.493  60.403  1.00  0.00    -0.376 N 
HETATM   24  H   UNL     1       7.629  29.618  60.227  1.00  0.00     0.161 HD
BRANCH  23  25
HETATM   25  C   UNL     1       7.702  31.300  61.449  1.00  0.00     0.101 A 
HETATM   26  N   UNL     1       6.397  31.621  61.535  1.00  0.00    -0.347 N 
HETATM   27  C   UNL     1       5.869  32.400  62.499  1.00  0.00     0.007 A 
HETATM   28  H   UNL     1       5.776  31.252  60.823  1.00  0.00     0.167 HD
HETATM   29  C   UNL     1       4.402  32.687  62.478  1.00  0.00     0.068 C 
HETATM   30  C   UNL     1       6.702  32.921  63.485  1.00  0.00     0.025 A 
HETATM   31  C   UNL     1       8.057  32.628  63.448  1.00  0.00     0.006 A 
HETATM   32  C   UNL     1       8.558  31.821  62.428  1.00  0.00     0.048 A 
ENDBRANCH  23  25
ENDBRANCH  22  23
ENDBRANCH   1  22
TORSDOF 6
ENDMDL
MODEL 3
REMARK VINA RESULT:      -9.7      4.337      8.411
REMARK  6 active torsions:
REMARK  status: ('A' for Active; 'I' for Inactive)
REMARK    1  A    between atoms: C_5  and  N_6 
REMARK    2  A    between atoms: N_6  and  C_7 
REMARK    3  A    between atoms: C_7  and  C_8 
REMARK    4  A    between atoms: N_10  and  C_12 
REMARK    5  A    between atoms: C_12  and  C_13 
REMARK    6  A    between atoms: C_14  and  C_15 
ROOT
HETATM    1  C   UNL     1       6.049  26.714  52.377  1.00  0.00     0.031 C 
HETATM    2  C   UNL     1       4.955  26.254  53.345  1.00  0.00     0.241 C 
HETATM    3  N   UNL     1       5.595  26.321  54.718  1.00  0.00    -0.067 N 
HETATM    4  H   UNL     1       5.047  26.976  55.292  1.00  0.00     0.280 HD
HETATM    5  C   UNL     1       6.974  26.912  54.559  1.00  0.00     0.235 C 
HETATM    6  C   UNL     1       6.890  27.652  53.235  1.00  0.00     0.035 C 
ENDROOT
BRANCH   3   7
HETATM    7  C   UNL     1       5.587  25.027  55.501  1.00  0.00     0.277 C 
BRANCH   7   8
HETATM    8  C   UNL     1       6.788  24.826  56.353  1.00  0.00     0.016 A 
HETATM    9  C   UNL     1       7.795  23.817  56.190  1.00  0.00     0.102 A 
HETATM   10  N   UNL     1       8.721  23.923  57.148  1.00  0.00    -0.174 NA
HETATM   11  N   UNL     1       8.379  24.993  57.866  1.00  0.00    -0.288 N 
HETATM   12  H   UNL     1       8.991  25.272  58.630  1.00  0.00     0.188 HD
HETATM   13  C   UNL     1       7.215  25.566  57.443  1.00  0.00     0.120 A 
BRANCH   9  14
HETATM   14  C   UNL     1       7.922  22.791  55.159  1.00  0.00     0.072 A 
HETATM   15  C   UNL     1       7.825  21.434  55.479  1.00  0.00     0.132 A 
HETATM   16  F   UNL     1       7.690  21.048  56.758  1.00  0.00    -0.205 F 
HETATM   17  C   UNL     1       7.885  20.446  54.495  1.00  0.00     0.043 A 
HETATM   18  C   UNL     1       8.050  20.808  53.160  1.00  0.00     0.006 A 
HETATM   19  C   UNL     1       8.167  22.155  52.821  1.00  0.00     0.043 A 
HETATM   20  C   UNL     1       8.103  23.134  53.816  1.00  0.00     0.132 A 
HETATM   21  F   UNL     1       8.270  24.413  53.452  1.00  0.00    -0.205 F 
ENDBRANCH   9  14
ENDBRANCH   7   8
ENDBRANCH   3   7
BRANCH   1  22
HETATM   22  C   UNL     1       5.469  27.355  51.110  1.00  0.00     0.127 C 
BRANCH  22  23
HETATM   23  N   UNL     1       5.184  26.353  50.085  1.00  0.00    -0.376 N 
HETATM   24  H   UNL     1       5.723  25.496  50.103  1.00  0.00     0.161 HD
BRANCH  23  25
HETATM   25  C   UNL     1       4.132  26.488  49.200  1.00  0.00     0.101 A 
HETATM   26  N   UNL     1       3.290  27.524  49.369  1.00  0.00    -0.347 N 
HETATM   27  C   UNL     1       2.223  27.772  48.583  1.00  0.00     0.007 A 
HETATM   28  H   UNL     1       3.472  28.156  50.141  1.00  0.00     0.167 HD
HETATM   29  C   UNL     1       1.361  28.956  48.881  1.00  0.00     0.068 C 
HETATM   30  C   UNL     1       1.950  26.917  47.519  1.00  0.00     0.025 A 
HETATM   31  C   UNL     1       2.781  25.829  47.296  1.00  0.00     0.006 A 
HETATM   32  C   UNL     1       3.869  25.612  48.140  1.00  0.00     0.048 A 
ENDBRANCH  23  25
ENDBRANCH  22  23
ENDBRANCH   1  22
TORSDOF 6
ENDMDL
MODEL 4
REMARK VINA RESULT:      -9.3      1.739      2.273
REMARK  6 active torsions:
REMARK  status: ('A' for Active; 'I' for Inactive)
REMARK    1  A    between atoms: C_5  and  N_6 
REMARK    2  A    between atoms: N_6  and  C_7 
REMARK    3  A    between atoms: C_7  and  C_8 
REMARK    4  A    between atoms: N_10  and  C_12 
REMARK    5  A    between atoms: C_12  and  C_13 
REMARK    6  A    between atoms: C_14  and  C_15 
ROOT
HETATM    1  C   UNL     1       7.073  28.431  56.531  1.00  0.00     0.031 C 
HETATM    2  C   UNL     1       5.859  27.500  56.581  1.00  0.00     0.241 C 
HETATM    3  N   UNL     1       6.436  26.116  56.810  1.00  0.00    -0.067 N 
HETATM    4  H   UNL     1       6.048  25.753  57.691  1.00  0.00     0.280 HD
HETATM    5  C   UNL     1       7.925  26.261  57.003  1.00  0.00     0.235 C 
HETATM    6  C   UNL     1       8.088  27.715  57.415  1.00  0.00     0.035 C 
ENDROOT
BRANCH   3   7
HETATM    7  C   UNL     1       6.067  25.080  55.772  1.00  0.00     0.277 C 
BRANCH   7   8
HETATM    8  C   UNL     1       6.918  25.112  54.554  1.00  0.00     0.016 A 
HETATM    9  C   UNL     1       7.801  24.076  54.098  1.00  0.00     0.102 A 
HETATM   10  N   UNL     1       8.421  24.452  52.975  1.00  0.00    -0.174 NA
HETATM   11  N   UNL     1       7.920  25.649  52.668  1.00  0.00    -0.288 N 
HETATM   12  H   UNL     1       8.238  26.096  51.810  1.00  0.00     0.188 HD
HETATM   13  C   UNL     1       7.024  26.103  53.592  1.00  0.00     0.120 A 
BRANCH   9  14
HETATM   14  C   UNL     1       8.049  22.754  54.664  1.00  0.00     0.072 A 
HETATM   15  C   UNL     1       8.572  22.610  55.952  1.00  0.00     0.132 A 
HETATM   16  F   UNL     1       8.929  23.693  56.662  1.00  0.00    -0.205 F 
HETATM   17  C   UNL     1       8.760  21.353  56.529  1.00  0.00     0.043 A 
HETATM   18  C   UNL     1       8.425  20.206  55.811  1.00  0.00     0.006 A 
HETATM   19  C   UNL     1       7.918  20.326  54.518  1.00  0.00     0.043 A 
HETATM   20  C   UNL     1       7.734  21.591  53.954  1.00  0.00     0.132 A 
HETATM   21  F   UNL     1       7.291  21.659  52.691  1.00  0.00    -0.205 F 
ENDBRANCH   9  14
ENDBRANCH   7   8
ENDBRANCH   3   7
BRANCH   1  22
HETATM   22  C   UNL     1       6.729  29.857  56.979  1.00  0.00     0.127 C 
BRANCH  22  23
HETATM   23  N   UNL     1       6.718  29.973  58.436  1.00  0.00    -0.376 N 
HETATM   24  H   UNL     1       6.021  29.444  58.944  1.00  0.00     0.161 HD
BRANCH  23  25
HETATM   25  C   UNL     1       7.698  30.662  59.124  1.00  0.00     0.101 A 
HETATM   26  N   UNL     1       7.538  30.838  60.449  1.00  0.00    -0.347 N 
HETATM   27  C   UNL     1       8.412  31.493  61.238  1.00  0.00     0.007 A 
HETATM   28  H   UNL     1       6.702  30.454  60.875  1.00  0.00     0.167 HD
HETATM   29  C   UNL     1       8.114  31.625  62.698  1.00  0.00     0.068 C 
HETATM   30  C   UNL     1       9.565  32.032  60.675  1.00  0.00     0.025 A 
HETATM   31  C   UNL     1       9.784  31.886  59.314  1.00  0.00     0.006 A 
HETATM   32  C   UNL     1       8.848  31.205  58.537  1.00  0.00     0.048 A 
ENDBRANCH  23  25
ENDBRANCH  22  23
ENDBRANCH   1  22
TORSDOF 6
ENDMDL
MODEL 5
REMARK VINA RESULT:      -9.2      4.393      8.128
REMARK  6 active torsions:
REMARK  status: ('A' for Active; 'I' for Inactive)
REMARK    1  A    between atoms: C_5  and  N_6 
REMARK    2  A    between atoms: N_6  and  C_7 
REMARK    3  A    between atoms: C_7  and  C_8 
REMARK    4  A    between atoms: N_10  and  C_12 
REMARK    5  A    between atoms: C_12  and  C_13 
REMARK    6  A    between atoms: C_14  and  C_15 
ROOT
HETATM    1  C   UNL     1       4.090  27.367  53.258  1.00  0.00     0.031 C 
HETATM    2  C   UNL     1       4.926  27.293  54.538  1.00  0.00     0.241 C 
HETATM    3  N   UNL     1       5.746  26.025  54.397  1.00  0.00    -0.067 N 
HETATM    4  H   UNL     1       6.741  26.285  54.429  1.00  0.00     0.280 HD
HETATM    5  C   UNL     1       5.478  25.450  53.029  1.00  0.00     0.235 C 
HETATM    6  C   UNL     1       4.962  26.641  52.240  1.00  0.00     0.035 C 
ENDROOT
BRANCH   3   7
HETATM    7  C   UNL     1       5.577  25.016  55.512  1.00  0.00     0.277 C 
BRANCH   7   8
HETATM    8  C   UNL     1       6.796  24.815  56.338  1.00  0.00     0.016 A 
HETATM    9  C   UNL     1       7.804  23.810  56.147  1.00  0.00     0.102 A 
HETATM   10  N   UNL     1       8.749  23.914  57.087  1.00  0.00    -0.174 NA
HETATM   11  N   UNL     1       8.418  24.978  57.818  1.00  0.00    -0.288 N 
HETATM   12  H   UNL     1       9.045  25.255  58.571  1.00  0.00     0.188 HD
HETATM   13  C   UNL     1       7.243  25.550  57.423  1.00  0.00     0.120 A 
BRANCH   9  14
HETATM   14  C   UNL     1       7.913  22.792  55.107  1.00  0.00     0.072 A 
HETATM   15  C   UNL     1       8.231  23.140  53.791  1.00  0.00     0.132 A 
HETATM   16  F   UNL     1       8.365  24.430  53.446  1.00  0.00    -0.205 F 
HETATM   17  C   UNL     1       8.396  22.172  52.799  1.00  0.00     0.043 A 
HETATM   18  C   UNL     1       8.240  20.824  53.116  1.00  0.00     0.006 A 
HETATM   19  C   UNL     1       7.906  20.456  54.418  1.00  0.00     0.043 A 
HETATM   20  C   UNL     1       7.744  21.436  55.401  1.00  0.00     0.132 A 
HETATM   21  F   UNL     1       7.374  21.041  56.628  1.00  0.00    -0.205 F 
ENDBRANCH   9  14
ENDBRANCH   7   8
ENDBRANCH   3   7
BRANCH   1  22
HETATM   22  C   UNL     1       3.735  28.811  52.881  1.00  0.00     0.127 C 
BRANCH  22  23
HETATM   23  N   UNL     1       2.572  28.864  51.998  1.00  0.00    -0.376 N 
HETATM   24  H   UNL     1       1.661  28.968  52.427  1.00  0.00     0.161 HD
BRANCH  23  25
HETATM   25  C   UNL     1       2.696  28.910  50.623  1.00  0.00     0.101 A 
HETATM   26  N   UNL     1       1.869  28.145  49.886  1.00  0.00    -0.347 N 
HETATM   27  C   UNL     1       1.884  28.091  48.539  1.00  0.00     0.007 A 
HETATM   28  H   UNL     1       1.195  27.571  50.380  1.00  0.00     0.167 HD
HETATM   29  C   UNL     1       0.915  27.195  47.838  1.00  0.00     0.068 C 
HETATM   30  C   UNL     1       2.802  28.868  47.838  1.00  0.00     0.025 A 
HETATM   31  C   UNL     1       3.682  29.675  48.543  1.00  0.00     0.006 A 
HETATM   32  C   UNL     1       3.632  29.692  49.936  1.00  0.00     0.048 A 
ENDBRANCH  23  25
ENDBRANCH  22  23
ENDBRANCH   1  22
TORSDOF 6
ENDMDL
MODEL 6
REMARK VINA RESULT:      -9.2      1.405      2.412
REMARK  6 active torsions:
REMARK  status: ('A' for Active; 'I' for Inactive)
REMARK    1  A    between atoms: C_5  and  N_6 
REMARK    2  A    between atoms: N_6  and  C_7 
REMARK    3  A    between atoms: C_7  and  C_8 
REMARK    4  A    between atoms: N_10  and  C_12 
REMARK    5  A    between atoms: C_12  and  C_13 
REMARK    6  A    between atoms: C_14  and  C_15 
ROOT
HETATM    1  C   UNL     1       5.947  28.746  56.463  1.00  0.00     0.031 C 
HETATM    2  C   UNL     1       7.004  29.040  55.394  1.00  0.00     0.241 C 
HETATM    3  N   UNL     1       6.327  28.722  54.075  1.00  0.00    -0.067 N 
HETATM    4  H   UNL     1       6.321  29.579  53.506  1.00  0.00     0.280 HD
HETATM    5  C   UNL     1       4.889  28.368  54.366  1.00  0.00     0.235 C 
HETATM    6  C   UNL     1       4.638  29.001  55.724  1.00  0.00     0.035 C 
ENDROOT
BRANCH   3   7
HETATM    7  C   UNL     1       7.031  27.695  53.216  1.00  0.00     0.277 C 
BRANCH   7   8
HETATM    8  C   UNL     1       6.150  26.598  52.737  1.00  0.00     0.016 A 
HETATM    9  C   UNL     1       6.096  25.258  53.248  1.00  0.00     0.102 A 
HETATM   10  N   UNL     1       5.200  24.536  52.568  1.00  0.00    -0.174 NA
HETATM   11  N   UNL     1       4.641  25.377  51.698  1.00  0.00    -0.288 N 
HETATM   12  H   UNL     1       3.892  25.025  51.105  1.00  0.00     0.188 HD
HETATM   13  C   UNL     1       5.186  26.628  51.743  1.00  0.00     0.120 A 
BRANCH   9  14
HETATM   14  C   UNL     1       6.831  24.658  54.358  1.00  0.00     0.072 A 
HETATM   15  C   UNL     1       7.989  23.909  54.132  1.00  0.00     0.132 A 
HETATM   16  F   UNL     1       8.401  23.662  52.878  1.00  0.00    -0.205 F 
HETATM   17  C   UNL     1       8.733  23.379  55.187  1.00  0.00     0.043 A 
HETATM   18  C   UNL     1       8.321  23.593  56.500  1.00  0.00     0.006 A 
HETATM   19  C   UNL     1       7.160  24.324  56.748  1.00  0.00     0.043 A 
HETATM   20  C   UNL     1       6.424  24.849  55.682  1.00  0.00     0.132 A 
HETATM   21  F   UNL     1       5.288  25.501  55.963  1.00  0.00    -0.205 F 
ENDBRANCH   9  14
ENDBRANCH   7   8
ENDBRANCH   3   7
BRANCH   1  22
HETATM   22  C   UNL     1       6.146  29.596  57.723  1.00  0.00     0.127 C 
BRANCH  22  23
HETATM   23  N   UNL     1       7.380  29.242  58.420  1.00  0.00    -0.376 N 
HETATM   24  H   UNL     1       7.710  28.289  58.336  1.00  0.00     0.161 HD
BRANCH  23  25
HETATM   25  C   UNL     1       8.158  30.186  59.061  1.00  0.00     0.101 A 
HETATM   26  N   UNL     1       7.915  30.431  60.362  1.00  0.00    -0.347 N 
HETATM   27  C   UNL     1       8.594  31.327  61.106  1.00  0.00     0.007 A 
HETATM   28  H   UNL     1       7.169  29.907  60.807  1.00  0.00     0.167 HD
HETATM   29  C   UNL     1       8.222  31.509  62.542  1.00  0.00     0.068 C 
HETATM   30  C   UNL     1       9.620  32.061  60.517  1.00  0.00     0.025 A 
HETATM   31  C   UNL     1       9.915  31.855  59.178  1.00  0.00     0.006 A 
HETATM   32  C   UNL     1       9.181  30.921  58.448  1.00  0.00     0.048 A 
ENDBRANCH  23  25
ENDBRANCH  22  23
ENDBRANCH   1  22
TORSDOF 6
ENDMDL
MODEL 7
REMARK VINA RESULT:      -8.7      1.808      2.410
REMARK  6 active torsions:
REMARK  status: ('A' for Active; 'I' for Inactive)
REMARK    1  A    between atoms: C_5  and  N_6 
REMARK    2  A    between atoms: N_6  and  C_7 
REMARK    3  A    between atoms: C_7  and  C_8 
REMARK    4  A    between atoms: N_10  and  C_12 
REMARK    5  A    between atoms: C_12  and  C_13 
REMARK    6  A    between atoms: C_14  and  C_15 
ROOT
HETATM    1  C   UNL     1       5.934  30.299  57.054  1.00  0.00     0.031 C 
HETATM    2  C   UNL     1       7.180  29.647  56.447  1.00  0.00     0.241 C 
HETATM    3  N   UNL     1       6.717  29.080  55.119  1.00  0.00    -0.067 N 
HETATM    4  H   UNL     1       7.272  29.524  54.374  1.00  0.00     0.280 HD
HETATM    5  C   UNL     1       5.281  29.494  54.914  1.00  0.00     0.235 C 
HETATM    6  C   UNL     1       5.127  30.699  55.825  1.00  0.00     0.035 C 
ENDROOT
BRANCH   3   7
HETATM    7  C   UNL     1       6.943  27.596  54.933  1.00  0.00     0.277 C 
BRANCH   7   8
HETATM    8  C   UNL     1       6.045  26.739  55.751  1.00  0.00     0.016 A 
HETATM    9  C   UNL     1       6.029  25.304  55.786  1.00  0.00     0.102 A 
HETATM   10  N   UNL     1       5.081  24.869  56.621  1.00  0.00    -0.174 NA
HETATM   11  N   UNL     1       4.545  25.963  57.163  1.00  0.00    -0.288 N 
HETATM   12  H   UNL     1       3.821  25.842  57.869  1.00  0.00     0.188 HD
HETATM   13  C   UNL     1       5.076  27.117  56.664  1.00  0.00     0.120 A 
BRANCH   9  14
HETATM   14  C   UNL     1       6.886  24.350  55.089  1.00  0.00     0.072 A 
HETATM   15  C   UNL     1       6.641  24.003  53.757  1.00  0.00     0.132 A 
HETATM   16  F   UNL     1       5.562  24.485  53.120  1.00  0.00    -0.205 F 
HETATM   17  C   UNL     1       7.486  23.137  53.061  1.00  0.00     0.043 A 
HETATM   18  C   UNL     1       8.601  22.597  53.698  1.00  0.00     0.006 A 
HETATM   19  C   UNL     1       8.854  22.917  55.031  1.00  0.00     0.043 A 
HETATM   20  C   UNL     1       8.001  23.785  55.716  1.00  0.00     0.132 A 
HETATM   21  F   UNL     1       8.253  24.026  57.010  1.00  0.00    -0.205 F 
ENDBRANCH   9  14
ENDBRANCH   7   8
ENDBRANCH   3   7
BRANCH   1  22
HETATM   22  C   UNL     1       6.287  31.458  57.994  1.00  0.00     0.127 C 
BRANCH  22  23
HETATM   23  N   UNL     1       7.621  31.298  58.566  1.00  0.00    -0.376 N 
HETATM   24  H   UNL     1       8.386  31.106  57.931  1.00  0.00     0.161 HD
BRANCH  23  25
HETATM   25  C   UNL     1       7.878  31.529  59.904  1.00  0.00     0.101 A 
HETATM   26  N   UNL     1       6.834  31.576  60.752  1.00  0.00    -0.347 N 
HETATM   27  C   UNL     1       6.941  31.798  62.077  1.00  0.00     0.007 A 
HETATM   28  H   UNL     1       5.907  31.439  60.363  1.00  0.00     0.167 HD
HETATM   29  C   UNL     1       5.700  31.832  62.910  1.00  0.00     0.068 C 
HETATM   30  C   UNL     1       8.202  31.992  62.633  1.00  0.00     0.025 A 
HETATM   31  C   UNL     1       9.317  31.958  61.810  1.00  0.00     0.006 A 
HETATM   32  C   UNL     1       9.155  31.731  60.444  1.00  0.00     0.048 A 
ENDBRANCH  23  25
ENDBRANCH  22  23
ENDBRANCH   1  22
TORSDOF 6
ENDMDL
MODEL 8
REMARK VINA RESULT:      -8.6      4.141      8.458
REMARK  6 active torsions:
REMARK  status: ('A' for Active; 'I' for Inactive)
REMARK    1  A    between atoms: C_5  and  N_6 
REMARK    2  A    between atoms: N_6  and  C_7 
REMARK    3  A    between atoms: C_7  and  C_8 
REMARK    4  A    between atoms: N_10  and  C_12 
REMARK    5  A    between atoms: C_12  and  C_13 
REMARK    6  A    between atoms: C_14  and  C_15 
ROOT
HETATM    1  C   UNL     1       4.956  27.557  52.536  1.00  0.00     0.031 C 
HETATM    2  C   UNL     1       5.585  28.517  53.550  1.00  0.00     0.241 C 
HETATM    3  N   UNL     1       6.991  27.990  53.767  1.00  0.00    -0.067 N 
HETATM    4  H   UNL     1       7.652  28.731  53.498  1.00  0.00     0.280 HD
HETATM    5  C   UNL     1       7.204  26.835  52.821  1.00  0.00     0.235 C 
HETATM    6  C   UNL     1       6.161  27.065  51.741  1.00  0.00     0.035 C 
ENDROOT
BRANCH   3   7
HETATM    7  C   UNL     1       7.346  27.661  55.200  1.00  0.00     0.277 C 
BRANCH   7   8
HETATM    8  C   UNL     1       6.294  26.903  55.927  1.00  0.00     0.016 A 
HETATM    9  C   UNL     1       6.161  25.476  55.999  1.00  0.00     0.102 A 
HETATM   10  N   UNL     1       5.090  25.143  56.725  1.00  0.00    -0.174 NA
HETATM   11  N   UNL     1       4.581  26.292  57.169  1.00  0.00    -0.288 N 
HETATM   12  H   UNL     1       3.772  26.252  57.785  1.00  0.00     0.188 HD
HETATM   13  C   UNL     1       5.256  27.385  56.706  1.00  0.00     0.120 A 
BRANCH   9  14
HETATM   14  C   UNL     1       7.017  24.436  55.436  1.00  0.00     0.072 A 
HETATM   15  C   UNL     1       6.706  23.831  54.214  1.00  0.00     0.132 A 
HETATM   16  F   UNL     1       5.567  24.144  53.576  1.00  0.00    -0.205 F 
HETATM   17  C   UNL     1       7.545  22.878  53.636  1.00  0.00     0.043 A 
HETATM   18  C   UNL     1       8.723  22.509  54.283  1.00  0.00     0.006 A 
HETATM   19  C   UNL     1       9.044  23.088  55.510  1.00  0.00     0.043 A 
HETATM   20  C   UNL     1       8.195  24.041  56.077  1.00  0.00     0.132 A 
HETATM   21  F   UNL     1       8.517  24.534  57.281  1.00  0.00    -0.205 F 
ENDBRANCH   9  14
ENDBRANCH   7   8
ENDBRANCH   3   7
BRANCH   1  22
HETATM   22  C   UNL     1       3.869  28.236  51.694  1.00  0.00     0.127 C 
BRANCH  22  23
HETATM   23  N   UNL     1       4.302  28.426  50.311  1.00  0.00    -0.376 N 
HETATM   24  H   UNL     1       5.198  28.870  50.156  1.00  0.00     0.161 HD
BRANCH  23  25
HETATM   25  C   UNL     1       3.597  27.905  49.244  1.00  0.00     0.101 A 
HETATM   26  N   UNL     1       3.571  26.568  49.092  1.00  0.00    -0.347 N 
HETATM   27  C   UNL     1       2.927  25.929  48.096  1.00  0.00     0.007 A 
HETATM   28  H   UNL     1       4.074  26.009  49.773  1.00  0.00     0.167 HD
HETATM   29  C   UNL     1       2.981  24.436  48.036  1.00  0.00     0.068 C 
HETATM   30  C   UNL     1       2.232  26.674  47.148  1.00  0.00     0.025 A 
HETATM   31  C   UNL     1       2.224  28.057  47.249  1.00  0.00     0.006 A 
HETATM   32  C   UNL     1       2.910  28.673  48.295  1.00  0.00     0.048 A 
ENDBRANCH  23  25
ENDBRANCH  22  23
ENDBRANCH   1  22
TORSDOF 6
ENDMDL
MODEL 9
REMARK VINA RESULT:      -8.6      4.881      7.800
REMARK  6 active torsions:
REMARK  status: ('A' for Active; 'I' for Inactive)
REMARK    1  A    between atoms: C_5  and  N_6 
REMARK    2  A    between atoms: N_6  and  C_7 
REMARK    3  A    between atoms: C_7  and  C_8 
REMARK    4  A    between atoms: N_10  and  C_12 
REMARK    5  A    between atoms: C_12  and  C_13 
REMARK    6  A    between atoms: C_14  and  C_15 
ROOT
HETATM    1  C   UNL     1       4.682  28.528  52.865  1.00  0.00     0.031 C 
HETATM    2  C   UNL     1       3.873  27.308  53.312  1.00  0.00     0.241 C 
HETATM    3  N   UNL     1       4.747  26.613  54.338  1.00  0.00    -0.067 N 
HETATM    4  H   UNL     1       4.229  26.582  55.227  1.00  0.00     0.280 HD
HETATM    5  C   UNL     1       5.969  27.469  54.562  1.00  0.00     0.235 C 
HETATM    6  C   UNL     1       5.527  28.845  54.094  1.00  0.00     0.035 C 
ENDROOT
BRANCH   3   7
HETATM    7  C   UNL     1       5.078  25.168  54.037  1.00  0.00     0.277 C 
BRANCH   7   8
HETATM    8  C   UNL     1       6.240  24.989  53.128  1.00  0.00     0.016 A 
HETATM    9  C   UNL     1       7.405  24.188  53.375  1.00  0.00     0.102 A 
HETATM   10  N   UNL     1       8.256  24.273  52.347  1.00  0.00    -0.174 NA
HETATM   11  N   UNL     1       7.649  25.035  51.437  1.00  0.00    -0.288 N 
HETATM   12  H   UNL     1       8.123  25.189  50.549  1.00  0.00     0.188 HD
HETATM   13  C   UNL     1       6.441  25.508  51.860  1.00  0.00     0.120 A 
BRANCH   9  14
HETATM   14  C   UNL     1       7.721  23.339  54.520  1.00  0.00     0.072 A 
HETATM   15  C   UNL     1       7.699  21.946  54.409  1.00  0.00     0.132 A 
HETATM   16  F   UNL     1       7.309  21.364  53.263  1.00  0.00    -0.205 F 
HETATM   17  C   UNL     1       8.056  21.122  55.477  1.00  0.00     0.043 A 
HETATM   18  C   UNL     1       8.441  21.691  56.690  1.00  0.00     0.006 A 
HETATM   19  C   UNL     1       8.454  23.078  56.827  1.00  0.00     0.043 A 
HETATM   20  C   UNL     1       8.095  23.890  55.749  1.00  0.00     0.132 A 
HETATM   21  F   UNL     1       8.073  25.217  55.940  1.00  0.00    -0.205 F 
ENDBRANCH   9  14
ENDBRANCH   7   8
ENDBRANCH   3   7
BRANCH   1  22
HETATM   22  C   UNL     1       3.784  29.678  52.393  1.00  0.00     0.127 C 
BRANCH  22  23
HETATM   23  N   UNL     1       3.070  29.332  51.166  1.00  0.00    -0.376 N 
HETATM   24  H   UNL     1       2.102  29.615  51.089  1.00  0.00     0.161 HD
BRANCH  23  25
HETATM   25  C   UNL     1       3.709  28.762  50.082  1.00  0.00     0.101 A 
HETATM   26  N   UNL     1       3.303  27.545  49.674  1.00  0.00    -0.347 N 
HETATM   27  C   UNL     1       3.840  26.874  48.636  1.00  0.00     0.007 A 
HETATM   28  H   UNL     1       2.546  27.107  50.187  1.00  0.00     0.167 HD
HETATM   29  C   UNL     1       3.302  25.523  48.287  1.00  0.00     0.068 C 
HETATM   30  C   UNL     1       4.883  27.453  47.918  1.00  0.00     0.025 A 
HETATM   31  C   UNL     1       5.347  28.705  48.293  1.00  0.00     0.006 A 
HETATM   32  C   UNL     1       4.763  29.357  49.378  1.00  0.00     0.048 A 
ENDBRANCH  23  25
ENDBRANCH  22  23
ENDBRANCH   1  22
TORSDOF 6
ENDMDL
MODEL 10
REMARK VINA RESULT:      -8.5      3.106      9.354
REMARK  6 active torsions:
REMARK  status: ('A' for Active; 'I' for Inactive)
REMARK    1  A    between atoms: C_5  and  N_6 
REMARK    2  A    between atoms: N_6  and  C_7 
REMARK    3  A    between atoms: C_7  and  C_8 
REMARK    4  A    between atoms: N_10  and  C_12 
REMARK    5  A    between atoms: C_12  and  C_13 
REMARK    6  A    between atoms: C_14  and  C_15 
ROOT
HETATM    1  C   UNL     1       6.663  26.902  55.175  1.00  0.00     0.031 C 
HETATM    2  C   UNL     1       7.700  27.597  56.062  1.00  0.00     0.241 C 
HETATM    3  N   UNL     1       6.943  27.989  57.317  1.00  0.00    -0.067 N 
HETATM    4  H   UNL     1       7.392  27.524  58.117  1.00  0.00     0.280 HD
HETATM    5  C   UNL     1       5.544  27.435  57.205  1.00  0.00     0.235 C 
HETATM    6  C   UNL     1       5.687  26.315  56.188  1.00  0.00     0.035 C 
ENDROOT
BRANCH   3   7
HETATM    7  C   UNL     1       6.975  29.461  57.660  1.00  0.00     0.277 C 
BRANCH   7   8
HETATM    8  C   UNL     1       8.345  30.028  57.769  1.00  0.00     0.016 A 
HETATM    9  C   UNL     1       8.845  30.863  58.824  1.00  0.00     0.102 A 
HETATM   10  N   UNL     1      10.116  31.202  58.588  1.00  0.00    -0.174 NA
HETATM   11  N   UNL     1      10.459  30.564  57.469  1.00  0.00    -0.288 N 
HETATM   12  H   UNL     1      11.417  30.660  57.137  1.00  0.00     0.188 HD
HETATM   13  C   UNL     1       9.427  29.857  56.923  1.00  0.00     0.120 A 
BRANCH   9  14
HETATM   14  C   UNL     1       8.179  31.318  60.041  1.00  0.00     0.072 A 
HETATM   15  C   UNL     1       8.648  30.939  61.302  1.00  0.00     0.132 A 
HETATM   16  F   UNL     1       9.675  30.081  61.412  1.00  0.00    -0.205 F 
HETATM   17  C   UNL     1       8.057  31.413  62.474  1.00  0.00     0.043 A 
HETATM   18  C   UNL     1       6.972  32.284  62.398  1.00  0.00     0.006 A 
HETATM   19  C   UNL     1       6.479  32.663  61.151  1.00  0.00     0.043 A 
HETATM   20  C   UNL     1       7.080  32.180  59.986  1.00  0.00     0.132 A 
HETATM   21  F   UNL     1       6.542  32.530  58.809  1.00  0.00    -0.205 F 
ENDBRANCH   9  14
ENDBRANCH   7   8
ENDBRANCH   3   7
BRANCH   1  22
HETATM   22  C   UNL     1       7.301  25.875  54.233  1.00  0.00     0.127 C 
BRANCH  22  23
HETATM   23  N   UNL     1       6.606  24.591  54.289  1.00  0.00    -0.376 N 
HETATM   24  H   UNL     1       5.658  24.555  53.938  1.00  0.00     0.161 HD
BRANCH  23  25
HETATM   25  C   UNL     1       7.244  23.428  54.674  1.00  0.00     0.101 A 
HETATM   26  N   UNL     1       7.517  22.511  53.727  1.00  0.00    -0.347 N 
HETATM   27  C   UNL     1       8.130  21.334  53.964  1.00  0.00     0.007 A 
HETATM   28  H   UNL     1       7.238  22.722  52.775  1.00  0.00     0.167 HD
HETATM   29  C   UNL     1       8.370  20.398  52.823  1.00  0.00     0.068 C 
HETATM   30  C   UNL     1       8.519  21.020  55.263  1.00  0.00     0.025 A 
HETATM   31  C   UNL     1       8.263  21.924  56.282  1.00  0.00     0.006 A 
HETATM   32  C   UNL     1       7.621  23.127  55.989  1.00  0.00     0.048 A 
ENDBRANCH  23  25
ENDBRANCH  22  23
ENDBRANCH   1  22
TORSDOF 6
ENDMDL
