MODEL 1
REMARK VINA RESULT:      -9.5      0.000      0.000
REMARK  4 active torsions:
REMARK  status: ('A' for Active; 'I' for Inactive)
REMARK    1  A    between atoms: C_4  and  N_5 
REMARK       I    between atoms: N_5  and  C_6 
REMARK    2  A    between atoms: C_6  and  C_7 
REMARK    3  A    between atoms: C_7  and  C_8 
REMARK    4  A    between atoms: C_10  and  O_11 
ROOT
HETATM    1  N   UNL     1       7.700  26.275  56.300  1.00  0.00    -0.325 N 
HETATM    2  C   UNL     1       7.685  26.724  57.602  1.00  0.00     0.226 C 
HETATM    3  O   UNL     1       7.953  26.055  58.598  1.00  0.00    -0.273 OA
HETATM    4  H   UNL     1       7.655  26.950  55.538  1.00  0.00     0.169 HD
ENDROOT
BRANCH   1   5
HETATM    5  C   UNL     1       7.850  24.943  55.840  1.00  0.00     0.065 A 
HETATM    6  C   UNL     1       8.031  23.857  56.704  1.00  0.00     0.038 A 
HETATM    7  C   UNL     1       8.125  22.555  56.203  1.00  0.00    -0.059 A 
HETATM    8  C   UNL     1       8.299  21.387  57.129  1.00  0.00     0.048 C 
HETATM    9  C   UNL     1       8.058  22.355  54.822  1.00  0.00     0.020 A 
HETATM   10  C   UNL     1       7.878  23.440  53.949  1.00  0.00    -0.005 A 
HETATM   11  C   UNL     1       7.763  24.753  54.452  1.00  0.00     0.093 A 
HETATM   12  C   UNL     1       7.807  23.254  52.561  1.00  0.00     0.015 A 
HETATM   13  N   UNL     1       7.578  25.819  53.632  1.00  0.00    -0.258 NA
HETATM   14  C   UNL     1       7.518  25.595  52.300  1.00  0.00     0.117 A 
HETATM   15  C   UNL     1       7.627  24.345  51.723  1.00  0.00     0.020 A 
ENDBRANCH   1   5
BRANCH   2  16
HETATM   16  C   UNL     1       7.259  28.181  57.733  1.00  0.00     0.141 C 
BRANCH  16  17
HETATM   17  C   UNL     1       8.448  29.116  57.738  1.00  0.00    -0.047 A 
HETATM   18  C   UNL     1       8.406  30.307  58.481  1.00  0.00     0.044 A 
HETATM   19  C   UNL     1       9.486  31.184  58.455  1.00  0.00     0.066 A 
HETATM   20  C   UNL     1      10.623  30.890  57.715  1.00  0.00     0.036 A 
HETATM   21  C   UNL     1      10.680  29.704  56.983  1.00  0.00     0.003 A 
HETATM   22  C   UNL     1       9.596  28.822  56.992  1.00  0.00     0.007 A 
BRANCH  19  23
HETATM   23  O   UNL     1       9.459  32.360  59.145  1.00  0.00    -0.361 OA
HETATM   24  H   UNL     1       8.730  32.900  58.794  1.00  0.00     0.217 HD
ENDBRANCH  19  23
ENDBRANCH  16  17
ENDBRANCH   2  16
TORSDOF 4
ENDMDL
MODEL 2
REMARK VINA RESULT:      -9.3      1.503      2.876
REMARK  4 active torsions:
REMARK  status: ('A' for Active; 'I' for Inactive)
REMARK    1  A    between atoms: C_4  and  N_5 
REMARK       I    between atoms: N_5  and  C_6 
REMARK    2  A    between atoms: C_6  and  C_7 
REMARK    3  A    between atoms: C_7  and  C_8 
REMARK    4  A    between atoms: C_10  and  O_11 
ROOT
HETATM    1  N   UNL     1       6.842  26.367  56.182  1.00  0.00    -0.325 N 
HETATM    2  C   UNL     1       6.937  27.737  56.287  1.00  0.00     0.226 C 
HETATM    3  O   UNL     1       6.796  28.542  55.368  1.00  0.00    -0.273 OA
HETATM    4  H   UNL     1       6.780  25.804  57.029  1.00  0.00     0.169 HD
ENDROOT
BRANCH   1   5
HETATM    5  C   UNL     1       6.739  25.589  55.002  1.00  0.00     0.065 A 
HETATM    6  C   UNL     1       5.898  25.933  53.937  1.00  0.00     0.038 A 
HETATM    7  C   UNL     1       5.869  25.159  52.774  1.00  0.00    -0.059 A 
HETATM    8  C   UNL     1       4.983  25.535  51.623  1.00  0.00     0.048 C 
HETATM    9  C   UNL     1       6.677  24.022  52.697  1.00  0.00     0.020 A 
HETATM   10  C   UNL     1       7.523  23.670  53.762  1.00  0.00    -0.005 A 
HETATM   11  C   UNL     1       7.570  24.460  54.930  1.00  0.00     0.093 A 
HETATM   12  C   UNL     1       8.341  22.534  53.697  1.00  0.00     0.015 A 
HETATM   13  N   UNL     1       8.385  24.151  55.970  1.00  0.00    -0.258 NA
HETATM   14  C   UNL     1       9.155  23.043  55.868  1.00  0.00     0.117 A 
HETATM   15  C   UNL     1       9.168  22.213  54.765  1.00  0.00     0.020 A 
ENDBRANCH   1   5
BRANCH   2  16
HETATM   16  C   UNL     1       7.279  28.212  57.694  1.00  0.00     0.141 C 
BRANCH  16  17
HETATM   17  C   UNL     1       8.492  29.115  57.703  1.00  0.00    -0.047 A 
HETATM   18  C   UNL     1       8.468  30.324  58.418  1.00  0.00     0.044 A 
HETATM   19  C   UNL     1       9.571  31.171  58.395  1.00  0.00     0.066 A 
HETATM   20  C   UNL     1      10.715  30.830  57.685  1.00  0.00     0.036 A 
HETATM   21  C   UNL     1      10.755  29.627  56.982  1.00  0.00     0.003 A 
HETATM   22  C   UNL     1       9.648  28.774  56.988  1.00  0.00     0.007 A 
BRANCH  19  23
HETATM   23  O   UNL     1       9.561  32.363  59.058  1.00  0.00    -0.361 OA
HETATM   24  H   UNL     1       8.647  32.693  59.074  1.00  0.00     0.217 HD
ENDBRANCH  19  23
ENDBRANCH  16  17
ENDBRANCH   2  16
TORSDOF 4
ENDMDL
MODEL 3
REMARK VINA RESULT:      -9.2      4.107      7.184
REMARK  4 active torsions:
REMARK  status: ('A' for Active; 'I' for Inactive)
REMARK    1  A    between atoms: C_4  and  N_5 
REMARK       I    between atoms: N_5  and  C_6 
REMARK    2  A    between atoms: C_6  and  C_7 
REMARK    3  A    between atoms: C_7  and  C_8 
REMARK    4  A    between atoms: C_10  and  O_11 
ROOT
HETATM    1  N   UNL     1       5.928  24.564  53.115  1.00  0.00    -0.325 N 
HETATM    2  C   UNL     1       6.111  25.431  52.061  1.00  0.00     0.226 C 
HETATM    3  O   UNL     1       7.125  25.524  51.372  1.00  0.00    -0.273 OA
HETATM    4  H   UNL     1       4.993  24.427  53.493  1.00  0.00     0.169 HD
ENDROOT
BRANCH   1   5
HETATM    5  C   UNL     1       6.894  23.734  53.738  1.00  0.00     0.065 A 
HETATM    6  C   UNL     1       7.329  22.526  53.182  1.00  0.00     0.038 A 
HETATM    7  C   UNL     1       8.321  21.768  53.811  1.00  0.00    -0.059 A 
HETATM    8  C   UNL     1       8.803  20.481  53.208  1.00  0.00     0.048 C 
HETATM    9  C   UNL     1       8.857  22.223  55.018  1.00  0.00     0.020 A 
HETATM   10  C   UNL     1       8.425  23.435  55.583  1.00  0.00    -0.005 A 
HETATM   11  C   UNL     1       7.438  24.213  54.940  1.00  0.00     0.093 A 
HETATM   12  C   UNL     1       8.956  23.905  56.792  1.00  0.00     0.015 A 
HETATM   13  N   UNL     1       7.010  25.392  55.457  1.00  0.00    -0.258 NA
HETATM   14  C   UNL     1       7.546  25.807  56.628  1.00  0.00     0.117 A 
HETATM   15  C   UNL     1       8.510  25.107  57.325  1.00  0.00     0.020 A 
ENDBRANCH   1   5
BRANCH   2  16
HETATM   16  C   UNL     1       4.914  26.340  51.813  1.00  0.00     0.141 C 
BRANCH  16  17
HETATM   17  C   UNL     1       4.907  26.889  50.404  1.00  0.00    -0.047 A 
HETATM   18  C   UNL     1       4.336  26.144  49.359  1.00  0.00     0.044 A 
HETATM   19  C   UNL     1       4.363  26.634  48.057  1.00  0.00     0.066 A 
HETATM   20  C   UNL     1       4.936  27.867  47.772  1.00  0.00     0.036 A 
HETATM   21  C   UNL     1       5.495  28.620  48.804  1.00  0.00     0.003 A 
HETATM   22  C   UNL     1       5.483  28.132  50.114  1.00  0.00     0.007 A 
BRANCH  19  23
HETATM   23  O   UNL     1       3.841  25.917  47.020  1.00  0.00    -0.361 OA
HETATM   24  H   UNL     1       3.980  26.423  46.202  1.00  0.00     0.217 HD
ENDBRANCH  19  23
ENDBRANCH  16  17
ENDBRANCH   2  16
TORSDOF 4
ENDMDL
MODEL 4
REMARK VINA RESULT:      -9.0      3.816      7.137
REMARK  4 active torsions:
REMARK  status: ('A' for Active; 'I' for Inactive)
REMARK    1  A    between atoms: C_4  and  N_5 
REMARK       I    between atoms: N_5  and  C_6 
REMARK    2  A    between atoms: C_6  and  C_7 
REMARK    3  A    between atoms: C_7  and  C_8 
REMARK    4  A    between atoms: C_10  and  O_11 
ROOT
HETATM    1  N   UNL     1       6.167  24.370  53.026  1.00  0.00    -0.325 N 
HETATM    2  C   UNL     1       7.477  24.000  52.811  1.00  0.00     0.226 C 
HETATM    3  O   UNL     1       8.404  24.761  52.540  1.00  0.00    -0.273 OA
HETATM    4  H   UNL     1       5.519  23.698  53.433  1.00  0.00     0.169 HD
ENDROOT
BRANCH   1   5
HETATM    5  C   UNL     1       5.575  25.640  52.817  1.00  0.00     0.065 A 
HETATM    6  C   UNL     1       5.249  26.127  51.545  1.00  0.00     0.038 A 
HETATM    7  C   UNL     1       4.622  27.367  51.396  1.00  0.00    -0.059 A 
HETATM    8  C   UNL     1       4.253  27.882  50.036  1.00  0.00     0.048 C 
HETATM    9  C   UNL     1       4.344  28.126  52.535  1.00  0.00     0.020 A 
HETATM   10  C   UNL     1       4.669  27.645  53.814  1.00  0.00    -0.005 A 
HETATM   11  C   UNL     1       5.285  26.385  53.971  1.00  0.00     0.093 A 
HETATM   12  C   UNL     1       4.394  28.395  54.966  1.00  0.00     0.015 A 
HETATM   13  N   UNL     1       5.600  25.891  55.194  1.00  0.00    -0.258 NA
HETATM   14  C   UNL     1       5.321  26.649  56.279  1.00  0.00     0.117 A 
HETATM   15  C   UNL     1       4.725  27.893  56.217  1.00  0.00     0.020 A 
ENDBRANCH   1   5
BRANCH   2  16
HETATM   16  C   UNL     1       7.704  22.497  52.907  1.00  0.00     0.141 C 
BRANCH  16  17
HETATM   17  C   UNL     1       7.902  22.049  54.338  1.00  0.00    -0.047 A 
HETATM   18  C   UNL     1       8.061  23.000  55.360  1.00  0.00     0.044 A 
HETATM   19  C   UNL     1       8.280  22.586  56.670  1.00  0.00     0.066 A 
HETATM   20  C   UNL     1       8.327  21.236  56.991  1.00  0.00     0.036 A 
HETATM   21  C   UNL     1       8.159  20.284  55.987  1.00  0.00     0.003 A 
HETATM   22  C   UNL     1       7.950  20.688  54.665  1.00  0.00     0.007 A 
BRANCH  19  23
HETATM   23  O   UNL     1       8.466  23.489  57.675  1.00  0.00    -0.361 OA
HETATM   24  H   UNL     1       9.421  23.569  57.838  1.00  0.00     0.217 HD
ENDBRANCH  19  23
ENDBRANCH  16  17
ENDBRANCH   2  16
TORSDOF 4
ENDMDL
MODEL 5
REMARK VINA RESULT:      -9.0      4.937      8.188
REMARK  4 active torsions:
REMARK  status: ('A' for Active; 'I' for Inactive)
REMARK    1  A    between atoms: C_4  and  N_5 
REMARK       I    between atoms: N_5  and  C_6 
REMARK    2  A    between atoms: C_6  and  C_7 
REMARK    3  A    between atoms: C_7  and  C_8 
REMARK    4  A    between atoms: C_10  and  O_11 
ROOT
HETATM    1  N   UNL     1       6.410  25.965  51.481  1.00  0.00    -0.325 N 
HETATM    2  C   UNL     1       6.307  25.058  52.512  1.00  0.00     0.226 C 
HETATM    3  O   UNL     1       5.274  24.502  52.882  1.00  0.00    -0.273 OA
HETATM    4  H   UNL     1       7.331  26.217  51.128  1.00  0.00     0.169 HD
ENDROOT
BRANCH   1   5
HETATM    5  C   UNL     1       5.360  26.578  50.753  1.00  0.00     0.065 A 
HETATM    6  C   UNL     1       4.855  26.051  49.558  1.00  0.00     0.038 A 
HETATM    7  C   UNL     1       3.785  26.668  48.903  1.00  0.00    -0.059 A 
HETATM    8  C   UNL     1       3.229  26.094  47.633  1.00  0.00     0.048 C 
HETATM    9  C   UNL     1       3.240  27.833  49.447  1.00  0.00     0.020 A 
HETATM   10  C   UNL     1       3.742  28.369  50.644  1.00  0.00    -0.005 A 
HETATM   11  C   UNL     1       4.809  27.738  51.319  1.00  0.00     0.093 A 
HETATM   12  C   UNL     1       3.203  29.536  51.202  1.00  0.00     0.015 A 
HETATM   13  N   UNL     1       5.306  28.227  52.483  1.00  0.00    -0.258 NA
HETATM   14  C   UNL     1       4.759  29.358  52.985  1.00  0.00     0.117 A 
HETATM   15  C   UNL     1       3.718  30.041  52.388  1.00  0.00     0.020 A 
ENDBRANCH   1   5
BRANCH   2  16
HETATM   16  C   UNL     1       7.629  24.798  53.222  1.00  0.00     0.141 C 
BRANCH  16  17
HETATM   17  C   UNL     1       7.715  23.384  53.751  1.00  0.00    -0.047 A 
HETATM   18  C   UNL     1       7.936  22.313  52.869  1.00  0.00     0.044 A 
HETATM   19  C   UNL     1       7.979  21.009  53.352  1.00  0.00     0.066 A 
HETATM   20  C   UNL     1       7.823  20.746  54.707  1.00  0.00     0.036 A 
HETATM   21  C   UNL     1       7.615  21.803  55.592  1.00  0.00     0.003 A 
HETATM   22  C   UNL     1       7.559  23.116  55.117  1.00  0.00     0.007 A 
BRANCH  19  23
HETATM   23  O   UNL     1       8.164  19.949  52.513  1.00  0.00    -0.361 OA
HETATM   24  H   UNL     1       7.685  20.131  51.687  1.00  0.00     0.217 HD
ENDBRANCH  19  23
ENDBRANCH  16  17
ENDBRANCH   2  16
TORSDOF 4
ENDMDL
MODEL 6
REMARK VINA RESULT:      -9.0      2.850      7.580
REMARK  4 active torsions:
REMARK  status: ('A' for Active; 'I' for Inactive)
REMARK    1  A    between atoms: C_4  and  N_5 
REMARK       I    between atoms: N_5  and  C_6 
REMARK    2  A    between atoms: C_6  and  C_7 
REMARK    3  A    between atoms: C_7  and  C_8 
REMARK    4  A    between atoms: C_10  and  O_11 
ROOT
HETATM    1  N   UNL     1       7.482  26.216  55.416  1.00  0.00    -0.325 N 
HETATM    2  C   UNL     1       7.185  24.972  55.928  1.00  0.00     0.226 C 
HETATM    3  O   UNL     1       6.074  24.591  56.294  1.00  0.00    -0.273 OA
HETATM    4  H   UNL     1       8.382  26.367  54.963  1.00  0.00     0.169 HD
ENDROOT
BRANCH   1   5
HETATM    5  C   UNL     1       6.644  27.357  55.359  1.00  0.00     0.065 A 
HETATM    6  C   UNL     1       5.626  27.506  54.411  1.00  0.00     0.038 A 
HETATM    7  C   UNL     1       4.794  28.630  54.428  1.00  0.00    -0.059 A 
HETATM    8  C   UNL     1       3.689  28.783  53.425  1.00  0.00     0.048 C 
HETATM    9  C   UNL     1       5.009  29.616  55.394  1.00  0.00     0.020 A 
HETATM   10  C   UNL     1       6.031  29.474  56.348  1.00  0.00    -0.005 A 
HETATM   11  C   UNL     1       6.859  28.332  56.347  1.00  0.00     0.093 A 
HETATM   12  C   UNL     1       6.256  30.454  57.325  1.00  0.00     0.015 A 
HETATM   13  N   UNL     1       7.846  28.163  57.263  1.00  0.00    -0.258 NA
HETATM   14  C   UNL     1       8.031  29.135  58.185  1.00  0.00     0.117 A 
HETATM   15  C   UNL     1       7.271  30.286  58.256  1.00  0.00     0.020 A 
ENDBRANCH   1   5
BRANCH   2  16
HETATM   16  C   UNL     1       8.400  24.061  56.046  1.00  0.00     0.141 C 
BRANCH  16  17
HETATM   17  C   UNL     1       8.325  22.897  55.084  1.00  0.00    -0.047 A 
HETATM   18  C   UNL     1       8.685  21.607  55.507  1.00  0.00     0.044 A 
HETATM   19  C   UNL     1       8.651  20.544  54.610  1.00  0.00     0.066 A 
HETATM   20  C   UNL     1       8.246  20.735  53.295  1.00  0.00     0.036 A 
HETATM   21  C   UNL     1       7.876  22.009  52.868  1.00  0.00     0.003 A 
HETATM   22  C   UNL     1       7.917  23.087  53.757  1.00  0.00     0.007 A 
BRANCH  19  23
HETATM   23  O   UNL     1       9.023  19.287  54.988  1.00  0.00    -0.361 OA
HETATM   24  H   UNL     1       8.894  19.210  55.948  1.00  0.00     0.217 HD
ENDBRANCH  19  23
ENDBRANCH  16  17
ENDBRANCH   2  16
TORSDOF 4
ENDMDL
MODEL 7
REMARK VINA RESULT:      -8.8      3.056      7.377
REMARK  4 active torsions:
REMARK  status: ('A' for Active; 'I' for Inactive)
REMARK    1  A    between atoms: C_4  and  N_5 
REMARK       I    between atoms: N_5  and  C_6 
REMARK    2  A    between atoms: C_6  and  C_7 
REMARK    3  A    between atoms: C_7  and  C_8 
REMARK    4  A    between atoms: C_10  and  O_11 
ROOT
HETATM    1  N   UNL     1       7.148  26.294  53.296  1.00  0.00    -0.325 N 
HETATM    2  C   UNL     1       6.707  25.017  53.028  1.00  0.00     0.226 C 
HETATM    3  O   UNL     1       5.551  24.616  53.142  1.00  0.00    -0.273 OA
HETATM    4  H   UNL     1       8.076  26.577  52.987  1.00  0.00     0.169 HD
ENDROOT
BRANCH   1   5
HETATM    5  C   UNL     1       6.432  27.351  53.911  1.00  0.00     0.065 A 
HETATM    6  C   UNL     1       5.405  28.050  53.265  1.00  0.00     0.038 A 
HETATM    7  C   UNL     1       4.696  29.053  53.932  1.00  0.00    -0.059 A 
HETATM    8  C   UNL     1       3.583  29.790  53.248  1.00  0.00     0.048 C 
HETATM    9  C   UNL     1       5.042  29.364  55.249  1.00  0.00     0.020 A 
HETATM   10  C   UNL     1       6.072  28.668  55.904  1.00  0.00    -0.005 A 
HETATM   11  C   UNL     1       6.777  27.642  55.240  1.00  0.00     0.093 A 
HETATM   12  C   UNL     1       6.427  28.969  57.226  1.00  0.00     0.015 A 
HETATM   13  N   UNL     1       7.768  26.946  55.852  1.00  0.00    -0.258 NA
HETATM   14  C   UNL     1       8.082  27.271  57.127  1.00  0.00     0.117 A 
HETATM   15  C   UNL     1       7.448  28.263  57.848  1.00  0.00     0.020 A 
ENDBRANCH   1   5
BRANCH   2  16
HETATM   16  C   UNL     1       7.819  24.075  52.586  1.00  0.00     0.141 C 
BRANCH  16  17
HETATM   17  C   UNL     1       7.925  22.866  53.488  1.00  0.00    -0.047 A 
HETATM   18  C   UNL     1       8.073  23.031  54.876  1.00  0.00     0.044 A 
HETATM   19  C   UNL     1       8.206  21.919  55.700  1.00  0.00     0.066 A 
HETATM   20  C   UNL     1       8.178  20.635  55.173  1.00  0.00     0.036 A 
HETATM   21  C   UNL     1       8.020  20.459  53.799  1.00  0.00     0.003 A 
HETATM   22  C   UNL     1       7.896  21.569  52.959  1.00  0.00     0.007 A 
BRANCH  19  23
HETATM   23  O   UNL     1       8.379  22.054  57.047  1.00  0.00    -0.361 OA
HETATM   24  H   UNL     1       8.147  22.965  57.292  1.00  0.00     0.217 HD
ENDBRANCH  19  23
ENDBRANCH  16  17
ENDBRANCH   2  16
TORSDOF 4
ENDMDL
MODEL 8
REMARK VINA RESULT:      -8.8      4.007      6.885
REMARK  4 active torsions:
REMARK  status: ('A' for Active; 'I' for Inactive)
REMARK    1  A    between atoms: C_4  and  N_5 
REMARK       I    between atoms: N_5  and  C_6 
REMARK    2  A    between atoms: C_6  and  C_7 
REMARK    3  A    between atoms: C_7  and  C_8 
REMARK    4  A    between atoms: C_10  and  O_11 
ROOT
HETATM    1  N   UNL     1       6.028  24.782  53.357  1.00  0.00    -0.325 N 
HETATM    2  C   UNL     1       7.331  24.498  53.010  1.00  0.00     0.226 C 
HETATM    3  O   UNL     1       8.223  25.324  52.825  1.00  0.00    -0.273 OA
HETATM    4  H   UNL     1       5.422  24.029  53.676  1.00  0.00     0.169 HD
ENDROOT
BRANCH   1   5
HETATM    5  C   UNL     1       5.396  26.049  53.404  1.00  0.00     0.065 A 
HETATM    6  C   UNL     1       5.210  26.761  54.595  1.00  0.00     0.038 A 
HETATM    7  C   UNL     1       4.624  28.030  54.583  1.00  0.00    -0.059 A 
HETATM    8  C   UNL     1       4.440  28.803  55.855  1.00  0.00     0.048 C 
HETATM    9  C   UNL     1       4.205  28.570  53.364  1.00  0.00     0.020 A 
HETATM   10  C   UNL     1       4.388  27.861  52.165  1.00  0.00    -0.005 A 
HETATM   11  C   UNL     1       4.997  26.589  52.172  1.00  0.00     0.093 A 
HETATM   12  C   UNL     1       3.975  28.392  50.936  1.00  0.00     0.015 A 
HETATM   13  N   UNL     1       5.196  25.886  51.027  1.00  0.00    -0.258 NA
HETATM   14  C   UNL     1       4.779  26.434  49.863  1.00  0.00     0.117 A 
HETATM   15  C   UNL     1       4.170  27.669  49.767  1.00  0.00     0.020 A 
ENDBRANCH   1   5
BRANCH   2  16
HETATM   16  C   UNL     1       7.598  23.009  52.832  1.00  0.00     0.141 C 
BRANCH  16  17
HETATM   17  C   UNL     1       7.844  22.320  54.155  1.00  0.00    -0.047 A 
HETATM   18  C   UNL     1       7.984  23.076  55.330  1.00  0.00     0.044 A 
HETATM   19  C   UNL     1       8.247  22.443  56.541  1.00  0.00     0.066 A 
HETATM   20  C   UNL     1       8.356  21.060  56.611  1.00  0.00     0.036 A 
HETATM   21  C   UNL     1       8.207  20.299  55.453  1.00  0.00     0.003 A 
HETATM   22  C   UNL     1       7.954  20.925  54.229  1.00  0.00     0.007 A 
BRANCH  19  23
HETATM   23  O   UNL     1       8.415  23.157  57.691  1.00  0.00    -0.361 OA
HETATM   24  H   UNL     1       8.568  24.086  57.450  1.00  0.00     0.217 HD
ENDBRANCH  19  23
ENDBRANCH  16  17
ENDBRANCH   2  16
TORSDOF 4
ENDMDL
MODEL 9
REMARK VINA RESULT:      -8.8      3.836      6.215
REMARK  4 active torsions:
REMARK  status: ('A' for Active; 'I' for Inactive)
REMARK    1  A    between atoms: C_4  and  N_5 
REMARK       I    between atoms: N_5  and  C_6 
REMARK    2  A    between atoms: C_6  and  C_7 
REMARK    3  A    between atoms: C_7  and  C_8 
REMARK    4  A    between atoms: C_10  and  O_11 
ROOT
HETATM    1  N   UNL     1       6.024  24.312  53.294  1.00  0.00    -0.325 N 
HETATM    2  C   UNL     1       6.263  25.093  52.184  1.00  0.00     0.226 C 
HETATM    3  O   UNL     1       7.356  25.535  51.837  1.00  0.00    -0.273 OA
HETATM    4  H   UNL     1       5.128  23.837  53.386  1.00  0.00     0.169 HD
ENDROOT
BRANCH   1   5
HETATM    5  C   UNL     1       6.919  23.998  54.347  1.00  0.00     0.065 A 
HETATM    6  C   UNL     1       7.135  24.847  55.438  1.00  0.00     0.038 A 
HETATM    7  C   UNL     1       7.992  24.470  56.476  1.00  0.00    -0.059 A 
HETATM    8  C   UNL     1       8.210  25.370  57.657  1.00  0.00     0.048 C 
HETATM    9  C   UNL     1       8.649  23.240  56.398  1.00  0.00     0.020 A 
HETATM   10  C   UNL     1       8.439  22.383  55.305  1.00  0.00    -0.005 A 
HETATM   11  C   UNL     1       7.559  22.751  54.265  1.00  0.00     0.093 A 
HETATM   12  C   UNL     1       9.089  21.145  55.215  1.00  0.00     0.015 A 
HETATM   13  N   UNL     1       7.329  21.939  53.203  1.00  0.00    -0.258 NA
HETATM   14  C   UNL     1       7.980  20.755  53.154  1.00  0.00     0.117 A 
HETATM   15  C   UNL     1       8.860  20.318  54.124  1.00  0.00     0.020 A 
ENDBRANCH   1   5
BRANCH   2  16
HETATM   16  C   UNL     1       5.004  25.414  51.390  1.00  0.00     0.141 C 
BRANCH  16  17
HETATM   17  C   UNL     1       5.128  26.724  50.644  1.00  0.00    -0.047 A 
HETATM   18  C   UNL     1       5.473  27.899  51.333  1.00  0.00     0.044 A 
HETATM   19  C   UNL     1       5.551  29.109  50.652  1.00  0.00     0.066 A 
HETATM   20  C   UNL     1       5.309  29.174  49.286  1.00  0.00     0.036 A 
HETATM   21  C   UNL     1       4.977  28.012  48.591  1.00  0.00     0.003 A 
HETATM   22  C   UNL     1       4.884  26.792  49.266  1.00  0.00     0.007 A 
BRANCH  19  23
HETATM   23  O   UNL     1       5.857  30.268  51.303  1.00  0.00    -0.361 OA
HETATM   24  H   UNL     1       6.528  30.740  50.782  1.00  0.00     0.217 HD
ENDBRANCH  19  23
ENDBRANCH  16  17
ENDBRANCH   2  16
TORSDOF 4
ENDMDL
MODEL 10
REMARK VINA RESULT:      -8.7      3.411      5.569
REMARK  4 active torsions:
REMARK  status: ('A' for Active; 'I' for Inactive)
REMARK    1  A    between atoms: C_4  and  N_5 
REMARK       I    between atoms: N_5  and  C_6 
REMARK    2  A    between atoms: C_6  and  C_7 
REMARK    3  A    between atoms: C_7  and  C_8 
REMARK    4  A    between atoms: C_10  and  O_11 
ROOT
HETATM    1  N   UNL     1       6.925  25.184  52.559  1.00  0.00    -0.325 N 
HETATM    2  C   UNL     1       5.607  25.410  52.228  1.00  0.00     0.226 C 
HETATM    3  O   UNL     1       4.636  24.809  52.686  1.00  0.00    -0.273 OA
HETATM    4  H   UNL     1       7.633  25.859  52.276  1.00  0.00     0.169 HD
ENDROOT
BRANCH   1   5
HETATM    5  C   UNL     1       7.458  24.128  53.339  1.00  0.00     0.065 A 
HETATM    6  C   UNL     1       7.715  22.855  52.819  1.00  0.00     0.038 A 
HETATM    7  C   UNL     1       8.288  21.861  53.618  1.00  0.00    -0.059 A 
HETATM    8  C   UNL     1       8.583  20.501  53.058  1.00  0.00     0.048 C 
HETATM    9  C   UNL     1       8.581  22.151  54.953  1.00  0.00     0.020 A 
HETATM   10  C   UNL     1       8.324  23.427  55.482  1.00  0.00    -0.005 A 
HETATM   11  C   UNL     1       7.765  24.438  54.673  1.00  0.00     0.093 A 
HETATM   12  C   UNL     1       8.615  23.732  56.818  1.00  0.00     0.015 A 
HETATM   13  N   UNL     1       7.517  25.683  55.155  1.00  0.00    -0.258 NA
HETATM   14  C   UNL     1       7.809  25.934  56.451  1.00  0.00     0.117 A 
HETATM   15  C   UNL     1       8.353  25.002  57.313  1.00  0.00     0.020 A 
ENDBRANCH   1   5
BRANCH   2  16
HETATM   16  C   UNL     1       5.425  26.495  51.175  1.00  0.00     0.141 C 
BRANCH  16  17
HETATM   17  C   UNL     1       4.826  27.754  51.761  1.00  0.00    -0.047 A 
HETATM   18  C   UNL     1       5.342  28.293  52.951  1.00  0.00     0.044 A 
HETATM   19  C   UNL     1       4.766  29.430  53.509  1.00  0.00     0.066 A 
HETATM   20  C   UNL     1       3.691  30.058  52.894  1.00  0.00     0.036 A 
HETATM   21  C   UNL     1       3.178  29.538  51.706  1.00  0.00     0.003 A 
HETATM   22  C   UNL     1       3.742  28.389  51.143  1.00  0.00     0.007 A 
BRANCH  19  23
HETATM   23  O   UNL     1       5.230  29.957  54.679  1.00  0.00    -0.361 OA
HETATM   24  H   UNL     1       4.855  29.442  55.412  1.00  0.00     0.217 HD
ENDBRANCH  19  23
ENDBRANCH  16  17
ENDBRANCH   2  16
TORSDOF 4
ENDMDL
