MODEL 1
REMARK VINA RESULT:      -9.7      0.000      0.000
REMARK  4 active torsions:
REMARK  status: ('A' for Active; 'I' for Inactive)
REMARK    1  A    between atoms: C_5  and  C_6 
REMARK    2  A    between atoms: C_16  and  C_17 
REMARK       I    between atoms: C_17  and  N_18 
REMARK    3  A    between atoms: N_18  and  C_19 
REMARK    4  A    between atoms: C_20  and  O_21 
ROOT
HETATM    1  C   UNL     1       6.581  27.694  55.114  1.00  0.00     0.202 C 
HETATM    2  N   UNL     1       5.410  28.578  55.040  1.00  0.00    -0.083 N 
HETATM    3  C   UNL     1       4.329  28.473  55.862  1.00  0.00     0.726 A 
HETATM    4  N   UNL     1       3.488  29.443  55.611  1.00  0.00    -0.046 NA
HETATM    5  C   UNL     1       4.097  30.111  54.572  1.00  0.00     0.162 A 
HETATM    6  C   UNL     1       3.507  31.322  53.967  1.00  0.00     0.096 C 
HETATM    7  N   UNL     1       5.263  29.590  54.155  1.00  0.00    -0.141 NA
HETATM    8  N   UNL     1       4.267  27.444  56.724  1.00  0.00    -0.192 N 
HETATM    9  C   UNL     1       5.141  26.358  56.666  1.00  0.00     0.037 C 
HETATM   10  C   UNL     1       4.751  25.196  57.554  1.00  0.00     0.070 C 
HETATM   11  C   UNL     1       6.248  26.402  55.869  1.00  0.00     0.062 C 
HETATM   12  H   UNL     1       3.411  27.321  57.257  1.00  0.00     0.184 HD
ENDROOT
BRANCH  11  13
HETATM   13  C   UNL     1       7.110  25.181  55.683  1.00  0.00     0.256 C 
HETATM   14  N   UNL     1       6.567  24.127  54.981  1.00  0.00    -0.321 N 
HETATM   15  H   UNL     1       5.590  24.115  54.716  1.00  0.00     0.169 HD
HETATM   16  O   UNL     1       8.218  25.134  56.212  1.00  0.00    -0.267 OA
BRANCH  14  17
HETATM   17  C   UNL     1       7.232  22.921  54.631  1.00  0.00     0.068 A 
HETATM   18  C   UNL     1       7.561  22.728  53.275  1.00  0.00     0.095 A 
HETATM   19  C   UNL     1       8.254  21.577  52.880  1.00  0.00     0.039 A 
HETATM   20  C   UNL     1       8.601  20.607  53.822  1.00  0.00     0.003 A 
HETATM   21  C   UNL     1       8.265  20.788  55.160  1.00  0.00     0.002 A 
HETATM   22  C   UNL     1       7.586  21.939  55.562  1.00  0.00     0.032 A 
BRANCH  18  23
HETATM   23  O   UNL     1       7.164  23.721  52.407  1.00  0.00    -0.354 OA
HETATM   24  C   UNL     1       8.145  24.721  52.140  1.00  0.00     0.210 C 
ENDBRANCH  18  23
ENDBRANCH  14  17
ENDBRANCH  11  13
BRANCH   1  25
HETATM   25  C   UNL     1       7.743  28.495  55.716  1.00  0.00    -0.028 A 
HETATM   26  C   UNL     1       8.856  28.897  54.957  1.00  0.00     0.010 A 
HETATM   27  C   UNL     1       9.951  29.521  55.562  1.00  0.00     0.007 A 
HETATM   28  C   UNL     1       9.967  29.753  56.940  1.00  0.00    -0.062 A 
HETATM   29  C   UNL     1      11.188  30.329  57.593  1.00  0.00     0.048 C 
HETATM   30  C   UNL     1       8.866  29.357  57.705  1.00  0.00     0.007 A 
HETATM   31  C   UNL     1       7.765  28.746  57.100  1.00  0.00     0.010 A 
ENDBRANCH   1  25
TORSDOF 4
ENDMDL
MODEL 2
REMARK VINA RESULT:      -9.3      3.813      6.538
REMARK  4 active torsions:
REMARK  status: ('A' for Active; 'I' for Inactive)
REMARK    1  A    between atoms: C_5  and  C_6 
REMARK    2  A    between atoms: C_16  and  C_17 
REMARK       I    between atoms: C_17  and  N_18 
REMARK    3  A    between atoms: N_18  and  C_19 
REMARK    4  A    between atoms: C_20  and  O_21 
ROOT
HETATM    1  C   UNL     1       7.034  27.985  53.411  1.00  0.00     0.202 C 
HETATM    2  N   UNL     1       7.390  28.538  54.725  1.00  0.00    -0.083 N 
HETATM    3  C   UNL     1       6.491  29.113  55.573  1.00  0.00     0.726 A 
HETATM    4  N   UNL     1       7.087  29.436  56.692  1.00  0.00    -0.046 NA
HETATM    5  C   UNL     1       8.392  29.064  56.460  1.00  0.00     0.162 A 
HETATM    6  C   UNL     1       9.444  29.220  57.484  1.00  0.00     0.096 C 
HETATM    7  N   UNL     1       8.638  28.546  55.246  1.00  0.00    -0.141 NA
HETATM    8  N   UNL     1       5.226  29.287  55.155  1.00  0.00    -0.192 N 
HETATM    9  C   UNL     1       4.839  29.116  53.826  1.00  0.00     0.037 C 
HETATM   10  C   UNL     1       3.440  29.600  53.517  1.00  0.00     0.070 C 
HETATM   11  C   UNL     1       5.689  28.538  52.928  1.00  0.00     0.062 C 
HETATM   12  H   UNL     1       4.596  29.808  55.758  1.00  0.00     0.184 HD
ENDROOT
BRANCH  11  13
HETATM   13  C   UNL     1       5.339  28.489  51.463  1.00  0.00     0.256 C 
HETATM   14  N   UNL     1       4.486  27.489  51.052  1.00  0.00    -0.321 N 
HETATM   15  H   UNL     1       4.208  26.740  51.674  1.00  0.00     0.169 HD
HETATM   16  O   UNL     1       5.870  29.279  50.686  1.00  0.00    -0.267 OA
BRANCH  14  17
HETATM   17  C   UNL     1       3.973  27.312  49.738  1.00  0.00     0.068 A 
HETATM   18  C   UNL     1       2.834  28.057  49.376  1.00  0.00     0.095 A 
HETATM   19  C   UNL     1       2.311  27.952  48.081  1.00  0.00     0.039 A 
HETATM   20  C   UNL     1       2.902  27.094  47.152  1.00  0.00     0.003 A 
HETATM   21  C   UNL     1       4.018  26.345  47.510  1.00  0.00     0.002 A 
HETATM   22  C   UNL     1       4.552  26.455  48.796  1.00  0.00     0.032 A 
BRANCH  18  23
HETATM   23  O   UNL     1       2.300  28.863  50.357  1.00  0.00    -0.354 OA
HETATM   24  C   UNL     1       2.215  30.247  50.026  1.00  0.00     0.210 C 
ENDBRANCH  18  23
ENDBRANCH  14  17
ENDBRANCH  11  13
BRANCH   1  25
HETATM   25  C   UNL     1       7.089  26.455  53.510  1.00  0.00    -0.028 A 
HETATM   26  C   UNL     1       6.602  25.752  54.627  1.00  0.00     0.010 A 
HETATM   27  C   UNL     1       6.775  24.370  54.737  1.00  0.00     0.007 A 
HETATM   28  C   UNL     1       7.445  23.653  53.741  1.00  0.00    -0.062 A 
HETATM   29  C   UNL     1       7.715  22.188  53.918  1.00  0.00     0.048 C 
HETATM   30  C   UNL     1       7.933  24.341  52.627  1.00  0.00     0.007 A 
HETATM   31  C   UNL     1       7.748  25.721  52.507  1.00  0.00     0.010 A 
ENDBRANCH   1  25
TORSDOF 4
ENDMDL
MODEL 3
REMARK VINA RESULT:      -8.8      2.965      6.381
REMARK  4 active torsions:
REMARK  status: ('A' for Active; 'I' for Inactive)
REMARK    1  A    between atoms: C_5  and  C_6 
REMARK    2  A    between atoms: C_16  and  C_17 
REMARK       I    between atoms: C_17  and  N_18 
REMARK    3  A    between atoms: N_18  and  C_19 
REMARK    4  A    between atoms: C_20  and  O_21 
ROOT
HETATM    1  C   UNL     1       7.106  28.236  54.324  1.00  0.00     0.202 C 
HETATM    2  N   UNL     1       7.989  28.787  55.360  1.00  0.00    -0.083 N 
HETATM    3  C   UNL     1       7.566  29.141  56.606  1.00  0.00     0.726 A 
HETATM    4  N   UNL     1       8.589  29.521  57.328  1.00  0.00    -0.046 NA
HETATM    5  C   UNL     1       9.639  29.418  56.443  1.00  0.00     0.162 A 
HETATM    6  C   UNL     1      11.028  29.726  56.838  1.00  0.00     0.096 C 
HETATM    7  N   UNL     1       9.314  29.011  55.205  1.00  0.00    -0.141 NA
HETATM    8  N   UNL     1       6.252  29.088  56.884  1.00  0.00    -0.192 N 
HETATM    9  C   UNL     1       5.280  28.905  55.901  1.00  0.00     0.037 C 
HETATM   10  C   UNL     1       3.861  29.125  56.378  1.00  0.00     0.070 C 
HETATM   11  C   UNL     1       5.636  28.541  54.634  1.00  0.00     0.062 C 
HETATM   12  H   UNL     1       5.942  29.450  57.780  1.00  0.00     0.184 HD
ENDROOT
BRANCH  11  13
HETATM   13  C   UNL     1       4.610  28.492  53.532  1.00  0.00     0.256 C 
HETATM   14  N   UNL     1       4.763  29.379  52.490  1.00  0.00    -0.321 N 
HETATM   15  H   UNL     1       5.452  30.121  52.522  1.00  0.00     0.169 HD
HETATM   16  O   UNL     1       3.652  27.730  53.628  1.00  0.00    -0.267 OA
BRANCH  14  17
HETATM   17  C   UNL     1       3.956  29.447  51.322  1.00  0.00     0.068 A 
HETATM   18  C   UNL     1       4.268  28.574  50.261  1.00  0.00     0.095 A 
HETATM   19  C   UNL     1       3.481  28.570  49.103  1.00  0.00     0.039 A 
HETATM   20  C   UNL     1       2.399  29.444  48.985  1.00  0.00     0.003 A 
HETATM   21  C   UNL     1       2.097  30.318  50.024  1.00  0.00     0.002 A 
HETATM   22  C   UNL     1       2.869  30.318  51.187  1.00  0.00     0.032 A 
BRANCH  18  23
HETATM   23  O   UNL     1       5.363  27.760  50.449  1.00  0.00    -0.354 OA
HETATM   24  C   UNL     1       5.095  26.361  50.395  1.00  0.00     0.210 C 
ENDBRANCH  18  23
ENDBRANCH  14  17
ENDBRANCH  11  13
BRANCH   1  25
HETATM   25  C   UNL     1       7.422  26.741  54.177  1.00  0.00    -0.028 A 
HETATM   26  C   UNL     1       7.714  26.150  52.935  1.00  0.00     0.010 A 
HETATM   27  C   UNL     1       7.880  24.767  52.819  1.00  0.00     0.007 A 
HETATM   28  C   UNL     1       7.751  23.937  53.937  1.00  0.00    -0.062 A 
HETATM   29  C   UNL     1       7.830  22.447  53.783  1.00  0.00     0.048 C 
HETATM   30  C   UNL     1       7.460  24.514  55.176  1.00  0.00     0.007 A 
HETATM   31  C   UNL     1       7.309  25.898  55.297  1.00  0.00     0.010 A 
ENDBRANCH   1  25
TORSDOF 4
ENDMDL
MODEL 4
REMARK VINA RESULT:      -8.8      3.249      5.725
REMARK  4 active torsions:
REMARK  status: ('A' for Active; 'I' for Inactive)
REMARK    1  A    between atoms: C_5  and  C_6 
REMARK    2  A    between atoms: C_16  and  C_17 
REMARK       I    between atoms: C_17  and  N_18 
REMARK    3  A    between atoms: N_18  and  C_19 
REMARK    4  A    between atoms: C_20  and  O_21 
ROOT
HETATM    1  C   UNL     1       7.348  29.762  58.510  1.00  0.00     0.202 C 
HETATM    2  N   UNL     1       7.949  30.750  59.417  1.00  0.00    -0.083 N 
HETATM    3  C   UNL     1       9.096  31.432  59.139  1.00  0.00     0.726 A 
HETATM    4  N   UNL     1       9.337  32.295  60.094  1.00  0.00    -0.046 NA
HETATM    5  C   UNL     1       8.303  32.068  60.975  1.00  0.00     0.162 A 
HETATM    6  C   UNL     1       8.149  32.851  62.217  1.00  0.00     0.096 C 
HETATM    7  N   UNL     1       7.446  31.096  60.623  1.00  0.00    -0.141 NA
HETATM    8  N   UNL     1       9.783  31.121  58.028  1.00  0.00    -0.192 N 
HETATM    9  C   UNL     1       9.507  29.988  57.262  1.00  0.00     0.037 C 
HETATM   10  C   UNL     1      10.545  29.681  56.205  1.00  0.00     0.070 C 
HETATM   11  C   UNL     1       8.370  29.265  57.482  1.00  0.00     0.062 C 
HETATM   12  H   UNL     1      10.686  31.565  57.888  1.00  0.00     0.184 HD
ENDROOT
BRANCH  11  13
HETATM   13  C   UNL     1       8.141  27.958  56.768  1.00  0.00     0.256 C 
HETATM   14  N   UNL     1       7.377  27.993  55.622  1.00  0.00    -0.321 N 
HETATM   15  H   UNL     1       6.879  28.829  55.342  1.00  0.00     0.169 HD
HETATM   16  O   UNL     1       8.572  26.916  57.255  1.00  0.00    -0.267 OA
BRANCH  14  17
HETATM   17  C   UNL     1       7.105  26.894  54.762  1.00  0.00     0.068 A 
HETATM   18  C   UNL     1       5.981  26.098  55.057  1.00  0.00     0.095 A 
HETATM   19  C   UNL     1       5.643  25.027  54.220  1.00  0.00     0.039 A 
HETATM   20  C   UNL     1       6.429  24.732  53.105  1.00  0.00     0.003 A 
HETATM   21  C   UNL     1       7.548  25.507  52.819  1.00  0.00     0.002 A 
HETATM   22  C   UNL     1       7.883  26.583  53.642  1.00  0.00     0.032 A 
BRANCH  18  23
HETATM   23  O   UNL     1       5.272  26.444  56.186  1.00  0.00    -0.354 OA
HETATM   24  C   UNL     1       5.083  25.392  57.130  1.00  0.00     0.210 C 
ENDBRANCH  18  23
ENDBRANCH  14  17
ENDBRANCH  11  13
BRANCH   1  25
HETATM   25  C   UNL     1       6.089  30.388  57.895  1.00  0.00    -0.028 A 
HETATM   26  C   UNL     1       4.952  29.629  57.566  1.00  0.00     0.010 A 
HETATM   27  C   UNL     1       3.869  30.209  56.899  1.00  0.00     0.007 A 
HETATM   28  C   UNL     1       3.896  31.558  56.534  1.00  0.00    -0.062 A 
HETATM   29  C   UNL     1       2.775  32.144  55.729  1.00  0.00     0.048 C 
HETATM   30  C   UNL     1       5.022  32.321  56.854  1.00  0.00     0.007 A 
HETATM   31  C   UNL     1       6.099  31.748  57.535  1.00  0.00     0.010 A 
ENDBRANCH   1  25
TORSDOF 4
ENDMDL
MODEL 5
REMARK VINA RESULT:      -8.8      2.409      4.267
REMARK  4 active torsions:
REMARK  status: ('A' for Active; 'I' for Inactive)
REMARK    1  A    between atoms: C_5  and  C_6 
REMARK    2  A    between atoms: C_16  and  C_17 
REMARK       I    between atoms: C_17  and  N_18 
REMARK    3  A    between atoms: N_18  and  C_19 
REMARK    4  A    between atoms: C_20  and  O_21 
ROOT
HETATM    1  C   UNL     1       4.943  27.677  54.270  1.00  0.00     0.202 C 
HETATM    2  N   UNL     1       4.577  29.014  54.757  1.00  0.00    -0.083 N 
HETATM    3  C   UNL     1       5.414  29.812  55.477  1.00  0.00     0.726 A 
HETATM    4  N   UNL     1       4.839  30.968  55.697  1.00  0.00    -0.046 NA
HETATM    5  C   UNL     1       3.604  30.809  55.110  1.00  0.00     0.162 A 
HETATM    6  C   UNL     1       2.604  31.894  55.087  1.00  0.00     0.096 C 
HETATM    7  N   UNL     1       3.378  29.607  54.555  1.00  0.00    -0.141 NA
HETATM    8  N   UNL     1       6.604  29.323  55.862  1.00  0.00    -0.192 N 
HETATM    9  C   UNL     1       6.936  27.972  55.756  1.00  0.00     0.037 C 
HETATM   10  C   UNL     1       8.212  27.586  56.470  1.00  0.00     0.070 C 
HETATM   11  C   UNL     1       6.145  27.120  55.041  1.00  0.00     0.062 C 
HETATM   12  H   UNL     1       7.172  29.892  56.483  1.00  0.00     0.184 HD
ENDROOT
BRANCH  11  13
HETATM   13  C   UNL     1       6.410  25.637  55.049  1.00  0.00     0.256 C 
HETATM   14  N   UNL     1       7.407  25.171  54.221  1.00  0.00    -0.321 N 
HETATM   15  H   UNL     1       7.854  25.772  53.540  1.00  0.00     0.169 HD
HETATM   16  O   UNL     1       5.698  24.897  55.724  1.00  0.00    -0.267 OA
BRANCH  14  17
HETATM   17  C   UNL     1       7.865  23.829  54.134  1.00  0.00     0.068 A 
HETATM   18  C   UNL     1       8.720  23.364  55.153  1.00  0.00     0.095 A 
HETATM   19  C   UNL     1       9.169  22.037  55.139  1.00  0.00     0.039 A 
HETATM   20  C   UNL     1       8.789  21.178  54.106  1.00  0.00     0.003 A 
HETATM   21  C   UNL     1       7.957  21.637  53.091  1.00  0.00     0.002 A 
HETATM   22  C   UNL     1       7.496  22.955  53.106  1.00  0.00     0.032 A 
BRANCH  18  23
HETATM   23  O   UNL     1       9.064  24.280  56.121  1.00  0.00    -0.354 OA
HETATM   24  C   UNL     1       8.666  23.940  57.447  1.00  0.00     0.210 C 
ENDBRANCH  18  23
ENDBRANCH  14  17
ENDBRANCH  11  13
BRANCH   1  25
HETATM   25  C   UNL     1       5.153  27.766  52.752  1.00  0.00    -0.028 A 
HETATM   26  C   UNL     1       5.449  28.977  52.101  1.00  0.00     0.010 A 
HETATM   27  C   UNL     1       5.517  29.045  50.707  1.00  0.00     0.007 A 
HETATM   28  C   UNL     1       5.283  27.909  49.926  1.00  0.00    -0.062 A 
HETATM   29  C   UNL     1       5.257  28.016  48.430  1.00  0.00     0.048 C 
HETATM   30  C   UNL     1       4.987  26.701  50.562  1.00  0.00     0.007 A 
HETATM   31  C   UNL     1       4.933  26.628  51.957  1.00  0.00     0.010 A 
ENDBRANCH   1  25
TORSDOF 4
ENDMDL
MODEL 6
REMARK VINA RESULT:      -8.6      2.141      3.031
REMARK  4 active torsions:
REMARK  status: ('A' for Active; 'I' for Inactive)
REMARK    1  A    between atoms: C_5  and  C_6 
REMARK    2  A    between atoms: C_16  and  C_17 
REMARK       I    between atoms: C_17  and  N_18 
REMARK    3  A    between atoms: N_18  and  C_19 
REMARK    4  A    between atoms: C_20  and  O_21 
ROOT
HETATM    1  C   UNL     1       6.774  27.514  52.905  1.00  0.00     0.202 C 
HETATM    2  N   UNL     1       5.813  28.402  52.237  1.00  0.00    -0.083 N 
HETATM    3  C   UNL     1       4.497  28.095  52.058  1.00  0.00     0.726 A 
HETATM    4  N   UNL     1       3.879  29.109  51.507  1.00  0.00    -0.046 NA
HETATM    5  C   UNL     1       4.895  30.021  51.327  1.00  0.00     0.162 A 
HETATM    6  C   UNL     1       4.652  31.357  50.748  1.00  0.00     0.096 C 
HETATM    7  N   UNL     1       6.113  29.615  51.722  1.00  0.00    -0.141 NA
HETATM    8  N   UNL     1       4.062  26.874  52.412  1.00  0.00    -0.192 N 
HETATM    9  C   UNL     1       4.927  25.831  52.744  1.00  0.00     0.037 C 
HETATM   10  C   UNL     1       4.258  24.480  52.866  1.00  0.00     0.070 C 
HETATM   11  C   UNL     1       6.256  26.072  52.946  1.00  0.00     0.062 C 
HETATM   12  H   UNL     1       3.105  26.625  52.179  1.00  0.00     0.184 HD
ENDROOT
BRANCH  11  13
HETATM   13  C   UNL     1       7.220  24.933  53.152  1.00  0.00     0.256 C 
HETATM   14  N   UNL     1       6.863  23.963  54.062  1.00  0.00    -0.321 N 
HETATM   15  H   UNL     1       6.056  24.072  54.664  1.00  0.00     0.169 HD
HETATM   16  O   UNL     1       8.302  24.941  52.570  1.00  0.00    -0.267 OA
BRANCH  14  17
HETATM   17  C   UNL     1       7.588  22.774  54.347  1.00  0.00     0.068 A 
HETATM   18  C   UNL     1       8.017  22.575  55.674  1.00  0.00     0.095 A 
HETATM   19  C   UNL     1       8.700  21.402  56.021  1.00  0.00     0.039 A 
HETATM   20  C   UNL     1       8.978  20.438  55.050  1.00  0.00     0.003 A 
HETATM   21  C   UNL     1       8.568  20.638  53.736  1.00  0.00     0.002 A 
HETATM   22  C   UNL     1       7.875  21.798  53.387  1.00  0.00     0.032 A 
BRANCH  18  23
HETATM   23  O   UNL     1       7.723  23.584  56.564  1.00  0.00    -0.354 OA
HETATM   24  C   UNL     1       8.853  24.261  57.110  1.00  0.00     0.210 C 
ENDBRANCH  18  23
ENDBRANCH  14  17
ENDBRANCH  11  13
BRANCH   1  25
HETATM   25  C   UNL     1       7.091  28.110  54.284  1.00  0.00    -0.028 A 
HETATM   26  C   UNL     1       8.376  28.560  54.634  1.00  0.00     0.010 A 
HETATM   27  C   UNL     1       8.657  28.986  55.935  1.00  0.00     0.007 A 
HETATM   28  C   UNL     1       7.667  28.966  56.922  1.00  0.00    -0.062 A 
HETATM   29  C   UNL     1       8.006  29.327  58.338  1.00  0.00     0.048 C 
HETATM   30  C   UNL     1       6.387  28.519  56.585  1.00  0.00     0.007 A 
HETATM   31  C   UNL     1       6.099  28.107  55.281  1.00  0.00     0.010 A 
ENDBRANCH   1  25
TORSDOF 4
ENDMDL
MODEL 7
REMARK VINA RESULT:      -8.5      2.404      7.104
REMARK  4 active torsions:
REMARK  status: ('A' for Active; 'I' for Inactive)
REMARK    1  A    between atoms: C_5  and  C_6 
REMARK    2  A    between atoms: C_16  and  C_17 
REMARK       I    between atoms: C_17  and  N_18 
REMARK    3  A    between atoms: N_18  and  C_19 
REMARK    4  A    between atoms: C_20  and  O_21 
ROOT
HETATM    1  C   UNL     1       6.142  26.342  54.304  1.00  0.00     0.202 C 
HETATM    2  N   UNL     1       6.803  25.125  53.813  1.00  0.00    -0.083 N 
HETATM    3  C   UNL     1       7.174  24.937  52.515  1.00  0.00     0.726 A 
HETATM    4  N   UNL     1       7.809  23.798  52.399  1.00  0.00    -0.046 NA
HETATM    5  C   UNL     1       7.765  23.295  53.680  1.00  0.00     0.162 A 
HETATM    6  C   UNL     1       8.396  22.009  54.037  1.00  0.00     0.096 C 
HETATM    7  N   UNL     1       7.118  24.056  54.578  1.00  0.00    -0.141 NA
HETATM    8  N   UNL     1       6.829  25.860  51.602  1.00  0.00    -0.192 N 
HETATM    9  C   UNL     1       5.922  26.886  51.870  1.00  0.00     0.037 C 
HETATM   10  C   UNL     1       5.479  27.661  50.650  1.00  0.00     0.070 C 
HETATM   11  C   UNL     1       5.517  27.133  53.150  1.00  0.00     0.062 C 
HETATM   12  H   UNL     1       7.023  25.657  50.626  1.00  0.00     0.184 HD
ENDROOT
BRANCH  11  13
HETATM   13  C   UNL     1       4.425  28.133  53.430  1.00  0.00     0.256 C 
HETATM   14  N   UNL     1       4.809  29.366  53.909  1.00  0.00    -0.321 N 
HETATM   15  H   UNL     1       5.764  29.552  54.188  1.00  0.00     0.169 HD
HETATM   16  O   UNL     1       3.250  27.802  53.294  1.00  0.00    -0.267 OA
BRANCH  14  17
HETATM   17  C   UNL     1       3.951  30.470  54.164  1.00  0.00     0.068 A 
HETATM   18  C   UNL     1       3.496  30.651  55.485  1.00  0.00     0.095 A 
HETATM   19  C   UNL     1       2.681  31.746  55.801  1.00  0.00     0.039 A 
HETATM   20  C   UNL     1       2.299  32.648  54.806  1.00  0.00     0.003 A 
HETATM   21  C   UNL     1       2.734  32.464  53.498  1.00  0.00     0.002 A 
HETATM   22  C   UNL     1       3.557  31.382  53.179  1.00  0.00     0.032 A 
BRANCH  18  23
HETATM   23  O   UNL     1       3.901  29.706  56.401  1.00  0.00    -0.354 OA
HETATM   24  C   UNL     1       4.714  30.199  57.463  1.00  0.00     0.210 C 
ENDBRANCH  18  23
ENDBRANCH  14  17
ENDBRANCH  11  13
BRANCH   1  25
HETATM   25  C   UNL     1       7.162  27.134  55.133  1.00  0.00    -0.028 A 
HETATM   26  C   UNL     1       7.250  27.021  56.532  1.00  0.00     0.010 A 
HETATM   27  C   UNL     1       8.108  27.844  57.266  1.00  0.00     0.007 A 
HETATM   28  C   UNL     1       8.893  28.807  56.627  1.00  0.00    -0.062 A 
HETATM   29  C   UNL     1       9.733  29.753  57.434  1.00  0.00     0.048 C 
HETATM   30  C   UNL     1       8.813  28.929  55.237  1.00  0.00     0.007 A 
HETATM   31  C   UNL     1       7.967  28.098  54.499  1.00  0.00     0.010 A 
ENDBRANCH   1  25
TORSDOF 4
ENDMDL
MODEL 8
REMARK VINA RESULT:      -8.3      2.612      7.056
REMARK  4 active torsions:
REMARK  status: ('A' for Active; 'I' for Inactive)
REMARK    1  A    between atoms: C_5  and  C_6 
REMARK    2  A    between atoms: C_16  and  C_17 
REMARK       I    between atoms: C_17  and  N_18 
REMARK    3  A    between atoms: N_18  and  C_19 
REMARK    4  A    between atoms: C_20  and  O_21 
ROOT
HETATM    1  C   UNL     1       6.112  26.363  54.278  1.00  0.00     0.202 C 
HETATM    2  N   UNL     1       6.764  25.142  53.786  1.00  0.00    -0.083 N 
HETATM    3  C   UNL     1       7.140  24.955  52.489  1.00  0.00     0.726 A 
HETATM    4  N   UNL     1       7.764  23.810  52.373  1.00  0.00    -0.046 NA
HETATM    5  C   UNL     1       7.708  23.302  53.652  1.00  0.00     0.162 A 
HETATM    6  C   UNL     1       8.325  22.009  54.008  1.00  0.00     0.096 C 
HETATM    7  N   UNL     1       7.064  24.067  54.549  1.00  0.00    -0.141 NA
HETATM    8  N   UNL     1       6.809  25.884  51.577  1.00  0.00    -0.192 N 
HETATM    9  C   UNL     1       5.911  26.918  51.844  1.00  0.00     0.037 C 
HETATM   10  C   UNL     1       5.483  27.702  50.624  1.00  0.00     0.070 C 
HETATM   11  C   UNL     1       5.501  27.164  53.123  1.00  0.00     0.062 C 
HETATM   12  H   UNL     1       7.006  25.682  50.602  1.00  0.00     0.184 HD
ENDROOT
BRANCH  11  13
HETATM   13  C   UNL     1       4.418  28.174  53.400  1.00  0.00     0.256 C 
HETATM   14  N   UNL     1       4.817  29.431  53.798  1.00  0.00    -0.321 N 
HETATM   15  H   UNL     1       5.782  29.635  54.025  1.00  0.00     0.169 HD
HETATM   16  O   UNL     1       3.240  27.834  53.334  1.00  0.00    -0.267 OA
BRANCH  14  17
HETATM   17  C   UNL     1       3.965  30.545  54.035  1.00  0.00     0.068 A 
HETATM   18  C   UNL     1       3.700  31.405  52.952  1.00  0.00     0.095 A 
HETATM   19  C   UNL     1       2.835  32.494  53.118  1.00  0.00     0.039 A 
HETATM   20  C   UNL     1       2.251  32.744  54.361  1.00  0.00     0.003 A 
HETATM   21  C   UNL     1       2.522  31.905  55.437  1.00  0.00     0.002 A 
HETATM   22  C   UNL     1       3.372  30.810  55.274  1.00  0.00     0.032 A 
BRANCH  18  23
HETATM   23  O   UNL     1       4.333  31.101  51.767  1.00  0.00    -0.354 OA
HETATM   24  C   UNL     1       3.466  30.848  50.664  1.00  0.00     0.210 C 
ENDBRANCH  18  23
ENDBRANCH  14  17
ENDBRANCH  11  13
BRANCH   1  25
HETATM   25  C   UNL     1       7.136  27.143  55.114  1.00  0.00    -0.028 A 
HETATM   26  C   UNL     1       7.232  27.004  56.510  1.00  0.00     0.010 A 
HETATM   27  C   UNL     1       8.092  27.815  57.255  1.00  0.00     0.007 A 
HETATM   28  C   UNL     1       8.873  28.791  56.629  1.00  0.00    -0.062 A 
HETATM   29  C   UNL     1       9.715  29.724  57.448  1.00  0.00     0.048 C 
HETATM   30  C   UNL     1       8.784  28.938  55.242  1.00  0.00     0.007 A 
HETATM   31  C   UNL     1       7.936  28.118  54.493  1.00  0.00     0.010 A 
ENDBRANCH   1  25
TORSDOF 4
ENDMDL
MODEL 9
REMARK VINA RESULT:      -8.3      2.387      4.265
REMARK  4 active torsions:
REMARK  status: ('A' for Active; 'I' for Inactive)
REMARK    1  A    between atoms: C_5  and  C_6 
REMARK    2  A    between atoms: C_16  and  C_17 
REMARK       I    between atoms: C_17  and  N_18 
REMARK    3  A    between atoms: N_18  and  C_19 
REMARK    4  A    between atoms: C_20  and  O_21 
ROOT
HETATM    1  C   UNL     1       5.072  28.721  56.843  1.00  0.00     0.202 C 
HETATM    2  N   UNL     1       5.057  29.968  57.620  1.00  0.00    -0.083 N 
HETATM    3  C   UNL     1       6.177  30.680  57.929  1.00  0.00     0.726 A 
HETATM    4  N   UNL     1       5.840  31.779  58.556  1.00  0.00    -0.046 NA
HETATM    5  C   UNL     1       4.470  31.672  58.643  1.00  0.00     0.162 A 
HETATM    6  C   UNL     1       3.641  32.724  59.263  1.00  0.00     0.096 C 
HETATM    7  N   UNL     1       3.944  30.552  58.119  1.00  0.00    -0.141 NA
HETATM    8  N   UNL     1       7.377  30.173  57.605  1.00  0.00    -0.192 N 
HETATM    9  C   UNL     1       7.550  28.859  57.170  1.00  0.00     0.037 C 
HETATM   10  C   UNL     1       8.993  28.410  57.099  1.00  0.00     0.070 C 
HETATM   11  C   UNL     1       6.470  28.094  56.836  1.00  0.00     0.062 C 
HETATM   12  H   UNL     1       8.204  30.665  57.932  1.00  0.00     0.184 HD
ENDROOT
BRANCH  11  13
HETATM   13  C   UNL     1       6.636  26.631  56.515  1.00  0.00     0.256 C 
HETATM   14  N   UNL     1       7.237  26.314  55.317  1.00  0.00    -0.321 N 
HETATM   15  H   UNL     1       7.440  27.021  54.621  1.00  0.00     0.169 HD
HETATM   16  O   UNL     1       6.176  25.786  57.279  1.00  0.00    -0.267 OA
BRANCH  14  17
HETATM   17  C   UNL     1       7.555  25.006  54.859  1.00  0.00     0.068 A 
HETATM   18  C   UNL     1       6.980  24.582  53.645  1.00  0.00     0.095 A 
HETATM   19  C   UNL     1       7.291  23.318  53.127  1.00  0.00     0.039 A 
HETATM   20  C   UNL     1       8.153  22.467  53.820  1.00  0.00     0.003 A 
HETATM   21  C   UNL     1       8.712  22.877  55.027  1.00  0.00     0.002 A 
HETATM   22  C   UNL     1       8.416  24.140  55.542  1.00  0.00     0.032 A 
BRANCH  18  23
HETATM   23  O   UNL     1       6.124  25.472  53.036  1.00  0.00    -0.354 OA
HETATM   24  C   UNL     1       4.894  24.916  52.579  1.00  0.00     0.210 C 
ENDBRANCH  18  23
ENDBRANCH  14  17
ENDBRANCH  11  13
BRANCH   1  25
HETATM   25  C   UNL     1       4.509  29.024  55.448  1.00  0.00    -0.028 A 
HETATM   26  C   UNL     1       4.102  28.012  54.561  1.00  0.00     0.010 A 
HETATM   27  C   UNL     1       3.706  28.316  53.256  1.00  0.00     0.007 A 
HETATM   28  C   UNL     1       3.714  29.637  52.798  1.00  0.00    -0.062 A 
HETATM   29  C   UNL     1       3.387  29.941  51.366  1.00  0.00     0.048 C 
HETATM   30  C   UNL     1       4.119  30.651  53.671  1.00  0.00     0.007 A 
HETATM   31  C   UNL     1       4.500  30.351  54.981  1.00  0.00     0.010 A 
ENDBRANCH   1  25
TORSDOF 4
ENDMDL
MODEL 10
REMARK VINA RESULT:      -8.0      2.625      6.656
REMARK  4 active torsions:
REMARK  status: ('A' for Active; 'I' for Inactive)
REMARK    1  A    between atoms: C_5  and  C_6 
REMARK    2  A    between atoms: C_16  and  C_17 
REMARK       I    between atoms: C_17  and  N_18 
REMARK    3  A    between atoms: N_18  and  C_19 
REMARK    4  A    between atoms: C_20  and  O_21 
ROOT
HETATM    1  C   UNL     1       6.361  24.498  55.206  1.00  0.00     0.202 C 
HETATM    2  N   UNL     1       7.277  23.408  55.569  1.00  0.00    -0.083 N 
HETATM    3  C   UNL     1       8.333  23.019  54.800  1.00  0.00     0.726 A 
HETATM    4  N   UNL     1       9.007  22.084  55.419  1.00  0.00    -0.046 NA
HETATM    5  C   UNL     1       8.283  21.903  56.576  1.00  0.00     0.162 A 
HETATM    6  C   UNL     1       8.698  20.941  57.616  1.00  0.00     0.096 C 
HETATM    7  N   UNL     1       7.183  22.666  56.695  1.00  0.00    -0.141 NA
HETATM    8  N   UNL     1       8.496  23.582  53.591  1.00  0.00    -0.192 N 
HETATM    9  C   UNL     1       7.521  24.378  52.990  1.00  0.00     0.037 C 
HETATM   10  C   UNL     1       7.791  24.705  51.538  1.00  0.00     0.070 C 
HETATM   11  C   UNL     1       6.443  24.810  53.707  1.00  0.00     0.062 C 
HETATM   12  H   UNL     1       9.225  23.210  52.990  1.00  0.00     0.184 HD
ENDROOT
BRANCH  11  13
HETATM   13  C   UNL     1       5.312  25.538  53.029  1.00  0.00     0.256 C 
HETATM   14  N   UNL     1       5.525  26.856  52.689  1.00  0.00    -0.321 N 
HETATM   15  H   UNL     1       6.351  27.355  52.996  1.00  0.00     0.169 HD
HETATM   16  O   UNL     1       4.234  24.970  52.869  1.00  0.00    -0.267 OA
BRANCH  14  17
HETATM   17  C   UNL     1       4.624  27.695  51.980  1.00  0.00     0.068 A 
HETATM   18  C   UNL     1       3.873  28.624  52.727  1.00  0.00     0.095 A 
HETATM   19  C   UNL     1       2.999  29.503  52.075  1.00  0.00     0.039 A 
HETATM   20  C   UNL     1       2.852  29.449  50.688  1.00  0.00     0.003 A 
HETATM   21  C   UNL     1       3.581  28.523  49.948  1.00  0.00     0.002 A 
HETATM   22  C   UNL     1       4.463  27.652  50.590  1.00  0.00     0.032 A 
BRANCH  18  23
HETATM   23  O   UNL     1       4.060  28.598  54.091  1.00  0.00    -0.354 OA
HETATM   24  C   UNL     1       3.879  29.848  54.752  1.00  0.00     0.210 C 
ENDBRANCH  18  23
ENDBRANCH  14  17
ENDBRANCH  11  13
BRANCH   1  25
HETATM   25  C   UNL     1       6.665  25.696  56.116  1.00  0.00    -0.028 A 
HETATM   26  C   UNL     1       5.671  26.600  56.531  1.00  0.00     0.010 A 
HETATM   27  C   UNL     1       6.001  27.745  57.261  1.00  0.00     0.007 A 
HETATM   28  C   UNL     1       7.331  28.023  57.589  1.00  0.00    -0.062 A 
HETATM   29  C   UNL     1       7.685  29.305  58.283  1.00  0.00     0.048 C 
HETATM   30  C   UNL     1       8.327  27.131  57.181  1.00  0.00     0.007 A 
HETATM   31  C   UNL     1       7.998  25.978  56.464  1.00  0.00     0.010 A 
ENDBRANCH   1  25
TORSDOF 4
ENDMDL
