MODEL 1
REMARK VINA RESULT:      -9.8      0.000      0.000
REMARK  9 active torsions:
REMARK  status: ('A' for Active; 'I' for Inactive)
REMARK    1  A    between atoms: C_3  and  N_4 
REMARK    2  A    between atoms: N_4  and  S_5 
REMARK    3  A    between atoms: S_5  and  C_6 
REMARK    4  A    between atoms: C_12  and  C_13 
REMARK       I    between atoms: C_13  and  N_14 
REMARK    5  A    between atoms: N_14  and  C_15 
REMARK    6  A    between atoms: C_15  and  C_16 
REMARK    7  A    between atoms: C_16  and  C_17 
REMARK    8  A    between atoms: C_17  and  O_18 
REMARK    9  A    between atoms: O_18  and  C_19 
ROOT
HETATM    1  C   UNL     1       6.140  26.978  54.273  1.00  0.00     0.081 A 
HETATM    2  C   UNL     1       7.042  27.186  55.319  1.00  0.00     0.043 A 
HETATM    3  C   UNL     1       6.896  28.319  56.124  1.00  0.00     0.043 A 
HETATM    4  C   UNL     1       5.841  29.224  55.915  1.00  0.00     0.046 A 
HETATM    5  N   UNL     1       5.732  30.359  56.725  1.00  0.00    -0.364 N 
HETATM    6  C   UNL     1       6.640  30.606  57.722  1.00  0.00     0.109 A 
HETATM    7  C   UNL     1       7.697  29.831  58.021  1.00  0.00     0.098 A 
HETATM    8  C   UNL     1       7.878  28.596  57.207  1.00  0.00     0.201 A 
HETATM    9  O   UNL     1       8.820  27.828  57.394  1.00  0.00    -0.286 OA
HETATM   10  C   UNL     1       4.939  28.990  54.872  1.00  0.00     0.032 A 
HETATM   11  C   UNL     1       5.084  27.867  54.051  1.00  0.00     0.027 A 
HETATM   12  H   UNL     1       4.940  30.983  56.620  1.00  0.00     0.165 HD
ENDROOT
BRANCH   1  13
HETATM   13  S   UNL     1       6.321  25.532  53.254  1.00  0.00     0.263 S 
HETATM   14  O   UNL     1       6.527  25.969  51.889  1.00  0.00    -0.200 OA
HETATM   15  O   UNL     1       5.237  24.634  53.595  1.00  0.00    -0.200 OA
BRANCH  13  16
HETATM   16  N   UNL     1       7.726  24.825  53.848  1.00  0.00    -0.280 N 
HETATM   17  H   UNL     1       8.576  25.332  53.610  1.00  0.00     0.179 HD
BRANCH  16  18
HETATM   18  C   UNL     1       7.793  23.423  54.072  1.00  0.00     0.048 A 
HETATM   19  C   UNL     1       7.757  22.886  55.368  1.00  0.00    -0.035 A 
HETATM   20  C   UNL     1       7.699  23.725  56.613  1.00  0.00     0.050 C 
HETATM   21  C   UNL     1       7.845  21.490  55.520  1.00  0.00     0.009 A 
HETATM   22  C   UNL     1       7.937  20.650  54.410  1.00  0.00     0.001 A 
HETATM   23  C   UNL     1       7.959  21.193  53.129  1.00  0.00     0.002 A 
HETATM   24  C   UNL     1       7.892  22.575  52.962  1.00  0.00     0.030 A 
ENDBRANCH  16  18
ENDBRANCH  13  16
ENDBRANCH   1  13
BRANCH   7  25
HETATM   25  C   UNL     1       8.626  30.278  59.101  1.00  0.00     0.257 C 
HETATM   26  N   UNL     1       8.063  30.398  60.345  1.00  0.00    -0.357 N 
HETATM   27  H   UNL     1       7.065  30.206  60.448  1.00  0.00     0.162 HD
HETATM   28  O   UNL     1       9.815  30.490  58.881  1.00  0.00    -0.267 OA
BRANCH  26  29
HETATM   29  C   UNL     1       8.838  30.695  61.529  1.00  0.00     0.125 C 
BRANCH  29  30
HETATM   30  C   UNL     1       8.710  32.149  61.967  1.00  0.00     0.046 C 
BRANCH  30  31
HETATM   31  C   UNL     1       8.060  32.238  63.343  1.00  0.00     0.169 C 
BRANCH  31  32
HETATM   32  O   UNL     1       6.666  32.490  63.180  1.00  0.00    -0.387 OA
BRANCH  32  33
HETATM   33  C   UNL     1       6.155  33.489  64.067  1.00  0.00     0.113 C 
HETATM   34  C   UNL     1       7.100  33.728  65.242  1.00  0.00     0.039 C 
HETATM   35  C   UNL     1       5.995  34.769  63.254  1.00  0.00     0.039 C 
ENDBRANCH  32  33
ENDBRANCH  31  32
ENDBRANCH  30  31
ENDBRANCH  29  30
ENDBRANCH  26  29
ENDBRANCH   7  25
TORSDOF 9
ENDMDL
MODEL 2
REMARK VINA RESULT:      -9.7      1.903      2.393
REMARK  9 active torsions:
REMARK  status: ('A' for Active; 'I' for Inactive)
REMARK    1  A    between atoms: C_3  and  N_4 
REMARK    2  A    between atoms: N_4  and  S_5 
REMARK    3  A    between atoms: S_5  and  C_6 
REMARK    4  A    between atoms: C_12  and  C_13 
REMARK       I    between atoms: C_13  and  N_14 
REMARK    5  A    between atoms: N_14  and  C_15 
REMARK    6  A    between atoms: C_15  and  C_16 
REMARK    7  A    between atoms: C_16  and  C_17 
REMARK    8  A    between atoms: C_17  and  O_18 
REMARK    9  A    between atoms: O_18  and  C_19 
ROOT
HETATM    1  C   UNL     1       6.543  28.116  54.644  1.00  0.00     0.081 A 
HETATM    2  C   UNL     1       6.547  28.794  55.865  1.00  0.00     0.043 A 
HETATM    3  C   UNL     1       7.754  29.300  56.355  1.00  0.00     0.043 A 
HETATM    4  C   UNL     1       8.946  29.165  55.623  1.00  0.00     0.046 A 
HETATM    5  N   UNL     1      10.142  29.666  56.148  1.00  0.00    -0.364 N 
HETATM    6  C   UNL     1      10.172  30.287  57.371  1.00  0.00     0.109 A 
HETATM    7  C   UNL     1       9.111  30.473  58.175  1.00  0.00     0.098 A 
HETATM    8  C   UNL     1       7.796  29.974  57.681  1.00  0.00     0.201 A 
HETATM    9  O   UNL     1       6.769  30.085  58.348  1.00  0.00    -0.286 OA
HETATM   10  C   UNL     1       8.919  28.496  54.395  1.00  0.00     0.032 A 
HETATM   11  C   UNL     1       7.719  27.973  53.901  1.00  0.00     0.027 A 
HETATM   12  H   UNL     1      10.993  29.626  55.599  1.00  0.00     0.165 HD
ENDROOT
BRANCH   1  13
HETATM   13  S   UNL     1       5.006  27.479  54.017  1.00  0.00     0.263 S 
HETATM   14  O   UNL     1       5.106  27.411  52.574  1.00  0.00    -0.200 OA
HETATM   15  O   UNL     1       3.944  28.226  54.658  1.00  0.00    -0.200 OA
BRANCH  13  16
HETATM   16  N   UNL     1       4.949  25.928  54.661  1.00  0.00    -0.280 N 
HETATM   17  H   UNL     1       4.370  25.847  55.494  1.00  0.00     0.179 HD
BRANCH  16  18
HETATM   18  C   UNL     1       6.034  25.027  54.481  1.00  0.00     0.048 A 
HETATM   19  C   UNL     1       6.860  24.651  55.552  1.00  0.00    -0.035 A 
HETATM   20  C   UNL     1       6.710  25.193  56.945  1.00  0.00     0.050 C 
HETATM   21  C   UNL     1       7.926  23.768  55.301  1.00  0.00     0.009 A 
HETATM   22  C   UNL     1       8.147  23.252  54.024  1.00  0.00     0.001 A 
HETATM   23  C   UNL     1       7.314  23.622  52.973  1.00  0.00     0.002 A 
HETATM   24  C   UNL     1       6.265  24.510  53.201  1.00  0.00     0.030 A 
ENDBRANCH  16  18
ENDBRANCH  13  16
ENDBRANCH   1  13
BRANCH   7  25
HETATM   25  C   UNL     1       9.328  31.116  59.504  1.00  0.00     0.257 C 
HETATM   26  N   UNL     1       8.875  30.401  60.583  1.00  0.00    -0.357 N 
HETATM   27  H   UNL     1       8.406  29.510  60.412  1.00  0.00     0.162 HD
HETATM   28  O   UNL     1       9.901  32.197  59.610  1.00  0.00    -0.267 OA
BRANCH  26  29
HETATM   29  C   UNL     1       9.114  30.810  61.948  1.00  0.00     0.125 C 
BRANCH  29  30
HETATM   30  C   UNL     1       7.835  31.204  62.677  1.00  0.00     0.046 C 
BRANCH  30  31
HETATM   31  C   UNL     1       8.035  32.505  63.445  1.00  0.00     0.169 C 
BRANCH  31  32
HETATM   32  O   UNL     1       7.056  33.449  63.017  1.00  0.00    -0.387 OA
BRANCH  32  33
HETATM   33  C   UNL     1       6.343  34.066  64.094  1.00  0.00     0.113 C 
HETATM   34  C   UNL     1       4.924  33.515  64.210  1.00  0.00     0.039 C 
HETATM   35  C   UNL     1       7.123  33.778  65.371  1.00  0.00     0.039 C 
ENDBRANCH  32  33
ENDBRANCH  31  32
ENDBRANCH  30  31
ENDBRANCH  29  30
ENDBRANCH  26  29
ENDBRANCH   7  25
TORSDOF 9
ENDMDL
MODEL 3
REMARK VINA RESULT:      -9.3      2.160     10.197
REMARK  9 active torsions:
REMARK  status: ('A' for Active; 'I' for Inactive)
REMARK    1  A    between atoms: C_3  and  N_4 
REMARK    2  A    between atoms: N_4  and  S_5 
REMARK    3  A    between atoms: S_5  and  C_6 
REMARK    4  A    between atoms: C_12  and  C_13 
REMARK       I    between atoms: C_13  and  N_14 
REMARK    5  A    between atoms: N_14  and  C_15 
REMARK    6  A    between atoms: C_15  and  C_16 
REMARK    7  A    between atoms: C_16  and  C_17 
REMARK    8  A    between atoms: C_17  and  O_18 
REMARK    9  A    between atoms: O_18  and  C_19 
ROOT
HETATM    1  C   UNL     1       7.133  30.902  58.345  1.00  0.00     0.081 A 
HETATM    2  C   UNL     1       7.464  29.788  57.569  1.00  0.00     0.043 A 
HETATM    3  C   UNL     1       6.720  29.519  56.417  1.00  0.00     0.043 A 
HETATM    4  C   UNL     1       5.675  30.369  56.016  1.00  0.00     0.046 A 
HETATM    5  N   UNL     1       4.937  30.063  54.868  1.00  0.00    -0.364 N 
HETATM    6  C   UNL     1       5.215  28.945  54.125  1.00  0.00     0.109 A 
HETATM    7  C   UNL     1       6.176  28.047  54.401  1.00  0.00     0.098 A 
HETATM    8  C   UNL     1       7.014  28.307  55.606  1.00  0.00     0.201 A 
HETATM    9  O   UNL     1       7.911  27.539  55.950  1.00  0.00    -0.286 OA
HETATM   10  C   UNL     1       5.369  31.487  56.797  1.00  0.00     0.032 A 
HETATM   11  C   UNL     1       6.097  31.758  57.960  1.00  0.00     0.027 A 
HETATM   12  H   UNL     1       4.222  30.703  54.539  1.00  0.00     0.165 HD
ENDROOT
BRANCH   1  13
HETATM   13  S   UNL     1       8.084  31.248  59.807  1.00  0.00     0.263 S 
HETATM   14  O   UNL     1       8.618  32.588  59.685  1.00  0.00    -0.200 OA
HETATM   15  O   UNL     1       8.957  30.113  60.023  1.00  0.00    -0.200 OA
BRANCH  13  16
HETATM   16  N   UNL     1       6.931  31.198  61.028  1.00  0.00    -0.280 N 
HETATM   17  H   UNL     1       6.056  30.757  60.753  1.00  0.00     0.179 HD
BRANCH  16  18
HETATM   18  C   UNL     1       6.920  32.181  62.055  1.00  0.00     0.048 A 
HETATM   19  C   UNL     1       6.003  33.244  62.041  1.00  0.00    -0.035 A 
HETATM   20  C   UNL     1       5.008  33.468  60.938  1.00  0.00     0.050 C 
HETATM   21  C   UNL     1       6.057  34.191  63.080  1.00  0.00     0.009 A 
HETATM   22  C   UNL     1       6.979  34.067  64.119  1.00  0.00     0.001 A 
HETATM   23  C   UNL     1       7.873  33.002  64.130  1.00  0.00     0.002 A 
HETATM   24  C   UNL     1       7.846  32.065  63.098  1.00  0.00     0.030 A 
ENDBRANCH  16  18
ENDBRANCH  13  16
ENDBRANCH   1  13
BRANCH   7  25
HETATM   25  C   UNL     1       6.307  26.849  53.521  1.00  0.00     0.257 C 
HETATM   26  N   UNL     1       6.452  25.653  54.175  1.00  0.00    -0.357 N 
HETATM   27  H   UNL     1       6.488  25.660  55.196  1.00  0.00     0.162 HD
HETATM   28  O   UNL     1       6.256  26.941  52.297  1.00  0.00    -0.267 OA
BRANCH  26  29
HETATM   29  C   UNL     1       6.465  24.382  53.488  1.00  0.00     0.125 C 
BRANCH  29  30
HETATM   30  C   UNL     1       7.870  23.935  53.103  1.00  0.00     0.046 C 
BRANCH  30  31
HETATM   31  C   UNL     1       8.066  22.456  53.418  1.00  0.00     0.169 C 
BRANCH  31  32
HETATM   32  O   UNL     1       7.480  22.172  54.686  1.00  0.00    -0.387 OA
BRANCH  32  33
HETATM   33  C   UNL     1       8.439  21.964  55.728  1.00  0.00     0.113 C 
HETATM   34  C   UNL     1       8.343  23.049  56.798  1.00  0.00     0.039 C 
HETATM   35  C   UNL     1       8.146  20.598  56.339  1.00  0.00     0.039 C 
ENDBRANCH  32  33
ENDBRANCH  31  32
ENDBRANCH  30  31
ENDBRANCH  29  30
ENDBRANCH  26  29
ENDBRANCH   7  25
TORSDOF 9
ENDMDL
MODEL 4
REMARK VINA RESULT:      -9.0      2.238      3.373
REMARK  9 active torsions:
REMARK  status: ('A' for Active; 'I' for Inactive)
REMARK    1  A    between atoms: C_3  and  N_4 
REMARK    2  A    between atoms: N_4  and  S_5 
REMARK    3  A    between atoms: S_5  and  C_6 
REMARK    4  A    between atoms: C_12  and  C_13 
REMARK       I    between atoms: C_13  and  N_14 
REMARK    5  A    between atoms: N_14  and  C_15 
REMARK    6  A    between atoms: C_15  and  C_16 
REMARK    7  A    between atoms: C_16  and  C_17 
REMARK    8  A    between atoms: C_17  and  O_18 
REMARK    9  A    between atoms: O_18  and  C_19 
ROOT
HETATM    1  C   UNL     1       6.708  27.198  56.548  1.00  0.00     0.081 A 
HETATM    2  C   UNL     1       5.750  28.194  56.759  1.00  0.00     0.043 A 
HETATM    3  C   UNL     1       6.126  29.365  57.422  1.00  0.00     0.043 A 
HETATM    4  C   UNL     1       7.452  29.564  57.844  1.00  0.00     0.046 A 
HETATM    5  N   UNL     1       7.794  30.739  58.522  1.00  0.00    -0.364 N 
HETATM    6  C   UNL     1       6.854  31.703  58.784  1.00  0.00     0.109 A 
HETATM    7  C   UNL     1       5.555  31.635  58.446  1.00  0.00     0.098 A 
HETATM    8  C   UNL     1       5.113  30.415  57.712  1.00  0.00     0.201 A 
HETATM    9  O   UNL     1       3.944  30.253  57.369  1.00  0.00    -0.286 OA
HETATM   10  C   UNL     1       8.399  28.562  57.610  1.00  0.00     0.032 A 
HETATM   11  C   UNL     1       8.031  27.379  56.961  1.00  0.00     0.027 A 
HETATM   12  H   UNL     1       8.759  30.916  58.775  1.00  0.00     0.165 HD
ENDROOT
BRANCH   1  13
HETATM   13  S   UNL     1       6.231  25.710  55.698  1.00  0.00     0.263 S 
HETATM   14  O   UNL     1       5.543  26.092  54.483  1.00  0.00    -0.200 OA
HETATM   15  O   UNL     1       5.600  24.847  56.675  1.00  0.00    -0.200 OA
BRANCH  13  16
HETATM   16  N   UNL     1       7.707  25.001  55.323  1.00  0.00    -0.280 N 
HETATM   17  H   UNL     1       8.440  25.668  55.092  1.00  0.00     0.179 HD
BRANCH  16  18
HETATM   18  C   UNL     1       7.764  23.691  54.773  1.00  0.00     0.048 A 
HETATM   19  C   UNL     1       7.848  23.481  53.387  1.00  0.00    -0.035 A 
HETATM   20  C   UNL     1       7.832  24.594  52.377  1.00  0.00     0.050 C 
HETATM   21  C   UNL     1       7.883  22.159  52.909  1.00  0.00     0.009 A 
HETATM   22  C   UNL     1       7.864  21.075  53.787  1.00  0.00     0.001 A 
HETATM   23  C   UNL     1       7.795  21.296  55.158  1.00  0.00     0.002 A 
HETATM   24  C   UNL     1       7.739  22.599  55.648  1.00  0.00     0.030 A 
ENDBRANCH  16  18
ENDBRANCH  13  16
ENDBRANCH   1  13
BRANCH   7  25
HETATM   25  C   UNL     1       4.652  32.747  58.861  1.00  0.00     0.257 C 
HETATM   26  N   UNL     1       4.427  32.849  60.210  1.00  0.00    -0.357 N 
HETATM   27  H   UNL     1       4.859  32.159  60.827  1.00  0.00     0.162 HD
HETATM   28  O   UNL     1       4.173  33.528  58.042  1.00  0.00    -0.267 OA
BRANCH  26  29
HETATM   29  C   UNL     1       3.683  33.939  60.800  1.00  0.00     0.125 C 
BRANCH  29  30
HETATM   30  C   UNL     1       4.537  34.807  61.715  1.00  0.00     0.046 C 
BRANCH  30  31
HETATM   31  C   UNL     1       5.230  33.953  62.770  1.00  0.00     0.169 C 
BRANCH  31  32
HETATM   32  O   UNL     1       6.545  33.637  62.318  1.00  0.00    -0.387 OA
BRANCH  32  33
HETATM   33  C   UNL     1       7.204  32.646  63.113  1.00  0.00     0.113 C 
HETATM   34  C   UNL     1       8.449  32.108  62.412  1.00  0.00     0.039 C 
HETATM   35  C   UNL     1       7.590  33.312  64.429  1.00  0.00     0.039 C 
ENDBRANCH  32  33
ENDBRANCH  31  32
ENDBRANCH  30  31
ENDBRANCH  29  30
ENDBRANCH  26  29
ENDBRANCH   7  25
TORSDOF 9
ENDMDL
MODEL 5
REMARK VINA RESULT:      -9.0      2.510     10.902
REMARK  9 active torsions:
REMARK  status: ('A' for Active; 'I' for Inactive)
REMARK    1  A    between atoms: C_3  and  N_4 
REMARK    2  A    between atoms: N_4  and  S_5 
REMARK    3  A    between atoms: S_5  and  C_6 
REMARK    4  A    between atoms: C_12  and  C_13 
REMARK       I    between atoms: C_13  and  N_14 
REMARK    5  A    between atoms: N_14  and  C_15 
REMARK    6  A    between atoms: C_15  and  C_16 
REMARK    7  A    between atoms: C_16  and  C_17 
REMARK    8  A    between atoms: C_17  and  O_18 
REMARK    9  A    between atoms: O_18  and  C_19 
ROOT
HETATM    1  C   UNL     1       7.284  31.461  59.882  1.00  0.00     0.081 A 
HETATM    2  C   UNL     1       7.803  30.369  59.183  1.00  0.00     0.043 A 
HETATM    3  C   UNL     1       7.256  30.039  57.939  1.00  0.00     0.043 A 
HETATM    4  C   UNL     1       6.224  30.809  57.375  1.00  0.00     0.046 A 
HETATM    5  N   UNL     1       5.685  30.443  56.138  1.00  0.00    -0.364 N 
HETATM    6  C   UNL     1       6.146  29.342  55.463  1.00  0.00     0.109 A 
HETATM    7  C   UNL     1       7.118  28.518  55.891  1.00  0.00     0.098 A 
HETATM    8  C   UNL     1       7.750  28.845  57.201  1.00  0.00     0.201 A 
HETATM    9  O   UNL     1       8.638  28.147  57.685  1.00  0.00    -0.286 OA
HETATM   10  C   UNL     1       5.729  31.908  58.084  1.00  0.00     0.032 A 
HETATM   11  C   UNL     1       6.258  32.238  59.336  1.00  0.00     0.027 A 
HETATM   12  H   UNL     1       4.984  31.028  55.698  1.00  0.00     0.165 HD
ENDROOT
BRANCH   1  13
HETATM   13  S   UNL     1       7.984  31.885  61.461  1.00  0.00     0.263 S 
HETATM   14  O   UNL     1       9.393  32.159  61.266  1.00  0.00    -0.200 OA
HETATM   15  O   UNL     1       7.543  30.879  62.405  1.00  0.00    -0.200 OA
BRANCH  13  16
HETATM   16  N   UNL     1       7.175  33.301  61.865  1.00  0.00    -0.280 N 
HETATM   17  H   UNL     1       7.478  34.116  61.336  1.00  0.00     0.179 HD
BRANCH  16  18
HETATM   18  C   UNL     1       6.635  33.481  63.168  1.00  0.00     0.048 A 
HETATM   19  C   UNL     1       5.250  33.566  63.381  1.00  0.00    -0.035 A 
HETATM   20  C   UNL     1       4.236  33.530  62.273  1.00  0.00     0.050 C 
HETATM   21  C   UNL     1       4.783  33.761  64.693  1.00  0.00     0.009 A 
HETATM   22  C   UNL     1       5.669  33.840  65.768  1.00  0.00     0.001 A 
HETATM   23  C   UNL     1       7.038  33.740  65.546  1.00  0.00     0.002 A 
HETATM   24  C   UNL     1       7.519  33.566  64.249  1.00  0.00     0.030 A 
ENDBRANCH  16  18
ENDBRANCH  13  16
ENDBRANCH   1  13
BRANCH   7  25
HETATM   25  C   UNL     1       7.459  27.326  55.061  1.00  0.00     0.257 C 
HETATM   26  N   UNL     1       7.420  26.123  55.716  1.00  0.00    -0.357 N 
HETATM   27  H   UNL     1       7.193  26.120  56.712  1.00  0.00     0.162 HD
HETATM   28  O   UNL     1       7.726  27.429  53.866  1.00  0.00    -0.267 OA
BRANCH  26  29
HETATM   29  C   UNL     1       7.598  24.857  55.041  1.00  0.00     0.125 C 
BRANCH  29  30
HETATM   30  C   UNL     1       8.418  23.865  55.856  1.00  0.00     0.046 C 
BRANCH  30  31
HETATM   31  C   UNL     1       7.791  22.476  55.796  1.00  0.00     0.169 C 
BRANCH  31  32
HETATM   32  O   UNL     1       7.586  22.121  54.431  1.00  0.00    -0.387 OA
BRANCH  32  33
HETATM   33  C   UNL     1       7.751  20.723  54.170  1.00  0.00     0.113 C 
HETATM   34  C   UNL     1       8.411  20.485  52.814  1.00  0.00     0.039 C 
HETATM   35  C   UNL     1       8.624  20.160  55.285  1.00  0.00     0.039 C 
ENDBRANCH  32  33
ENDBRANCH  31  32
ENDBRANCH  30  31
ENDBRANCH  29  30
ENDBRANCH  26  29
ENDBRANCH   7  25
TORSDOF 9
ENDMDL
MODEL 6
REMARK VINA RESULT:      -8.7      5.034      9.150
REMARK  9 active torsions:
REMARK  status: ('A' for Active; 'I' for Inactive)
REMARK    1  A    between atoms: C_3  and  N_4 
REMARK    2  A    between atoms: N_4  and  S_5 
REMARK    3  A    between atoms: S_5  and  C_6 
REMARK    4  A    between atoms: C_12  and  C_13 
REMARK       I    between atoms: C_13  and  N_14 
REMARK    5  A    between atoms: N_14  and  C_15 
REMARK    6  A    between atoms: C_15  and  C_16 
REMARK    7  A    between atoms: C_16  and  C_17 
REMARK    8  A    between atoms: C_17  and  O_18 
REMARK    9  A    between atoms: O_18  and  C_19 
ROOT
HETATM    1  C   UNL     1       6.800  26.429  55.244  1.00  0.00     0.081 A 
HETATM    2  C   UNL     1       6.423  26.022  53.961  1.00  0.00     0.043 A 
HETATM    3  C   UNL     1       6.054  26.991  53.024  1.00  0.00     0.043 A 
HETATM    4  C   UNL     1       6.091  28.359  53.345  1.00  0.00     0.046 A 
HETATM    5  N   UNL     1       5.699  29.304  52.392  1.00  0.00    -0.364 N 
HETATM    6  C   UNL     1       5.275  28.919  51.145  1.00  0.00     0.109 A 
HETATM    7  C   UNL     1       5.182  27.649  50.714  1.00  0.00     0.098 A 
HETATM    8  C   UNL     1       5.591  26.581  51.671  1.00  0.00     0.201 A 
HETATM    9  O   UNL     1       5.532  25.389  51.376  1.00  0.00    -0.286 OA
HETATM   10  C   UNL     1       6.487  28.747  54.629  1.00  0.00     0.032 A 
HETATM   11  C   UNL     1       6.844  27.785  55.580  1.00  0.00     0.027 A 
HETATM   12  H   UNL     1       5.782  30.294  52.595  1.00  0.00     0.165 HD
ENDROOT
BRANCH   1  13
HETATM   13  S   UNL     1       7.276  25.197  56.434  1.00  0.00     0.263 S 
HETATM   14  O   UNL     1       6.120  24.368  56.706  1.00  0.00    -0.200 OA
HETATM   15  O   UNL     1       7.970  25.885  57.502  1.00  0.00    -0.200 OA
BRANCH  13  16
HETATM   16  N   UNL     1       8.439  24.306  55.610  1.00  0.00    -0.280 N 
HETATM   17  H   UNL     1       8.935  24.835  54.895  1.00  0.00     0.179 HD
BRANCH  16  18
HETATM   18  C   UNL     1       8.307  22.898  55.465  1.00  0.00     0.048 A 
HETATM   19  C   UNL     1       8.076  22.310  54.212  1.00  0.00    -0.035 A 
HETATM   20  C   UNL     1       7.899  23.098  52.944  1.00  0.00     0.050 C 
HETATM   21  C   UNL     1       7.939  20.912  54.141  1.00  0.00     0.009 A 
HETATM   22  C   UNL     1       8.056  20.119  55.283  1.00  0.00     0.001 A 
HETATM   23  C   UNL     1       8.298  20.712  56.517  1.00  0.00     0.002 A 
HETATM   24  C   UNL     1       8.417  22.098  56.607  1.00  0.00     0.030 A 
ENDBRANCH  16  18
ENDBRANCH  13  16
ENDBRANCH   1  13
BRANCH   7  25
HETATM   25  C   UNL     1       4.643  27.399  49.346  1.00  0.00     0.257 C 
HETATM   26  N   UNL     1       3.397  26.829  49.301  1.00  0.00    -0.357 N 
HETATM   27  H   UNL     1       2.939  26.593  50.183  1.00  0.00     0.162 HD
HETATM   28  O   UNL     1       5.271  27.714  48.338  1.00  0.00    -0.267 OA
BRANCH  26  29
HETATM   29  C   UNL     1       2.669  26.633  48.068  1.00  0.00     0.125 C 
BRANCH  29  30
HETATM   30  C   UNL     1       1.288  27.275  48.090  1.00  0.00     0.046 C 
BRANCH  30  31
HETATM   31  C   UNL     1       1.383  28.734  48.525  1.00  0.00     0.169 C 
BRANCH  31  32
HETATM   32  O   UNL     1       2.301  29.411  47.670  1.00  0.00    -0.387 OA
BRANCH  32  33
HETATM   33  C   UNL     1       3.017  30.468  48.318  1.00  0.00     0.113 C 
HETATM   34  C   UNL     1       4.155  30.988  47.443  1.00  0.00     0.039 C 
HETATM   35  C   UNL     1       2.015  31.584  48.593  1.00  0.00     0.039 C 
ENDBRANCH  32  33
ENDBRANCH  31  32
ENDBRANCH  30  31
ENDBRANCH  29  30
ENDBRANCH  26  29
ENDBRANCH   7  25
TORSDOF 9
ENDMDL
MODEL 7
REMARK VINA RESULT:      -8.7      2.068      2.976
REMARK  9 active torsions:
REMARK  status: ('A' for Active; 'I' for Inactive)
REMARK    1  A    between atoms: C_3  and  N_4 
REMARK    2  A    between atoms: N_4  and  S_5 
REMARK    3  A    between atoms: S_5  and  C_6 
REMARK    4  A    between atoms: C_12  and  C_13 
REMARK       I    between atoms: C_13  and  N_14 
REMARK    5  A    between atoms: N_14  and  C_15 
REMARK    6  A    between atoms: C_15  and  C_16 
REMARK    7  A    between atoms: C_16  and  C_17 
REMARK    8  A    between atoms: C_17  and  O_18 
REMARK    9  A    between atoms: O_18  and  C_19 
ROOT
HETATM    1  C   UNL     1       6.080  27.774  54.328  1.00  0.00     0.081 A 
HETATM    2  C   UNL     1       5.299  28.577  55.163  1.00  0.00     0.043 A 
HETATM    3  C   UNL     1       5.930  29.370  56.125  1.00  0.00     0.043 A 
HETATM    4  C   UNL     1       7.331  29.394  56.237  1.00  0.00     0.046 A 
HETATM    5  N   UNL     1       7.933  30.184  57.222  1.00  0.00    -0.364 N 
HETATM    6  C   UNL     1       7.178  30.937  58.085  1.00  0.00     0.109 A 
HETATM    7  C   UNL     1       5.835  30.997  58.093  1.00  0.00     0.098 A 
HETATM    8  C   UNL     1       5.118  30.188  57.066  1.00  0.00     0.201 A 
HETATM    9  O   UNL     1       3.891  30.167  56.999  1.00  0.00    -0.286 OA
HETATM   10  C   UNL     1       8.096  28.595  55.382  1.00  0.00     0.032 A 
HETATM   11  C   UNL     1       7.475  27.786  54.425  1.00  0.00     0.027 A 
HETATM   12  H   UNL     1       8.943  30.253  57.269  1.00  0.00     0.165 HD
ENDROOT
BRANCH   1  13
HETATM   13  S   UNL     1       5.277  26.771  53.099  1.00  0.00     0.263 S 
HETATM   14  O   UNL     1       6.178  26.637  51.974  1.00  0.00    -0.200 OA
HETATM   15  O   UNL     1       3.940  27.300  52.927  1.00  0.00    -0.200 OA
BRANCH  13  16
HETATM   16  N   UNL     1       5.104  25.290  53.875  1.00  0.00    -0.280 N 
HETATM   17  H   UNL     1       4.295  25.237  54.489  1.00  0.00     0.179 HD
BRANCH  16  18
HETATM   18  C   UNL     1       6.239  24.479  54.151  1.00  0.00     0.048 A 
HETATM   19  C   UNL     1       6.714  24.306  55.460  1.00  0.00    -0.035 A 
HETATM   20  C   UNL     1       6.116  24.989  56.658  1.00  0.00     0.050 C 
HETATM   21  C   UNL     1       7.852  23.503  55.662  1.00  0.00     0.009 A 
HETATM   22  C   UNL     1       8.481  22.867  54.592  1.00  0.00     0.001 A 
HETATM   23  C   UNL     1       7.993  23.034  53.301  1.00  0.00     0.002 A 
HETATM   24  C   UNL     1       6.878  23.842  53.081  1.00  0.00     0.030 A 
ENDBRANCH  16  18
ENDBRANCH  13  16
ENDBRANCH   1  13
BRANCH   7  25
HETATM   25  C   UNL     1       5.165  31.821  59.141  1.00  0.00     0.257 C 
HETATM   26  N   UNL     1       5.803  31.859  60.354  1.00  0.00    -0.357 N 
HETATM   27  H   UNL     1       6.659  31.314  60.470  1.00  0.00     0.162 HD
HETATM   28  O   UNL     1       4.130  32.440  58.909  1.00  0.00    -0.267 OA
BRANCH  26  29
HETATM   29  C   UNL     1       5.366  32.705  61.442  1.00  0.00     0.125 C 
BRANCH  29  30
HETATM   30  C   UNL     1       5.812  32.190  62.804  1.00  0.00     0.046 C 
BRANCH  30  31
HETATM   31  C   UNL     1       7.147  31.462  62.691  1.00  0.00     0.169 C 
BRANCH  31  32
HETATM   32  O   UNL     1       8.153  32.399  62.313  1.00  0.00    -0.387 OA
BRANCH  32  33
HETATM   33  C   UNL     1       9.350  31.790  61.818  1.00  0.00     0.113 C 
HETATM   34  C   UNL     1       9.291  30.269  61.937  1.00  0.00     0.039 C 
HETATM   35  C   UNL     1       9.486  32.197  60.355  1.00  0.00     0.039 C 
ENDBRANCH  32  33
ENDBRANCH  31  32
ENDBRANCH  30  31
ENDBRANCH  29  30
ENDBRANCH  26  29
ENDBRANCH   7  25
TORSDOF 9
ENDMDL
MODEL 8
REMARK VINA RESULT:      -8.6      5.334      8.514
REMARK  9 active torsions:
REMARK  status: ('A' for Active; 'I' for Inactive)
REMARK    1  A    between atoms: C_3  and  N_4 
REMARK    2  A    between atoms: N_4  and  S_5 
REMARK    3  A    between atoms: S_5  and  C_6 
REMARK    4  A    between atoms: C_12  and  C_13 
REMARK       I    between atoms: C_13  and  N_14 
REMARK    5  A    between atoms: N_14  and  C_15 
REMARK    6  A    between atoms: C_15  and  C_16 
REMARK    7  A    between atoms: C_16  and  C_17 
REMARK    8  A    between atoms: C_17  and  O_18 
REMARK    9  A    between atoms: O_18  and  C_19 
ROOT
HETATM    1  C   UNL     1       7.148  25.168  56.456  1.00  0.00     0.081 A 
HETATM    2  C   UNL     1       7.241  26.013  55.347  1.00  0.00     0.043 A 
HETATM    3  C   UNL     1       6.192  26.896  55.079  1.00  0.00     0.043 A 
HETATM    4  C   UNL     1       5.071  26.967  55.925  1.00  0.00     0.046 A 
HETATM    5  N   UNL     1       4.029  27.848  55.620  1.00  0.00    -0.364 N 
HETATM    6  C   UNL     1       4.080  28.646  54.506  1.00  0.00     0.109 A 
HETATM    7  C   UNL     1       5.084  28.670  53.612  1.00  0.00     0.098 A 
HETATM    8  C   UNL     1       6.238  27.764  53.872  1.00  0.00     0.201 A 
HETATM    9  O   UNL     1       7.200  27.704  53.108  1.00  0.00    -0.286 OA
HETATM   10  C   UNL     1       5.004  26.124  57.038  1.00  0.00     0.032 A 
HETATM   11  C   UNL     1       6.041  25.225  57.309  1.00  0.00     0.027 A 
HETATM   12  H   UNL     1       3.247  27.948  56.257  1.00  0.00     0.165 HD
ENDROOT
BRANCH   1  13
HETATM   13  S   UNL     1       8.486  24.049  56.802  1.00  0.00     0.263 S 
HETATM   14  O   UNL     1       7.923  22.835  57.354  1.00  0.00    -0.200 OA
HETATM   15  O   UNL     1       9.492  24.801  57.523  1.00  0.00    -0.200 OA
BRANCH  13  16
HETATM   16  N   UNL     1       9.126  23.744  55.278  1.00  0.00    -0.280 N 
HETATM   17  H   UNL     1       9.340  24.583  54.744  1.00  0.00     0.179 HD
BRANCH  16  18
HETATM   18  C   UNL     1       8.810  22.542  54.587  1.00  0.00     0.048 A 
HETATM   19  C   UNL     1       8.168  22.563  53.339  1.00  0.00    -0.035 A 
HETATM   20  C   UNL     1       7.717  23.825  52.658  1.00  0.00     0.050 C 
HETATM   21  C   UNL     1       7.870  21.338  52.716  1.00  0.00     0.009 A 
HETATM   22  C   UNL     1       8.227  20.125  53.306  1.00  0.00     0.001 A 
HETATM   23  C   UNL     1       8.875  20.118  54.537  1.00  0.00     0.002 A 
HETATM   24  C   UNL     1       9.161  21.323  55.176  1.00  0.00     0.030 A 
ENDBRANCH  16  18
ENDBRANCH  13  16
ENDBRANCH   1  13
BRANCH   7  25
HETATM   25  C   UNL     1       4.954  29.556  52.419  1.00  0.00     0.257 C 
HETATM   26  N   UNL     1       5.318  28.990  51.225  1.00  0.00    -0.357 N 
HETATM   27  H   UNL     1       5.671  28.031  51.230  1.00  0.00     0.162 HD
HETATM   28  O   UNL     1       4.522  30.703  52.511  1.00  0.00    -0.267 OA
BRANCH  26  29
HETATM   29  C   UNL     1       5.138  29.656  49.955  1.00  0.00     0.125 C 
BRANCH  29  30
HETATM   30  C   UNL     1       3.687  29.661  49.492  1.00  0.00     0.046 C 
BRANCH  30  31
HETATM   31  C   UNL     1       3.416  28.481  48.566  1.00  0.00     0.169 C 
BRANCH  31  32
HETATM   32  O   UNL     1       3.471  27.276  49.326  1.00  0.00    -0.387 OA
BRANCH  32  33
HETATM   33  C   UNL     1       4.103  26.191  48.639  1.00  0.00     0.113 C 
HETATM   34  C   UNL     1       3.075  25.249  48.018  1.00  0.00     0.039 C 
HETATM   35  C   UNL     1       4.979  26.801  47.550  1.00  0.00     0.039 C 
ENDBRANCH  32  33
ENDBRANCH  31  32
ENDBRANCH  30  31
ENDBRANCH  29  30
ENDBRANCH  26  29
ENDBRANCH   7  25
TORSDOF 9
ENDMDL
MODEL 9
REMARK VINA RESULT:      -8.5      2.462     10.215
REMARK  9 active torsions:
REMARK  status: ('A' for Active; 'I' for Inactive)
REMARK    1  A    between atoms: C_3  and  N_4 
REMARK    2  A    between atoms: N_4  and  S_5 
REMARK    3  A    between atoms: S_5  and  C_6 
REMARK    4  A    between atoms: C_12  and  C_13 
REMARK       I    between atoms: C_13  and  N_14 
REMARK    5  A    between atoms: N_14  and  C_15 
REMARK    6  A    between atoms: C_15  and  C_16 
REMARK    7  A    between atoms: C_16  and  C_17 
REMARK    8  A    between atoms: C_17  and  O_18 
REMARK    9  A    between atoms: O_18  and  C_19 
ROOT
HETATM    1  C   UNL     1       5.496  31.195  58.118  1.00  0.00     0.081 A 
HETATM    2  C   UNL     1       6.254  30.049  57.863  1.00  0.00     0.043 A 
HETATM    3  C   UNL     1       5.760  29.096  56.968  1.00  0.00     0.043 A 
HETATM    4  C   UNL     1       4.538  29.293  56.302  1.00  0.00     0.046 A 
HETATM    5  N   UNL     1       4.061  28.312  55.426  1.00  0.00    -0.364 N 
HETATM    6  C   UNL     1       4.767  27.157  55.205  1.00  0.00     0.109 A 
HETATM    7  C   UNL     1       5.939  26.840  55.782  1.00  0.00     0.098 A 
HETATM    8  C   UNL     1       6.518  27.839  56.724  1.00  0.00     0.201 A 
HETATM    9  O   UNL     1       7.580  27.637  57.311  1.00  0.00    -0.286 OA
HETATM   10  C   UNL     1       3.802  30.454  56.559  1.00  0.00     0.032 A 
HETATM   11  C   UNL     1       4.279  31.408  57.464  1.00  0.00     0.027 A 
HETATM   12  H   UNL     1       3.212  28.475  54.897  1.00  0.00     0.165 HD
ENDROOT
BRANCH   1  13
HETATM   13  S   UNL     1       6.128  32.411  59.251  1.00  0.00     0.263 S 
HETATM   14  O   UNL     1       5.305  33.597  59.138  1.00  0.00    -0.200 OA
HETATM   15  O   UNL     1       7.561  32.475  59.049  1.00  0.00    -0.200 OA
BRANCH  13  16
HETATM   16  N   UNL     1       5.893  31.689  60.749  1.00  0.00    -0.280 N 
HETATM   17  H   UNL     1       5.065  31.098  60.799  1.00  0.00     0.179 HD
BRANCH  16  18
HETATM   18  C   UNL     1       6.376  32.306  61.936  1.00  0.00     0.048 A 
HETATM   19  C   UNL     1       7.593  31.920  62.518  1.00  0.00    -0.035 A 
HETATM   20  C   UNL     1       8.453  30.809  61.985  1.00  0.00     0.050 C 
HETATM   21  C   UNL     1       8.005  32.561  63.701  1.00  0.00     0.009 A 
HETATM   22  C   UNL     1       7.239  33.577  64.273  1.00  0.00     0.001 A 
HETATM   23  C   UNL     1       6.041  33.960  63.679  1.00  0.00     0.002 A 
HETATM   24  C   UNL     1       5.610  33.322  62.517  1.00  0.00     0.030 A 
ENDBRANCH  16  18
ENDBRANCH  13  16
ENDBRANCH   1  13
BRANCH   7  25
HETATM   25  C   UNL     1       6.546  25.511  55.478  1.00  0.00     0.257 C 
HETATM   26  N   UNL     1       7.869  25.381  55.810  1.00  0.00    -0.357 N 
HETATM   27  H   UNL     1       8.351  26.188  56.209  1.00  0.00     0.162 HD
HETATM   28  O   UNL     1       5.885  24.598  54.990  1.00  0.00    -0.267 OA
BRANCH  26  29
HETATM   29  C   UNL     1       8.584  24.129  55.703  1.00  0.00     0.125 C 
BRANCH  29  30
HETATM   30  C   UNL     1       8.463  23.273  56.958  1.00  0.00     0.046 C 
BRANCH  30  31
HETATM   31  C   UNL     1       8.327  21.800  56.590  1.00  0.00     0.169 C 
BRANCH  31  32
HETATM   32  O   UNL     1       7.388  21.675  55.524  1.00  0.00    -0.387 OA
BRANCH  32  33
HETATM   33  C   UNL     1       7.757  20.698  54.545  1.00  0.00     0.113 C 
HETATM   34  C   UNL     1       8.081  21.350  53.203  1.00  0.00     0.039 C 
HETATM   35  C   UNL     1       8.981  19.966  55.082  1.00  0.00     0.039 C 
ENDBRANCH  32  33
ENDBRANCH  31  32
ENDBRANCH  30  31
ENDBRANCH  29  30
ENDBRANCH  26  29
ENDBRANCH   7  25
TORSDOF 9
ENDMDL
MODEL 10
REMARK VINA RESULT:      -8.5      2.295      2.981
REMARK  9 active torsions:
REMARK  status: ('A' for Active; 'I' for Inactive)
REMARK    1  A    between atoms: C_3  and  N_4 
REMARK    2  A    between atoms: N_4  and  S_5 
REMARK    3  A    between atoms: S_5  and  C_6 
REMARK    4  A    between atoms: C_12  and  C_13 
REMARK       I    between atoms: C_13  and  N_14 
REMARK    5  A    between atoms: N_14  and  C_15 
REMARK    6  A    between atoms: C_15  and  C_16 
REMARK    7  A    between atoms: C_16  and  C_17 
REMARK    8  A    between atoms: C_17  and  O_18 
REMARK    9  A    between atoms: O_18  and  C_19 
ROOT
HETATM    1  C   UNL     1       6.305  28.558  54.827  1.00  0.00     0.081 A 
HETATM    2  C   UNL     1       5.993  29.365  55.924  1.00  0.00     0.043 A 
HETATM    3  C   UNL     1       7.024  29.794  56.764  1.00  0.00     0.043 A 
HETATM    4  C   UNL     1       8.362  29.453  56.501  1.00  0.00     0.046 A 
HETATM    5  N   UNL     1       9.370  29.882  57.370  1.00  0.00    -0.364 N 
HETATM    6  C   UNL     1       9.075  30.630  58.481  1.00  0.00     0.109 A 
HETATM    7  C   UNL     1       7.842  31.015  58.854  1.00  0.00     0.098 A 
HETATM    8  C   UNL     1       6.713  30.604  57.973  1.00  0.00     0.201 A 
HETATM    9  O   UNL     1       5.548  30.897  58.233  1.00  0.00    -0.286 OA
HETATM   10  C   UNL     1       8.656  28.657  55.389  1.00  0.00     0.032 A 
HETATM   11  C   UNL     1       7.630  28.210  54.549  1.00  0.00     0.027 A 
HETATM   12  H   UNL     1      10.342  29.692  57.153  1.00  0.00     0.165 HD
ENDROOT
BRANCH   1  13
HETATM   13  S   UNL     1       4.994  28.019  53.754  1.00  0.00     0.263 S 
HETATM   14  O   UNL     1       5.533  27.901  52.415  1.00  0.00    -0.200 OA
HETATM   15  O   UNL     1       3.849  28.862  54.027  1.00  0.00    -0.200 OA
BRANCH  13  16
HETATM   16  N   UNL     1       4.615  26.496  54.356  1.00  0.00    -0.280 N 
HETATM   17  H   UNL     1       3.893  26.503  55.073  1.00  0.00     0.179 HD
BRANCH  16  18
HETATM   18  C   UNL     1       5.583  25.455  54.355  1.00  0.00     0.048 A 
HETATM   19  C   UNL     1       6.131  24.963  55.550  1.00  0.00    -0.035 A 
HETATM   20  C   UNL     1       5.793  25.515  56.907  1.00  0.00     0.050 C 
HETATM   21  C   UNL     1       7.096  23.943  55.478  1.00  0.00     0.009 A 
HETATM   22  C   UNL     1       7.484  23.406  54.250  1.00  0.00     0.001 A 
HETATM   23  C   UNL     1       6.925  23.892  53.073  1.00  0.00     0.002 A 
HETATM   24  C   UNL     1       5.981  24.916  53.126  1.00  0.00     0.030 A 
ENDBRANCH  16  18
ENDBRANCH  13  16
ENDBRANCH   1  13
BRANCH   7  25
HETATM   25  C   UNL     1       7.689  31.777  60.128  1.00  0.00     0.257 C 
HETATM   26  N   UNL     1       6.640  31.390  60.921  1.00  0.00    -0.357 N 
HETATM   27  H   UNL     1       6.030  30.642  60.587  1.00  0.00     0.162 HD
HETATM   28  O   UNL     1       8.474  32.668  60.444  1.00  0.00    -0.267 OA
BRANCH  26  29
HETATM   29  C   UNL     1       6.417  31.930  62.243  1.00  0.00     0.125 C 
BRANCH  29  30
HETATM   30  C   UNL     1       5.556  33.186  62.229  1.00  0.00     0.046 C 
BRANCH  30  31
HETATM   31  C   UNL     1       6.267  34.331  62.942  1.00  0.00     0.169 C 
BRANCH  31  32
HETATM   32  O   UNL     1       5.780  35.569  62.428  1.00  0.00    -0.387 OA
BRANCH  32  33
HETATM   33  C   UNL     1       5.419  36.510  63.443  1.00  0.00     0.113 C 
HETATM   34  C   UNL     1       5.988  37.895  63.146  1.00  0.00     0.039 C 
HETATM   35  C   UNL     1       3.896  36.566  63.480  1.00  0.00     0.039 C 
ENDBRANCH  32  33
ENDBRANCH  31  32
ENDBRANCH  30  31
ENDBRANCH  29  30
ENDBRANCH  26  29
ENDBRANCH   7  25
TORSDOF 9
ENDMDL
