MODEL 1
REMARK VINA RESULT:     -10.0      0.000      0.000
REMARK  9 active torsions:
REMARK  status: ('A' for Active; 'I' for Inactive)
REMARK    1  A    between atoms: C_2  and  O_3 
REMARK    2  A    between atoms: O_3  and  C_4 
REMARK    3  A    between atoms: C_7  and  N_8 
REMARK    4  A    between atoms: C_12  and  N_13 
REMARK       I    between atoms: N_13  and  C_14 
REMARK       I    between atoms: C_14  and  N_15 
REMARK    5  A    between atoms: N_15  and  C_16 
REMARK    6  A    between atoms: C_16  and  C_17 
REMARK    7  A    between atoms: C_17  and  C_18 
REMARK    8  A    between atoms: C_21  and  S_22 
REMARK    9  A    between atoms: S_22  and  N_23 
ROOT
HETATM    1  N   UNL     1       8.570  29.125  55.417  1.00  0.00    -0.336 N 
HETATM    2  C   UNL     1       7.715  28.069  55.226  1.00  0.00     0.316 C 
HETATM    3  N   UNL     1       7.191  28.087  53.964  1.00  0.00    -0.343 N 
HETATM    4  O   UNL     1       7.439  27.244  56.084  1.00  0.00    -0.248 OA
HETATM    5  H   UNL     1       9.116  29.341  54.592  1.00  0.00     0.164 HD
HETATM    6  H   UNL     1       7.152  28.996  53.522  1.00  0.00     0.164 HD
ENDROOT
BRANCH   1   7
HETATM    7  C   UNL     1       9.221  29.311  56.708  1.00  0.00     0.113 C 
HETATM    8  C   UNL     1      10.201  30.472  56.683  1.00  0.00     0.130 C 
HETATM    9  C   UNL     1      10.134  31.050  58.073  1.00  0.00     0.226 C 
HETATM   10  N   UNL     1       8.964  30.595  58.687  1.00  0.00    -0.316 N 
HETATM   11  O   UNL     1      10.973  31.835  58.490  1.00  0.00    -0.273 OA
HETATM   12  C   UNL     1       8.249  29.677  57.830  1.00  0.00     0.157 C 
BRANCH  10  13
HETATM   13  C   UNL     1       8.388  31.091  59.892  1.00  0.00     0.037 A 
HETATM   14  C   UNL     1       8.950  30.833  61.148  1.00  0.00     0.032 A 
HETATM   15  C   UNL     1       8.428  31.410  62.316  1.00  0.00     0.039 A 
HETATM   16  C   UNL     1       7.328  32.259  62.246  1.00  0.00     0.068 A 
HETATM   17  C   UNL     1       6.716  32.473  61.017  1.00  0.00     0.039 A 
HETATM   18  C   UNL     1       7.243  31.903  59.853  1.00  0.00     0.032 A 
BRANCH  16  19
HETATM   19  O   UNL     1       6.765  32.910  63.306  1.00  0.00    -0.352 OA
BRANCH  19  20
HETATM   20  C   UNL     1       7.627  33.108  64.429  1.00  0.00     0.171 C 
HETATM   21  C   UNL     1       6.830  33.820  65.507  1.00  0.00     0.034 C 
ENDBRANCH  19  20
ENDBRANCH  16  19
ENDBRANCH  10  13
ENDBRANCH   1   7
BRANCH   3  22
HETATM   22  C   UNL     1       6.227  27.087  53.548  1.00  0.00     0.129 C 
BRANCH  22  23
HETATM   23  C   UNL     1       6.820  26.037  52.601  1.00  0.00     0.058 C 
BRANCH  23  24
HETATM   24  C   UNL     1       7.181  24.724  53.262  1.00  0.00    -0.057 A 
HETATM   25  C   UNL     1       6.802  24.454  54.586  1.00  0.00     0.009 A 
HETATM   26  C   UNL     1       7.160  23.250  55.193  1.00  0.00     0.025 A 
HETATM   27  C   UNL     1       7.882  22.298  54.468  1.00  0.00     0.074 A 
HETATM   28  C   UNL     1       8.261  22.548  53.148  1.00  0.00     0.025 A 
HETATM   29  C   UNL     1       7.903  23.755  52.547  1.00  0.00     0.009 A 
BRANCH  27  30
HETATM   30  S   UNL     1       8.379  20.796  55.255  1.00  0.00     0.239 S 
HETATM   31  O   UNL     1       9.658  20.997  55.898  1.00  0.00    -0.206 OA
HETATM   32  O   UNL     1       7.247  20.227  55.948  1.00  0.00    -0.206 OA
BRANCH  30  33
HETATM   33  N   UNL     1       8.675  19.794  53.943  1.00  0.00    -0.225 NA
HETATM   34  H   UNL     1       8.811  18.834  54.262  1.00  0.00     0.136 HD
HETATM   35  H   UNL     1       7.931  19.898  53.253  1.00  0.00     0.136 HD
ENDBRANCH  30  33
ENDBRANCH  27  30
ENDBRANCH  23  24
ENDBRANCH  22  23
ENDBRANCH   3  22
TORSDOF 9
ENDMDL
MODEL 2
REMARK VINA RESULT:      -9.8      4.345     12.119
REMARK  9 active torsions:
REMARK  status: ('A' for Active; 'I' for Inactive)
REMARK    1  A    between atoms: C_2  and  O_3 
REMARK    2  A    between atoms: O_3  and  C_4 
REMARK    3  A    between atoms: C_7  and  N_8 
REMARK    4  A    between atoms: C_12  and  N_13 
REMARK       I    between atoms: N_13  and  C_14 
REMARK       I    between atoms: C_14  and  N_15 
REMARK    5  A    between atoms: N_15  and  C_16 
REMARK    6  A    between atoms: C_16  and  C_17 
REMARK    7  A    between atoms: C_17  and  C_18 
REMARK    8  A    between atoms: C_21  and  S_22 
REMARK    9  A    between atoms: S_22  and  N_23 
ROOT
HETATM    1  N   UNL     1       7.268  29.554  58.555  1.00  0.00    -0.336 N 
HETATM    2  C   UNL     1       7.206  30.860  58.970  1.00  0.00     0.316 C 
HETATM    3  N   UNL     1       7.506  30.963  60.300  1.00  0.00    -0.343 N 
HETATM    4  O   UNL     1       6.891  31.796  58.252  1.00  0.00    -0.248 OA
HETATM    5  H   UNL     1       8.019  29.038  58.996  1.00  0.00     0.164 HD
HETATM    6  H   UNL     1       7.330  30.135  60.851  1.00  0.00     0.164 HD
ENDROOT
BRANCH   1   7
HETATM    7  C   UNL     1       6.956  29.214  57.172  1.00  0.00     0.113 C 
HETATM    8  C   UNL     1       8.102  29.557  56.234  1.00  0.00     0.130 C 
HETATM    9  C   UNL     1       8.041  28.499  55.163  1.00  0.00     0.226 C 
HETATM   10  N   UNL     1       7.272  27.432  55.637  1.00  0.00    -0.316 N 
HETATM   11  O   UNL     1       8.650  28.607  54.109  1.00  0.00    -0.273 OA
HETATM   12  C   UNL     1       6.737  27.718  56.949  1.00  0.00     0.157 C 
BRANCH  10  13
HETATM   13  C   UNL     1       7.171  26.135  55.057  1.00  0.00     0.037 A 
HETATM   14  C   UNL     1       6.603  25.925  53.795  1.00  0.00     0.032 A 
HETATM   15  C   UNL     1       6.599  24.655  53.196  1.00  0.00     0.039 A 
HETATM   16  C   UNL     1       7.167  23.569  53.854  1.00  0.00     0.068 A 
HETATM   17  C   UNL     1       7.675  23.745  55.136  1.00  0.00     0.039 A 
HETATM   18  C   UNL     1       7.684  25.013  55.728  1.00  0.00     0.032 A 
BRANCH  16  19
HETATM   19  O   UNL     1       7.261  22.303  53.351  1.00  0.00    -0.352 OA
BRANCH  19  20
HETATM   20  C   UNL     1       8.460  21.601  53.685  1.00  0.00     0.171 C 
HETATM   21  C   UNL     1       8.514  20.343  52.838  1.00  0.00     0.034 C 
ENDBRANCH  19  20
ENDBRANCH  16  19
ENDBRANCH  10  13
ENDBRANCH   1   7
BRANCH   3  22
HETATM   22  C   UNL     1       7.463  32.248  60.970  1.00  0.00     0.129 C 
BRANCH  22  23
HETATM   23  C   UNL     1       8.053  32.209  62.385  1.00  0.00     0.058 C 
BRANCH  23  24
HETATM   24  C   UNL     1       7.148  32.769  63.461  1.00  0.00    -0.057 A 
HETATM   25  C   UNL     1       5.753  32.743  63.315  1.00  0.00     0.009 A 
HETATM   26  C   UNL     1       4.927  33.282  64.303  1.00  0.00     0.025 A 
HETATM   27  C   UNL     1       5.497  33.833  65.454  1.00  0.00     0.074 A 
HETATM   28  C   UNL     1       6.883  33.861  65.618  1.00  0.00     0.025 A 
HETATM   29  C   UNL     1       7.703  33.322  64.625  1.00  0.00     0.009 A 
BRANCH  27  30
HETATM   30  S   UNL     1       4.453  34.562  66.680  1.00  0.00     0.239 S 
HETATM   31  O   UNL     1       3.190  34.920  66.076  1.00  0.00    -0.206 OA
HETATM   32  O   UNL     1       4.537  33.787  67.895  1.00  0.00    -0.206 OA
BRANCH  30  33
HETATM   33  N   UNL     1       5.241  36.010  66.994  1.00  0.00    -0.225 NA
HETATM   34  H   UNL     1       5.347  36.135  68.002  1.00  0.00     0.136 HD
HETATM   35  H   UNL     1       6.121  36.043  66.479  1.00  0.00     0.136 HD
ENDBRANCH  30  33
ENDBRANCH  27  30
ENDBRANCH  23  24
ENDBRANCH  22  23
ENDBRANCH   3  22
TORSDOF 9
ENDMDL
MODEL 3
REMARK VINA RESULT:      -9.7      3.823     11.485
REMARK  9 active torsions:
REMARK  status: ('A' for Active; 'I' for Inactive)
REMARK    1  A    between atoms: C_2  and  O_3 
REMARK    2  A    between atoms: O_3  and  C_4 
REMARK    3  A    between atoms: C_7  and  N_8 
REMARK    4  A    between atoms: C_12  and  N_13 
REMARK       I    between atoms: N_13  and  C_14 
REMARK       I    between atoms: C_14  and  N_15 
REMARK    5  A    between atoms: N_15  and  C_16 
REMARK    6  A    between atoms: C_16  and  C_17 
REMARK    7  A    between atoms: C_17  and  C_18 
REMARK    8  A    between atoms: C_21  and  S_22 
REMARK    9  A    between atoms: S_22  and  N_23 
ROOT
HETATM    1  N   UNL     1       8.824  29.354  58.063  1.00  0.00    -0.336 N 
HETATM    2  C   UNL     1       8.426  30.478  58.742  1.00  0.00     0.316 C 
HETATM    3  N   UNL     1       9.484  31.063  59.381  1.00  0.00    -0.343 N 
HETATM    4  O   UNL     1       7.273  30.880  58.791  1.00  0.00    -0.248 OA
HETATM    5  H   UNL     1       9.740  29.454  57.644  1.00  0.00     0.164 HD
HETATM    6  H   UNL     1      10.246  30.442  59.615  1.00  0.00     0.164 HD
ENDROOT
BRANCH   1   7
HETATM    7  C   UNL     1       7.845  28.560  57.332  1.00  0.00     0.113 C 
HETATM    8  C   UNL     1       7.845  28.891  55.849  1.00  0.00     0.130 C 
HETATM    9  C   UNL     1       7.509  27.586  55.173  1.00  0.00     0.226 C 
HETATM   10  N   UNL     1       7.728  26.546  56.081  1.00  0.00    -0.316 N 
HETATM   11  O   UNL     1       7.173  27.531  53.999  1.00  0.00    -0.273 OA
HETATM   12  C   UNL     1       8.129  27.059  57.371  1.00  0.00     0.157 C 
BRANCH  10  13
HETATM   13  C   UNL     1       7.779  25.155  55.783  1.00  0.00     0.037 A 
HETATM   14  C   UNL     1       8.432  24.237  56.615  1.00  0.00     0.032 A 
HETATM   15  C   UNL     1       8.388  22.858  56.359  1.00  0.00     0.039 A 
HETATM   16  C   UNL     1       7.688  22.372  55.260  1.00  0.00     0.068 A 
HETATM   17  C   UNL     1       7.091  23.271  54.386  1.00  0.00     0.039 A 
HETATM   18  C   UNL     1       7.128  24.646  54.647  1.00  0.00     0.032 A 
BRANCH  16  19
HETATM   19  O   UNL     1       7.540  21.052  54.940  1.00  0.00    -0.352 OA
BRANCH  19  20
HETATM   20  C   UNL     1       8.673  20.445  54.315  1.00  0.00     0.171 C 
HETATM   21  C   UNL     1       8.398  20.371  52.824  1.00  0.00     0.034 C 
ENDBRANCH  19  20
ENDBRANCH  16  19
ENDBRANCH  10  13
ENDBRANCH   1   7
BRANCH   3  22
HETATM   22  C   UNL     1       9.293  32.246  60.197  1.00  0.00     0.129 C 
BRANCH  22  23
HETATM   23  C   UNL     1       9.196  31.934  61.695  1.00  0.00     0.058 C 
BRANCH  23  24
HETATM   24  C   UNL     1       7.988  32.529  62.386  1.00  0.00    -0.057 A 
HETATM   25  C   UNL     1       7.955  32.680  63.780  1.00  0.00     0.009 A 
HETATM   26  C   UNL     1       6.827  33.209  64.409  1.00  0.00     0.025 A 
HETATM   27  C   UNL     1       5.731  33.608  63.640  1.00  0.00     0.074 A 
HETATM   28  C   UNL     1       5.749  33.471  62.251  1.00  0.00     0.025 A 
HETATM   29  C   UNL     1       6.879  32.939  61.628  1.00  0.00     0.009 A 
BRANCH  27  30
HETATM   30  S   UNL     1       4.283  34.229  64.442  1.00  0.00     0.239 S 
HETATM   31  O   UNL     1       4.195  33.661  65.768  1.00  0.00    -0.206 OA
HETATM   32  O   UNL     1       4.180  35.648  64.200  1.00  0.00    -0.206 OA
BRANCH  30  33
HETATM   33  N   UNL     1       3.056  33.512  63.551  1.00  0.00    -0.225 NA
HETATM   34  H   UNL     1       2.584  34.217  62.982  1.00  0.00     0.136 HD
HETATM   35  H   UNL     1       3.430  32.731  63.013  1.00  0.00     0.136 HD
ENDBRANCH  30  33
ENDBRANCH  27  30
ENDBRANCH  23  24
ENDBRANCH  22  23
ENDBRANCH   3  22
TORSDOF 9
ENDMDL
MODEL 4
REMARK VINA RESULT:      -9.3      4.277     11.842
REMARK  9 active torsions:
REMARK  status: ('A' for Active; 'I' for Inactive)
REMARK    1  A    between atoms: C_2  and  O_3 
REMARK    2  A    between atoms: O_3  and  C_4 
REMARK    3  A    between atoms: C_7  and  N_8 
REMARK    4  A    between atoms: C_12  and  N_13 
REMARK       I    between atoms: N_13  and  C_14 
REMARK       I    between atoms: C_14  and  N_15 
REMARK    5  A    between atoms: N_15  and  C_16 
REMARK    6  A    between atoms: C_16  and  C_17 
REMARK    7  A    between atoms: C_17  and  C_18 
REMARK    8  A    between atoms: C_21  and  S_22 
REMARK    9  A    between atoms: S_22  and  N_23 
ROOT
HETATM    1  N   UNL     1       7.466  28.750  58.370  1.00  0.00    -0.336 N 
HETATM    2  C   UNL     1       8.228  29.831  58.733  1.00  0.00     0.316 C 
HETATM    3  N   UNL     1       7.578  30.598  59.659  1.00  0.00    -0.343 N 
HETATM    4  O   UNL     1       9.328  30.086  58.265  1.00  0.00    -0.248 OA
HETATM    5  H   UNL     1       6.943  28.361  59.144  1.00  0.00     0.164 HD
HETATM    6  H   UNL     1       6.569  30.537  59.643  1.00  0.00     0.164 HD
ENDROOT
BRANCH   1   7
HETATM    7  C   UNL     1       7.961  27.813  57.369  1.00  0.00     0.113 C 
HETATM    8  C   UNL     1       7.579  26.380  57.701  1.00  0.00     0.130 C 
HETATM    9  C   UNL     1       7.380  25.724  56.359  1.00  0.00     0.226 C 
HETATM   10  N   UNL     1       7.219  26.723  55.396  1.00  0.00    -0.316 N 
HETATM   11  O   UNL     1       7.315  24.509  56.234  1.00  0.00    -0.273 OA
HETATM   12  C   UNL     1       7.365  28.037  55.980  1.00  0.00     0.157 C 
BRANCH  10  13
HETATM   13  C   UNL     1       6.760  26.548  54.059  1.00  0.00     0.037 A 
HETATM   14  C   UNL     1       7.443  25.749  53.134  1.00  0.00     0.032 A 
HETATM   15  C   UNL     1       6.925  25.508  51.852  1.00  0.00     0.039 A 
HETATM   16  C   UNL     1       5.710  26.067  51.472  1.00  0.00     0.068 A 
HETATM   17  C   UNL     1       5.050  26.917  52.352  1.00  0.00     0.039 A 
HETATM   18  C   UNL     1       5.564  27.150  53.633  1.00  0.00     0.032 A 
BRANCH  16  19
HETATM   19  O   UNL     1       5.090  25.866  50.271  1.00  0.00    -0.352 OA
BRANCH  19  20
HETATM   20  C   UNL     1       4.783  27.052  49.536  1.00  0.00     0.171 C 
HETATM   21  C   UNL     1       4.527  26.652  48.094  1.00  0.00     0.034 C 
ENDBRANCH  19  20
ENDBRANCH  16  19
ENDBRANCH  10  13
ENDBRANCH   1   7
BRANCH   3  22
HETATM   22  C   UNL     1       8.177  31.819  60.161  1.00  0.00     0.129 C 
BRANCH  22  23
HETATM   23  C   UNL     1       8.600  31.722  61.631  1.00  0.00     0.058 C 
BRANCH  23  24
HETATM   24  C   UNL     1       7.615  32.320  62.612  1.00  0.00    -0.057 A 
HETATM   25  C   UNL     1       6.253  32.427  62.291  1.00  0.00     0.009 A 
HETATM   26  C   UNL     1       5.356  33.001  63.193  1.00  0.00     0.025 A 
HETATM   27  C   UNL     1       5.817  33.452  64.433  1.00  0.00     0.074 A 
HETATM   28  C   UNL     1       7.167  33.347  64.771  1.00  0.00     0.025 A 
HETATM   29  C   UNL     1       8.060  32.775  63.863  1.00  0.00     0.009 A 
BRANCH  27  30
HETATM   30  S   UNL     1       4.689  34.226  65.553  1.00  0.00     0.239 S 
HETATM   31  O   UNL     1       3.346  34.106  65.033  1.00  0.00    -0.206 OA
HETATM   32  O   UNL     1       5.032  33.849  66.904  1.00  0.00    -0.206 OA
BRANCH  30  33
HETATM   33  N   UNL     1       5.101  35.845  65.401  1.00  0.00    -0.225 NA
HETATM   34  H   UNL     1       6.114  35.938  65.314  1.00  0.00     0.136 HD
HETATM   35  H   UNL     1       4.580  36.263  64.631  1.00  0.00     0.136 HD
ENDBRANCH  30  33
ENDBRANCH  27  30
ENDBRANCH  23  24
ENDBRANCH  22  23
ENDBRANCH   3  22
TORSDOF 9
ENDMDL
MODEL 5
REMARK VINA RESULT:      -9.3      1.337      2.081
REMARK  9 active torsions:
REMARK  status: ('A' for Active; 'I' for Inactive)
REMARK    1  A    between atoms: C_2  and  O_3 
REMARK    2  A    between atoms: O_3  and  C_4 
REMARK    3  A    between atoms: C_7  and  N_8 
REMARK    4  A    between atoms: C_12  and  N_13 
REMARK       I    between atoms: N_13  and  C_14 
REMARK       I    between atoms: C_14  and  N_15 
REMARK    5  A    between atoms: N_15  and  C_16 
REMARK    6  A    between atoms: C_16  and  C_17 
REMARK    7  A    between atoms: C_17  and  C_18 
REMARK    8  A    between atoms: C_21  and  S_22 
REMARK    9  A    between atoms: S_22  and  N_23 
ROOT
HETATM    1  N   UNL     1       7.705  29.823  56.885  1.00  0.00    -0.336 N 
HETATM    2  C   UNL     1       7.987  28.724  56.113  1.00  0.00     0.316 C 
HETATM    3  N   UNL     1       7.276  28.753  54.946  1.00  0.00    -0.343 N 
HETATM    4  O   UNL     1       8.748  27.828  56.444  1.00  0.00    -0.248 OA
HETATM    5  H   UNL     1       7.572  30.663  56.337  1.00  0.00     0.164 HD
HETATM    6  H   UNL     1       6.412  29.276  54.976  1.00  0.00     0.164 HD
ENDROOT
BRANCH   1   7
HETATM    7  C   UNL     1       8.337  29.978  58.190  1.00  0.00     0.113 C 
HETATM    8  C   UNL     1       9.524  30.926  58.132  1.00  0.00     0.130 C 
HETATM    9  C   UNL     1       9.525  31.608  59.476  1.00  0.00     0.226 C 
HETATM   10  N   UNL     1       8.270  31.431  60.065  1.00  0.00    -0.316 N 
HETATM   11  O   UNL     1      10.486  32.247  59.878  1.00  0.00    -0.273 OA
HETATM   12  C   UNL     1       7.420  30.605  59.239  1.00  0.00     0.157 C 
BRANCH  10  13
HETATM   13  C   UNL     1       7.763  32.116  61.206  1.00  0.00     0.037 A 
HETATM   14  C   UNL     1       6.573  32.854  61.165  1.00  0.00     0.032 A 
HETATM   15  C   UNL     1       6.036  33.441  62.321  1.00  0.00     0.039 A 
HETATM   16  C   UNL     1       6.685  33.299  63.544  1.00  0.00     0.068 A 
HETATM   17  C   UNL     1       7.901  32.628  63.591  1.00  0.00     0.039 A 
HETATM   18  C   UNL     1       8.430  32.037  62.439  1.00  0.00     0.032 A 
BRANCH  16  19
HETATM   19  O   UNL     1       6.233  33.786  64.738  1.00  0.00    -0.352 OA
BRANCH  19  20
HETATM   20  C   UNL     1       4.849  33.557  65.006  1.00  0.00     0.171 C 
HETATM   21  C   UNL     1       4.548  34.097  66.393  1.00  0.00     0.034 C 
ENDBRANCH  19  20
ENDBRANCH  16  19
ENDBRANCH  10  13
ENDBRANCH   1   7
BRANCH   3  22
HETATM   22  C   UNL     1       7.382  27.669  53.989  1.00  0.00     0.129 C 
BRANCH  22  23
HETATM   23  C   UNL     1       6.254  26.640  54.116  1.00  0.00     0.058 C 
BRANCH  23  24
HETATM   24  C   UNL     1       6.721  25.212  54.299  1.00  0.00    -0.057 A 
HETATM   25  C   UNL     1       7.014  24.401  53.193  1.00  0.00     0.009 A 
HETATM   26  C   UNL     1       7.422  23.079  53.372  1.00  0.00     0.025 A 
HETATM   27  C   UNL     1       7.559  22.567  54.665  1.00  0.00     0.074 A 
HETATM   28  C   UNL     1       7.277  23.362  55.777  1.00  0.00     0.025 A 
HETATM   29  C   UNL     1       6.867  24.683  55.592  1.00  0.00     0.009 A 
BRANCH  27  30
HETATM   30  S   UNL     1       8.025  20.877  54.889  1.00  0.00     0.239 S 
HETATM   31  O   UNL     1       7.301  20.330  56.014  1.00  0.00    -0.206 OA
HETATM   32  O   UNL     1       8.063  20.222  53.603  1.00  0.00    -0.206 OA
BRANCH  30  33
HETATM   33  N   UNL     1       9.620  21.017  55.389  1.00  0.00    -0.225 NA
HETATM   34  H   UNL     1       9.653  21.378  56.344  1.00  0.00     0.136 HD
HETATM   35  H   UNL     1      10.100  20.125  55.269  1.00  0.00     0.136 HD
ENDBRANCH  30  33
ENDBRANCH  27  30
ENDBRANCH  23  24
ENDBRANCH  22  23
ENDBRANCH   3  22
TORSDOF 9
ENDMDL
MODEL 6
REMARK VINA RESULT:      -8.6      6.887     11.652
REMARK  9 active torsions:
REMARK  status: ('A' for Active; 'I' for Inactive)
REMARK    1  A    between atoms: C_2  and  O_3 
REMARK    2  A    between atoms: O_3  and  C_4 
REMARK    3  A    between atoms: C_7  and  N_8 
REMARK    4  A    between atoms: C_12  and  N_13 
REMARK       I    between atoms: N_13  and  C_14 
REMARK       I    between atoms: C_14  and  N_15 
REMARK    5  A    between atoms: N_15  and  C_16 
REMARK    6  A    between atoms: C_16  and  C_17 
REMARK    7  A    between atoms: C_17  and  C_18 
REMARK    8  A    between atoms: C_21  and  S_22 
REMARK    9  A    between atoms: S_22  and  N_23 
ROOT
HETATM    1  N   UNL     1       4.352  25.957  50.321  1.00  0.00    -0.336 N 
HETATM    2  C   UNL     1       5.182  26.670  51.148  1.00  0.00     0.316 C 
HETATM    3  N   UNL     1       5.197  26.132  52.405  1.00  0.00    -0.343 N 
HETATM    4  O   UNL     1       5.798  27.669  50.810  1.00  0.00    -0.248 OA
HETATM    5  H   UNL     1       4.383  24.961  50.499  1.00  0.00     0.164 HD
HETATM    6  H   UNL     1       4.370  25.613  52.666  1.00  0.00     0.164 HD
ENDROOT
BRANCH   1   7
HETATM    7  C   UNL     1       4.167  26.376  48.937  1.00  0.00     0.113 C 
HETATM    8  C   UNL     1       3.702  25.228  48.057  1.00  0.00     0.130 C 
HETATM    9  C   UNL     1       2.812  25.879  47.030  1.00  0.00     0.226 C 
HETATM   10  N   UNL     1       2.441  27.142  47.500  1.00  0.00    -0.316 N 
HETATM   11  O   UNL     1       2.467  25.300  46.010  1.00  0.00    -0.273 OA
HETATM   12  C   UNL     1       3.078  27.434  48.764  1.00  0.00     0.157 C 
BRANCH  10  13
HETATM   13  C   UNL     1       1.418  27.979  46.970  1.00  0.00     0.037 A 
HETATM   14  C   UNL     1       1.632  29.336  46.695  1.00  0.00     0.032 A 
HETATM   15  C   UNL     1       0.645  30.122  46.081  1.00  0.00     0.039 A 
HETATM   16  C   UNL     1      -0.579  29.562  45.731  1.00  0.00     0.068 A 
HETATM   17  C   UNL     1      -0.834  28.235  46.057  1.00  0.00     0.039 A 
HETATM   18  C   UNL     1       0.154  27.450  46.661  1.00  0.00     0.032 A 
BRANCH  16  19
HETATM   19  O   UNL     1      -1.593  30.217  45.091  1.00  0.00    -0.352 OA
BRANCH  19  20
HETATM   20  C   UNL     1      -1.720  31.605  45.409  1.00  0.00     0.171 C 
HETATM   21  C   UNL     1      -3.179  31.879  45.721  1.00  0.00     0.034 C 
ENDBRANCH  19  20
ENDBRANCH  16  19
ENDBRANCH  10  13
ENDBRANCH   1   7
BRANCH   3  22
HETATM   22  C   UNL     1       5.976  26.746  53.463  1.00  0.00     0.129 C 
BRANCH  22  23
HETATM   23  C   UNL     1       7.454  26.344  53.433  1.00  0.00     0.058 C 
BRANCH  23  24
HETATM   24  C   UNL     1       7.733  24.930  53.896  1.00  0.00    -0.057 A 
HETATM   25  C   UNL     1       8.036  23.916  52.976  1.00  0.00     0.009 A 
HETATM   26  C   UNL     1       8.268  22.611  53.411  1.00  0.00     0.025 A 
HETATM   27  C   UNL     1       8.218  22.319  54.777  1.00  0.00     0.074 A 
HETATM   28  C   UNL     1       7.925  23.318  55.707  1.00  0.00     0.025 A 
HETATM   29  C   UNL     1       7.691  24.621  55.265  1.00  0.00     0.009 A 
BRANCH  27  30
HETATM   30  S   UNL     1       8.461  20.655  55.322  1.00  0.00     0.239 S 
HETATM   31  O   UNL     1       9.761  20.544  55.944  1.00  0.00    -0.206 OA
HETATM   32  O   UNL     1       7.255  20.187  55.964  1.00  0.00    -0.206 OA
BRANCH  30  33
HETATM   33  N   UNL     1       8.571  19.823  53.870  1.00  0.00    -0.225 NA
HETATM   34  H   UNL     1       8.520  18.818  54.042  1.00  0.00     0.136 HD
HETATM   35  H   UNL     1       7.864  20.167  53.220  1.00  0.00     0.136 HD
ENDBRANCH  30  33
ENDBRANCH  27  30
ENDBRANCH  23  24
ENDBRANCH  22  23
ENDBRANCH   3  22
TORSDOF 9
ENDMDL
MODEL 7
REMARK VINA RESULT:      -8.4      4.876     12.120
REMARK  9 active torsions:
REMARK  status: ('A' for Active; 'I' for Inactive)
REMARK    1  A    between atoms: C_2  and  O_3 
REMARK    2  A    between atoms: O_3  and  C_4 
REMARK    3  A    between atoms: C_7  and  N_8 
REMARK    4  A    between atoms: C_12  and  N_13 
REMARK       I    between atoms: N_13  and  C_14 
REMARK       I    between atoms: C_14  and  N_15 
REMARK    5  A    between atoms: N_15  and  C_16 
REMARK    6  A    between atoms: C_16  and  C_17 
REMARK    7  A    between atoms: C_17  and  C_18 
REMARK    8  A    between atoms: C_21  and  S_22 
REMARK    9  A    between atoms: S_22  and  N_23 
ROOT
HETATM    1  N   UNL     1       4.494  29.695  58.067  1.00  0.00    -0.336 N 
HETATM    2  C   UNL     1       4.336  31.029  58.345  1.00  0.00     0.316 C 
HETATM    3  N   UNL     1       3.804  31.207  59.592  1.00  0.00    -0.343 N 
HETATM    4  O   UNL     1       4.606  31.931  57.567  1.00  0.00    -0.248 OA
HETATM    5  H   UNL     1       4.781  29.157  58.874  1.00  0.00     0.164 HD
HETATM    6  H   UNL     1       3.251  30.437  59.943  1.00  0.00     0.164 HD
ENDROOT
BRANCH   1   7
HETATM    7  C   UNL     1       5.023  29.279  56.773  1.00  0.00     0.113 C 
HETATM    8  C   UNL     1       6.453  29.752  56.570  1.00  0.00     0.130 C 
HETATM    9  C   UNL     1       7.094  28.668  55.744  1.00  0.00     0.226 C 
HETATM   10  N   UNL     1       6.305  27.517  55.832  1.00  0.00    -0.316 N 
HETATM   11  O   UNL     1       8.165  28.831  55.177  1.00  0.00    -0.273 OA
HETATM   12  C   UNL     1       5.115  27.762  56.614  1.00  0.00     0.157 C 
BRANCH  10  13
HETATM   13  C   UNL     1       6.668  26.204  55.417  1.00  0.00     0.037 A 
HETATM   14  C   UNL     1       7.616  25.439  56.109  1.00  0.00     0.032 A 
HETATM   15  C   UNL     1       7.890  24.111  55.747  1.00  0.00     0.039 A 
HETATM   16  C   UNL     1       7.219  23.524  54.680  1.00  0.00     0.068 A 
HETATM   17  C   UNL     1       6.324  24.288  53.939  1.00  0.00     0.039 A 
HETATM   18  C   UNL     1       6.046  25.610  54.308  1.00  0.00     0.032 A 
BRANCH  16  19
HETATM   19  O   UNL     1       7.371  22.231  54.267  1.00  0.00    -0.352 OA
BRANCH  19  20
HETATM   20  C   UNL     1       8.471  21.996  53.386  1.00  0.00     0.171 C 
HETATM   21  C   UNL     1       8.408  20.547  52.940  1.00  0.00     0.034 C 
ENDBRANCH  19  20
ENDBRANCH  16  19
ENDBRANCH  10  13
ENDBRANCH   1   7
BRANCH   3  22
HETATM   22  C   UNL     1       3.510  32.538  60.087  1.00  0.00     0.129 C 
BRANCH  22  23
HETATM   23  C   UNL     1       4.720  33.219  60.736  1.00  0.00     0.058 C 
BRANCH  23  24
HETATM   24  C   UNL     1       4.512  33.635  62.176  1.00  0.00    -0.057 A 
HETATM   25  C   UNL     1       3.703  34.734  62.501  1.00  0.00     0.009 A 
HETATM   26  C   UNL     1       3.535  35.123  63.830  1.00  0.00     0.025 A 
HETATM   27  C   UNL     1       4.163  34.398  64.846  1.00  0.00     0.074 A 
HETATM   28  C   UNL     1       4.967  33.298  64.542  1.00  0.00     0.025 A 
HETATM   29  C   UNL     1       5.132  32.915  63.210  1.00  0.00     0.009 A 
BRANCH  27  30
HETATM   30  S   UNL     1       3.994  34.923  66.526  1.00  0.00     0.239 S 
HETATM   31  O   UNL     1       2.683  35.504  66.711  1.00  0.00    -0.206 OA
HETATM   32  O   UNL     1       4.515  33.897  67.397  1.00  0.00    -0.206 OA
BRANCH  30  33
HETATM   33  N   UNL     1       5.079  36.199  66.605  1.00  0.00    -0.225 NA
HETATM   34  H   UNL     1       5.917  35.911  67.112  1.00  0.00     0.136 HD
HETATM   35  H   UNL     1       5.267  36.553  65.667  1.00  0.00     0.136 HD
ENDBRANCH  30  33
ENDBRANCH  27  30
ENDBRANCH  23  24
ENDBRANCH  22  23
ENDBRANCH   3  22
TORSDOF 9
ENDMDL
MODEL 8
REMARK VINA RESULT:      -8.3      4.072     11.260
REMARK  9 active torsions:
REMARK  status: ('A' for Active; 'I' for Inactive)
REMARK    1  A    between atoms: C_2  and  O_3 
REMARK    2  A    between atoms: O_3  and  C_4 
REMARK    3  A    between atoms: C_7  and  N_8 
REMARK    4  A    between atoms: C_12  and  N_13 
REMARK       I    between atoms: N_13  and  C_14 
REMARK       I    between atoms: C_14  and  N_15 
REMARK    5  A    between atoms: N_15  and  C_16 
REMARK    6  A    between atoms: C_16  and  C_17 
REMARK    7  A    between atoms: C_17  and  C_18 
REMARK    8  A    between atoms: C_21  and  S_22 
REMARK    9  A    between atoms: S_22  and  N_23 
ROOT
HETATM    1  N   UNL     1       5.142  29.458  55.156  1.00  0.00    -0.336 N 
HETATM    2  C   UNL     1       4.965  29.875  56.450  1.00  0.00     0.316 C 
HETATM    3  N   UNL     1       5.316  31.189  56.591  1.00  0.00    -0.343 N 
HETATM    4  O   UNL     1       4.575  29.157  57.358  1.00  0.00    -0.248 OA
HETATM    5  H   UNL     1       4.906  30.171  54.478  1.00  0.00     0.164 HD
HETATM    6  H   UNL     1       5.992  31.532  55.923  1.00  0.00     0.164 HD
ENDROOT
BRANCH   1   7
HETATM    7  C   UNL     1       4.853  28.076  54.790  1.00  0.00     0.113 C 
HETATM    8  C   UNL     1       4.667  27.917  53.290  1.00  0.00     0.130 C 
HETATM    9  C   UNL     1       5.198  26.539  52.990  1.00  0.00     0.226 C 
HETATM   10  N   UNL     1       5.993  26.126  54.063  1.00  0.00    -0.316 N 
HETATM   11  O   UNL     1       4.976  25.975  51.929  1.00  0.00    -0.273 OA
HETATM   12  C   UNL     1       5.988  27.109  55.123  1.00  0.00     0.157 C 
BRANCH  10  13
HETATM   13  C   UNL     1       6.881  25.012  54.084  1.00  0.00     0.037 A 
HETATM   14  C   UNL     1       7.722  24.750  55.172  1.00  0.00     0.032 A 
HETATM   15  C   UNL     1       8.518  23.594  55.219  1.00  0.00     0.039 A 
HETATM   16  C   UNL     1       8.485  22.679  54.172  1.00  0.00     0.068 A 
HETATM   17  C   UNL     1       7.707  22.956  53.054  1.00  0.00     0.039 A 
HETATM   18  C   UNL     1       6.909  24.105  53.013  1.00  0.00     0.032 A 
BRANCH  16  19
HETATM   19  O   UNL     1       9.179  21.503  54.130  1.00  0.00    -0.352 OA
BRANCH  19  20
HETATM   20  C   UNL     1       8.413  20.331  54.417  1.00  0.00     0.171 C 
HETATM   21  C   UNL     1       8.023  20.378  55.883  1.00  0.00     0.034 C 
ENDBRANCH  19  20
ENDBRANCH  16  19
ENDBRANCH  10  13
ENDBRANCH   1   7
BRANCH   3  22
HETATM   22  C   UNL     1       5.250  31.837  57.887  1.00  0.00     0.129 C 
BRANCH  22  23
HETATM   23  C   UNL     1       6.580  31.801  58.647  1.00  0.00     0.058 C 
BRANCH  23  24
HETATM   24  C   UNL     1       6.509  32.319  60.067  1.00  0.00    -0.057 A 
HETATM   25  C   UNL     1       7.650  32.348  60.883  1.00  0.00     0.009 A 
HETATM   26  C   UNL     1       7.569  32.807  62.198  1.00  0.00     0.025 A 
HETATM   27  C   UNL     1       6.346  33.260  62.698  1.00  0.00     0.074 A 
HETATM   28  C   UNL     1       5.202  33.244  61.898  1.00  0.00     0.025 A 
HETATM   29  C   UNL     1       5.288  32.782  60.584  1.00  0.00     0.009 A 
BRANCH  27  30
HETATM   30  S   UNL     1       6.233  33.791  64.380  1.00  0.00     0.239 S 
HETATM   31  O   UNL     1       7.277  33.154  65.150  1.00  0.00    -0.206 OA
HETATM   32  O   UNL     1       6.009  35.217  64.412  1.00  0.00    -0.206 OA
BRANCH  30  33
HETATM   33  N   UNL     1       4.796  33.082  64.875  1.00  0.00    -0.225 NA
HETATM   34  H   UNL     1       4.528  32.347  64.219  1.00  0.00     0.136 HD
HETATM   35  H   UNL     1       4.882  32.762  65.840  1.00  0.00     0.136 HD
ENDBRANCH  30  33
ENDBRANCH  27  30
ENDBRANCH  23  24
ENDBRANCH  22  23
ENDBRANCH   3  22
TORSDOF 9
ENDMDL
MODEL 9
REMARK VINA RESULT:      -8.2      5.805      9.518
REMARK  9 active torsions:
REMARK  status: ('A' for Active; 'I' for Inactive)
REMARK    1  A    between atoms: C_2  and  O_3 
REMARK    2  A    between atoms: O_3  and  C_4 
REMARK    3  A    between atoms: C_7  and  N_8 
REMARK    4  A    between atoms: C_12  and  N_13 
REMARK       I    between atoms: N_13  and  C_14 
REMARK       I    between atoms: C_14  and  N_15 
REMARK    5  A    between atoms: N_15  and  C_16 
REMARK    6  A    between atoms: C_16  and  C_17 
REMARK    7  A    between atoms: C_17  and  C_18 
REMARK    8  A    between atoms: C_21  and  S_22 
REMARK    9  A    between atoms: S_22  and  N_23 
ROOT
HETATM    1  N   UNL     1       3.228  29.943  53.190  1.00  0.00    -0.336 N 
HETATM    2  C   UNL     1       3.355  30.978  52.298  1.00  0.00     0.316 C 
HETATM    3  N   UNL     1       2.167  31.229  51.669  1.00  0.00    -0.343 N 
HETATM    4  O   UNL     1       4.400  31.570  52.075  1.00  0.00    -0.248 OA
HETATM    5  H   UNL     1       2.336  29.947  53.669  1.00  0.00     0.164 HD
HETATM    6  H   UNL     1       1.531  30.446  51.614  1.00  0.00     0.164 HD
ENDROOT
BRANCH   1   7
HETATM    7  C   UNL     1       4.386  29.492  53.952  1.00  0.00     0.113 C 
HETATM    8  C   UNL     1       4.044  29.259  55.414  1.00  0.00     0.130 C 
HETATM    9  C   UNL     1       4.929  28.112  55.829  1.00  0.00     0.226 C 
HETATM   10  N   UNL     1       5.389  27.467  54.677  1.00  0.00    -0.316 N 
HETATM   11  O   UNL     1       5.107  27.822  57.003  1.00  0.00    -0.273 OA
HETATM   12  C   UNL     1       4.931  28.142  53.485  1.00  0.00     0.157 C 
BRANCH  10  13
HETATM   13  C   UNL     1       6.036  26.200  54.615  1.00  0.00     0.037 A 
HETATM   14  C   UNL     1       6.940  25.774  55.596  1.00  0.00     0.032 A 
HETATM   15  C   UNL     1       7.493  24.485  55.572  1.00  0.00     0.039 A 
HETATM   16  C   UNL     1       7.150  23.595  54.559  1.00  0.00     0.068 A 
HETATM   17  C   UNL     1       6.308  24.022  53.539  1.00  0.00     0.039 A 
HETATM   18  C   UNL     1       5.751  25.306  53.570  1.00  0.00     0.032 A 
BRANCH  16  19
HETATM   19  O   UNL     1       7.589  22.305  54.460  1.00  0.00    -0.352 OA
BRANCH  19  20
HETATM   20  C   UNL     1       8.391  22.020  53.312  1.00  0.00     0.171 C 
HETATM   21  C   UNL     1       8.136  20.579  52.912  1.00  0.00     0.034 C 
ENDBRANCH  19  20
ENDBRANCH  16  19
ENDBRANCH  10  13
ENDBRANCH   1   7
BRANCH   3  22
HETATM   22  C   UNL     1       2.072  32.256  50.651  1.00  0.00     0.129 C 
BRANCH  22  23
HETATM   23  C   UNL     1       1.625  31.714  49.289  1.00  0.00     0.058 C 
BRANCH  23  24
HETATM   24  C   UNL     1       2.186  30.353  48.937  1.00  0.00    -0.057 A 
HETATM   25  C   UNL     1       3.522  30.205  48.536  1.00  0.00     0.009 A 
HETATM   26  C   UNL     1       4.024  28.949  48.192  1.00  0.00     0.025 A 
HETATM   27  C   UNL     1       3.192  27.829  48.268  1.00  0.00     0.074 A 
HETATM   28  C   UNL     1       1.862  27.957  48.672  1.00  0.00     0.025 A 
HETATM   29  C   UNL     1       1.365  29.217  49.012  1.00  0.00     0.009 A 
BRANCH  27  30
HETATM   30  S   UNL     1       3.813  26.247  47.782  1.00  0.00     0.239 S 
HETATM   31  O   UNL     1       5.129  26.410  47.207  1.00  0.00    -0.206 OA
HETATM   32  O   UNL     1       3.540  25.290  48.828  1.00  0.00    -0.206 OA
BRANCH  30  33
HETATM   33  N   UNL     1       2.798  25.849  46.507  1.00  0.00    -0.225 NA
HETATM   34  H   UNL     1       1.824  25.961  46.792  1.00  0.00     0.136 HD
HETATM   35  H   UNL     1       3.051  26.391  45.681  1.00  0.00     0.136 HD
ENDBRANCH  30  33
ENDBRANCH  27  30
ENDBRANCH  23  24
ENDBRANCH  22  23
ENDBRANCH   3  22
TORSDOF 9
ENDMDL
MODEL 10
REMARK VINA RESULT:      -8.1      2.644      3.348
REMARK  9 active torsions:
REMARK  status: ('A' for Active; 'I' for Inactive)
REMARK    1  A    between atoms: C_2  and  O_3 
REMARK    2  A    between atoms: O_3  and  C_4 
REMARK    3  A    between atoms: C_7  and  N_8 
REMARK    4  A    between atoms: C_12  and  N_13 
REMARK       I    between atoms: N_13  and  C_14 
REMARK       I    between atoms: C_14  and  N_15 
REMARK    5  A    between atoms: N_15  and  C_16 
REMARK    6  A    between atoms: C_16  and  C_17 
REMARK    7  A    between atoms: C_17  and  C_18 
REMARK    8  A    between atoms: C_21  and  S_22 
REMARK    9  A    between atoms: S_22  and  N_23 
ROOT
HETATM    1  N   UNL     1       5.307  29.293  57.102  1.00  0.00    -0.336 N 
HETATM    2  C   UNL     1       5.404  28.958  55.775  1.00  0.00     0.316 C 
HETATM    3  N   UNL     1       5.675  27.627  55.626  1.00  0.00    -0.343 N 
HETATM    4  O   UNL     1       5.293  29.754  54.855  1.00  0.00    -0.248 OA
HETATM    5  H   UNL     1       4.866  28.571  57.657  1.00  0.00     0.164 HD
HETATM    6  H   UNL     1       6.149  27.190  56.405  1.00  0.00     0.164 HD
ENDROOT
BRANCH   1   7
HETATM    7  C   UNL     1       5.048  30.675  57.487  1.00  0.00     0.113 C 
HETATM    8  C   UNL     1       3.613  30.873  57.945  1.00  0.00     0.130 C 
HETATM    9  C   UNL     1       3.700  31.939  59.006  1.00  0.00     0.226 C 
HETATM   10  N   UNL     1       5.027  32.030  59.436  1.00  0.00    -0.316 N 
HETATM   11  O   UNL     1       2.712  32.530  59.415  1.00  0.00    -0.273 OA
HETATM   12  C   UNL     1       5.880  31.138  58.683  1.00  0.00     0.157 C 
BRANCH  10  13
HETATM   13  C   UNL     1       5.502  32.719  60.588  1.00  0.00     0.037 A 
HETATM   14  C   UNL     1       5.000  33.970  60.968  1.00  0.00     0.032 A 
HETATM   15  C   UNL     1       5.407  34.590  62.160  1.00  0.00     0.039 A 
HETATM   16  C   UNL     1       6.330  33.967  62.993  1.00  0.00     0.068 A 
HETATM   17  C   UNL     1       6.890  32.758  62.599  1.00  0.00     0.039 A 
HETATM   18  C   UNL     1       6.476  32.137  61.415  1.00  0.00     0.032 A 
BRANCH  16  19
HETATM   19  O   UNL     1       6.764  34.454  64.194  1.00  0.00    -0.352 OA
BRANCH  19  20
HETATM   20  C   UNL     1       5.737  34.931  65.066  1.00  0.00     0.171 C 
HETATM   21  C   UNL     1       5.072  33.726  65.705  1.00  0.00     0.034 C 
ENDBRANCH  19  20
ENDBRANCH  16  19
ENDBRANCH  10  13
ENDBRANCH   1   7
BRANCH   3  22
HETATM   22  C   UNL     1       5.862  27.053  54.308  1.00  0.00     0.129 C 
BRANCH  22  23
HETATM   23  C   UNL     1       7.288  26.546  54.068  1.00  0.00     0.058 C 
BRANCH  23  24
HETATM   24  C   UNL     1       7.482  25.066  54.318  1.00  0.00    -0.057 A 
HETATM   25  C   UNL     1       7.352  24.529  55.608  1.00  0.00     0.009 A 
HETATM   26  C   UNL     1       7.554  23.166  55.831  1.00  0.00     0.025 A 
HETATM   27  C   UNL     1       7.868  22.329  54.757  1.00  0.00     0.074 A 
HETATM   28  C   UNL     1       7.995  22.846  53.467  1.00  0.00     0.025 A 
HETATM   29  C   UNL     1       7.794  24.210  53.250  1.00  0.00     0.009 A 
BRANCH  27  30
HETATM   30  S   UNL     1       8.176  20.613  55.050  1.00  0.00     0.239 S 
HETATM   31  O   UNL     1       7.242  20.125  56.038  1.00  0.00    -0.206 OA
HETATM   32  O   UNL     1       8.382  19.947  53.786  1.00  0.00    -0.206 OA
BRANCH  30  33
HETATM   33  N   UNL     1       9.672  20.650  55.808  1.00  0.00    -0.225 NA
HETATM   34  H   UNL     1      10.338  20.075  55.289  1.00  0.00     0.136 HD
HETATM   35  H   UNL     1       9.973  21.617  55.934  1.00  0.00     0.136 HD
ENDBRANCH  30  33
ENDBRANCH  27  30
ENDBRANCH  23  24
ENDBRANCH  22  23
ENDBRANCH   3  22
TORSDOF 9
ENDMDL
