MODEL 1
REMARK VINA RESULT:     -10.5      0.000      0.000
REMARK  7 active torsions:
REMARK  status: ('A' for Active; 'I' for Inactive)
REMARK    1  A    between atoms: C_4  and  C_5 
REMARK    2  A    between atoms: C_5  and  C_6 
REMARK    3  A    between atoms: C_8  and  C_9 
REMARK    4  A    between atoms: C_9  and  C_10 
REMARK       I    between atoms: C_10  and  N_11 
REMARK    5  A    between atoms: N_11  and  N_12 
REMARK       I    between atoms: N_12  and  C_13 
REMARK       I    between atoms: C_13  and  N_14 
REMARK    6  A    between atoms: N_14  and  C_15 
REMARK    7  A    between atoms: C_17  and  C_18 
ROOT
HETATM    1  C   UNL     1       4.912  29.320  56.009  1.00  0.00     0.238 C 
HETATM    2  N   UNL     1       4.953  27.945  55.954  1.00  0.00    -0.266 N 
HETATM    3  O   UNL     1       5.744  30.036  55.454  1.00  0.00    -0.272 OA
HETATM    4  H   UNL     1       4.324  27.328  56.469  1.00  0.00     0.190 HD
ENDROOT
BRANCH   1   5
HETATM    5  C   UNL     1       3.743  29.842  56.804  1.00  0.00     0.139 C 
BRANCH   5   6
HETATM    6  C   UNL     1       4.190  30.737  57.958  1.00  0.00     0.185 C 
HETATM    7  N   UNL     1       5.575  30.442  58.317  1.00  0.00    -0.363 N 
HETATM    8  C   UNL     1       6.393  31.457  58.755  1.00  0.00     0.125 C 
HETATM    9  H   UNL     1       5.679  29.549  58.799  1.00  0.00     0.161 HD
HETATM   10  N   UNL     1       6.154  32.725  58.582  1.00  0.00    -0.159 NA
HETATM   11  N   UNL     1       5.001  33.068  57.942  1.00  0.00    -0.244 N 
HETATM   12  C   UNL     1       4.012  32.200  57.545  1.00  0.00     0.261 C 
HETATM   13  H   UNL     1       4.881  34.052  57.725  1.00  0.00     0.192 HD
HETATM   14  O   UNL     1       3.019  32.606  56.941  1.00  0.00    -0.269 OA
BRANCH   8  15
HETATM   15  C   UNL     1       7.672  31.073  59.491  1.00  0.00     0.118 C 
BRANCH  15  16
HETATM   16  C   UNL     1       8.717  30.507  58.561  1.00  0.00    -0.051 A 
HETATM   17  C   UNL     1       8.510  29.291  57.899  1.00  0.00     0.007 A 
HETATM   18  C   UNL     1       9.484  28.781  57.039  1.00  0.00     0.001 A 
HETATM   19  C   UNL     1      10.674  29.479  56.836  1.00  0.00     0.000 A 
HETATM   20  C   UNL     1      10.891  30.687  57.492  1.00  0.00     0.001 A 
HETATM   21  C   UNL     1       9.919  31.199  58.351  1.00  0.00     0.007 A 
ENDBRANCH  15  16
ENDBRANCH   8  15
ENDBRANCH   5   6
ENDBRANCH   1   5
BRANCH   2  22
HETATM   22  N   UNL     1       5.982  27.323  55.233  1.00  0.00    -0.249 N 
HETATM   23  C   UNL     1       6.015  25.935  55.271  1.00  0.00     0.339 C 
HETATM   24  N   UNL     1       7.106  25.436  54.595  1.00  0.00    -0.308 N 
HETATM   25  O   UNL     1       5.126  25.295  55.823  1.00  0.00    -0.245 OA
HETATM   26  H   UNL     1       7.640  26.114  54.070  1.00  0.00     0.170 HD
HETATM   27  H   UNL     1       6.853  27.846  55.197  1.00  0.00     0.192 HD
BRANCH  24  28
HETATM   28  C   UNL     1       7.474  24.086  54.437  1.00  0.00     0.037 A 
HETATM   29  C   UNL     1       7.718  23.214  55.501  1.00  0.00     0.045 A 
HETATM   30  C   UNL     1       8.074  21.873  55.271  1.00  0.00     0.050 A 
HETATM   31  C   UNL     1       8.200  21.418  53.951  1.00  0.00     0.016 A 
HETATM   32  C   UNL     1       7.964  22.282  52.884  1.00  0.00     0.003 A 
HETATM   33  C   UNL     1       7.604  23.607  53.127  1.00  0.00     0.029 A 
BRANCH  30  34
HETATM   34  C   UNL     1       8.355  20.942  56.424  1.00  0.00     0.417 C 
HETATM   35  F   UNL     1       7.466  19.916  56.532  1.00  0.00    -0.166 F 
HETATM   36  F   UNL     1       9.584  20.356  56.339  1.00  0.00    -0.166 F 
HETATM   37  F   UNL     1       8.335  21.585  57.624  1.00  0.00    -0.166 F 
ENDBRANCH  30  34
ENDBRANCH  24  28
ENDBRANCH   2  22
TORSDOF 7
ENDMDL
MODEL 2
REMARK VINA RESULT:     -10.5      5.359     10.099
REMARK  7 active torsions:
REMARK  status: ('A' for Active; 'I' for Inactive)
REMARK    1  A    between atoms: C_4  and  C_5 
REMARK    2  A    between atoms: C_5  and  C_6 
REMARK    3  A    between atoms: C_8  and  C_9 
REMARK    4  A    between atoms: C_9  and  C_10 
REMARK       I    between atoms: C_10  and  N_11 
REMARK    5  A    between atoms: N_11  and  N_12 
REMARK       I    between atoms: N_12  and  C_13 
REMARK       I    between atoms: C_13  and  N_14 
REMARK    6  A    between atoms: N_14  and  C_15 
REMARK    7  A    between atoms: C_17  and  C_18 
ROOT
HETATM    1  C   UNL     1       7.298  28.929  57.021  1.00  0.00     0.238 C 
HETATM    2  N   UNL     1       8.209  29.599  57.806  1.00  0.00    -0.266 N 
HETATM    3  O   UNL     1       6.295  28.385  57.480  1.00  0.00    -0.272 OA
HETATM    4  H   UNL     1       9.088  29.990  57.463  1.00  0.00     0.190 HD
ENDROOT
BRANCH   1   5
HETATM    5  C   UNL     1       7.657  28.945  55.558  1.00  0.00     0.139 C 
BRANCH   5   6
HETATM    6  C   UNL     1       7.282  27.639  54.862  1.00  0.00     0.185 C 
HETATM    7  N   UNL     1       7.587  26.502  55.727  1.00  0.00    -0.363 N 
HETATM    8  C   UNL     1       6.779  25.389  55.695  1.00  0.00     0.125 C 
HETATM    9  H   UNL     1       8.588  26.321  55.809  1.00  0.00     0.161 HD
HETATM   10  N   UNL     1       5.576  25.364  55.199  1.00  0.00    -0.159 NA
HETATM   11  N   UNL     1       5.094  26.515  54.655  1.00  0.00    -0.244 N 
HETATM   12  C   UNL     1       5.798  27.685  54.490  1.00  0.00     0.261 C 
HETATM   13  H   UNL     1       4.121  26.507  54.368  1.00  0.00     0.192 HD
HETATM   14  O   UNL     1       5.260  28.686  54.017  1.00  0.00    -0.269 OA
BRANCH   8  15
HETATM   15  C   UNL     1       7.328  24.094  56.283  1.00  0.00     0.118 C 
BRANCH  15  16
HETATM   16  C   UNL     1       7.575  23.046  55.224  1.00  0.00    -0.051 A 
HETATM   17  C   UNL     1       7.730  23.403  53.879  1.00  0.00     0.007 A 
HETATM   18  C   UNL     1       7.961  22.424  52.911  1.00  0.00     0.001 A 
HETATM   19  C   UNL     1       8.037  21.081  53.278  1.00  0.00     0.000 A 
HETATM   20  C   UNL     1       7.881  20.716  54.612  1.00  0.00     0.001 A 
HETATM   21  C   UNL     1       7.650  21.692  55.581  1.00  0.00     0.007 A 
ENDBRANCH  15  16
ENDBRANCH   8  15
ENDBRANCH   5   6
ENDBRANCH   1   5
BRANCH   2  22
HETATM   22  N   UNL     1       7.992  29.676  59.189  1.00  0.00    -0.249 N 
HETATM   23  C   UNL     1       7.720  30.936  59.705  1.00  0.00     0.339 C 
HETATM   24  N   UNL     1       7.600  30.906  61.076  1.00  0.00    -0.308 N 
HETATM   25  O   UNL     1       7.578  31.906  58.967  1.00  0.00    -0.245 OA
HETATM   26  H   UNL     1       7.592  29.985  61.492  1.00  0.00     0.170 HD
HETATM   27  H   UNL     1       8.526  29.010  59.740  1.00  0.00     0.192 HD
BRANCH  24  28
HETATM   28  C   UNL     1       7.344  31.989  61.940  1.00  0.00     0.037 A 
HETATM   29  C   UNL     1       6.449  33.022  61.650  1.00  0.00     0.045 A 
HETATM   30  C   UNL     1       6.235  34.071  62.563  1.00  0.00     0.050 A 
HETATM   31  C   UNL     1       6.948  34.080  63.770  1.00  0.00     0.016 A 
HETATM   32  C   UNL     1       7.847  33.057  64.064  1.00  0.00     0.003 A 
HETATM   33  C   UNL     1       8.044  32.019  63.152  1.00  0.00     0.029 A 
BRANCH  30  34
HETATM   34  C   UNL     1       5.281  35.193  62.238  1.00  0.00     0.417 C 
HETATM   35  F   UNL     1       4.475  34.937  61.170  1.00  0.00    -0.166 F 
HETATM   36  F   UNL     1       4.441  35.485  63.272  1.00  0.00    -0.166 F 
HETATM   37  F   UNL     1       5.930  36.355  61.950  1.00  0.00    -0.166 F 
ENDBRANCH  30  34
ENDBRANCH  24  28
ENDBRANCH   2  22
TORSDOF 7
ENDMDL
MODEL 3
REMARK VINA RESULT:     -10.4      4.913      9.899
REMARK  7 active torsions:
REMARK  status: ('A' for Active; 'I' for Inactive)
REMARK    1  A    between atoms: C_4  and  C_5 
REMARK    2  A    between atoms: C_5  and  C_6 
REMARK    3  A    between atoms: C_8  and  C_9 
REMARK    4  A    between atoms: C_9  and  C_10 
REMARK       I    between atoms: C_10  and  N_11 
REMARK    5  A    between atoms: N_11  and  N_12 
REMARK       I    between atoms: N_12  and  C_13 
REMARK       I    between atoms: C_13  and  N_14 
REMARK    6  A    between atoms: N_14  and  C_15 
REMARK    7  A    between atoms: C_17  and  C_18 
ROOT
HETATM    1  C   UNL     1       6.851  29.047  56.880  1.00  0.00     0.238 C 
HETATM    2  N   UNL     1       6.080  30.185  56.959  1.00  0.00    -0.266 N 
HETATM    3  O   UNL     1       7.013  28.283  57.830  1.00  0.00    -0.272 OA
HETATM    4  H   UNL     1       5.993  30.876  56.213  1.00  0.00     0.190 HD
ENDROOT
BRANCH   1   5
HETATM    5  C   UNL     1       7.456  28.840  55.515  1.00  0.00     0.139 C 
BRANCH   5   6
HETATM    6  C   UNL     1       7.057  27.496  54.911  1.00  0.00     0.185 C 
HETATM    7  N   UNL     1       7.587  26.402  55.722  1.00  0.00    -0.363 N 
HETATM    8  C   UNL     1       6.864  25.237  55.845  1.00  0.00     0.125 C 
HETATM    9  H   UNL     1       8.596  26.290  55.629  1.00  0.00     0.161 HD
HETATM   10  N   UNL     1       5.598  25.121  55.568  1.00  0.00    -0.159 NA
HETATM   11  N   UNL     1       4.949  26.225  55.105  1.00  0.00    -0.244 N 
HETATM   12  C   UNL     1       5.531  27.435  54.806  1.00  0.00     0.261 C 
HETATM   13  H   UNL     1       3.944  26.146  54.993  1.00  0.00     0.192 HD
HETATM   14  O   UNL     1       4.851  28.387  54.423  1.00  0.00    -0.269 OA
BRANCH   8  15
HETATM   15  C   UNL     1       7.596  23.995  56.341  1.00  0.00     0.118 C 
BRANCH  15  16
HETATM   16  C   UNL     1       7.725  22.942  55.268  1.00  0.00    -0.051 A 
HETATM   17  C   UNL     1       7.852  23.298  53.920  1.00  0.00     0.007 A 
HETATM   18  C   UNL     1       7.974  22.313  52.938  1.00  0.00     0.001 A 
HETATM   19  C   UNL     1       7.967  20.965  53.294  1.00  0.00     0.000 A 
HETATM   20  C   UNL     1       7.837  20.601  54.631  1.00  0.00     0.001 A 
HETATM   21  C   UNL     1       7.716  21.583  55.614  1.00  0.00     0.007 A 
ENDBRANCH  15  16
ENDBRANCH   8  15
ENDBRANCH   5   6
ENDBRANCH   1   5
BRANCH   2  22
HETATM   22  N   UNL     1       5.443  30.494  58.169  1.00  0.00    -0.249 N 
HETATM   23  C   UNL     1       5.925  31.597  58.861  1.00  0.00     0.339 C 
HETATM   24  N   UNL     1       5.280  31.761  60.066  1.00  0.00    -0.308 N 
HETATM   25  O   UNL     1       6.794  32.317  58.379  1.00  0.00    -0.245 OA
HETATM   26  H   UNL     1       4.483  31.160  60.218  1.00  0.00     0.170 HD
HETATM   27  H   UNL     1       5.096  29.689  58.684  1.00  0.00     0.192 HD
BRANCH  24  28
HETATM   28  C   UNL     1       5.513  32.755  61.036  1.00  0.00     0.037 A 
HETATM   29  C   UNL     1       6.296  32.563  62.178  1.00  0.00     0.045 A 
HETATM   30  C   UNL     1       6.494  33.603  63.103  1.00  0.00     0.050 A 
HETATM   31  C   UNL     1       5.879  34.843  62.877  1.00  0.00     0.016 A 
HETATM   32  C   UNL     1       5.092  35.041  61.745  1.00  0.00     0.003 A 
HETATM   33  C   UNL     1       4.910  34.002  60.832  1.00  0.00     0.029 A 
BRANCH  30  34
HETATM   34  C   UNL     1       7.324  33.384  64.343  1.00  0.00     0.417 C 
HETATM   35  F   UNL     1       8.085  34.459  64.692  1.00  0.00    -0.166 F 
HETATM   36  F   UNL     1       6.566  33.098  65.439  1.00  0.00    -0.166 F 
HETATM   37  F   UNL     1       8.188  32.340  64.208  1.00  0.00    -0.166 F 
ENDBRANCH  30  34
ENDBRANCH  24  28
ENDBRANCH   2  22
TORSDOF 7
ENDMDL
MODEL 4
REMARK VINA RESULT:     -10.1      1.611      2.699
REMARK  7 active torsions:
REMARK  status: ('A' for Active; 'I' for Inactive)
REMARK    1  A    between atoms: C_4  and  C_5 
REMARK    2  A    between atoms: C_5  and  C_6 
REMARK    3  A    between atoms: C_8  and  C_9 
REMARK    4  A    between atoms: C_9  and  C_10 
REMARK       I    between atoms: C_10  and  N_11 
REMARK    5  A    between atoms: N_11  and  N_12 
REMARK       I    between atoms: N_12  and  C_13 
REMARK       I    between atoms: C_13  and  N_14 
REMARK    6  A    between atoms: N_14  and  C_15 
REMARK    7  A    between atoms: C_17  and  C_18 
ROOT
HETATM    1  C   UNL     1       4.937  29.256  56.269  1.00  0.00     0.238 C 
HETATM    2  N   UNL     1       5.153  27.905  56.423  1.00  0.00    -0.266 N 
HETATM    3  O   UNL     1       5.663  29.975  55.584  1.00  0.00    -0.272 OA
HETATM    4  H   UNL     1       4.615  27.302  57.047  1.00  0.00     0.190 HD
ENDROOT
BRANCH   1   5
HETATM    5  C   UNL     1       3.722  29.746  57.013  1.00  0.00     0.139 C 
BRANCH   5   6
HETATM    6  C   UNL     1       4.064  30.863  57.995  1.00  0.00     0.185 C 
HETATM    7  N   UNL     1       5.464  30.765  58.402  1.00  0.00    -0.363 N 
HETATM    8  C   UNL     1       6.179  31.912  58.659  1.00  0.00     0.125 C 
HETATM    9  H   UNL     1       5.641  29.982  59.032  1.00  0.00     0.161 HD
HETATM   10  N   UNL     1       5.828  33.103  58.269  1.00  0.00    -0.159 NA
HETATM   11  N   UNL     1       4.660  33.223  57.578  1.00  0.00    -0.244 N 
HETATM   12  C   UNL     1       3.761  32.211  57.335  1.00  0.00     0.261 C 
HETATM   13  H   UNL     1       4.454  34.139  57.193  1.00  0.00     0.192 HD
HETATM   14  O   UNL     1       2.747  32.413  56.668  1.00  0.00    -0.269 OA
BRANCH   8  15
HETATM   15  C   UNL     1       7.473  31.781  59.453  1.00  0.00     0.118 C 
BRANCH  15  16
HETATM   16  C   UNL     1       7.292  32.152  60.905  1.00  0.00    -0.051 A 
HETATM   17  C   UNL     1       6.047  32.569  61.392  1.00  0.00     0.007 A 
HETATM   18  C   UNL     1       5.894  32.906  62.738  1.00  0.00     0.001 A 
HETATM   19  C   UNL     1       6.981  32.830  63.608  1.00  0.00     0.000 A 
HETATM   20  C   UNL     1       8.223  32.419  63.132  1.00  0.00     0.001 A 
HETATM   21  C   UNL     1       8.379  32.082  61.788  1.00  0.00     0.007 A 
ENDBRANCH  15  16
ENDBRANCH   8  15
ENDBRANCH   5   6
ENDBRANCH   1   5
BRANCH   2  22
HETATM   22  N   UNL     1       6.243  27.311  55.772  1.00  0.00    -0.249 N 
HETATM   23  C   UNL     1       6.190  25.934  55.602  1.00  0.00     0.339 C 
HETATM   24  N   UNL     1       7.341  25.450  55.023  1.00  0.00    -0.308 N 
HETATM   25  O   UNL     1       5.191  25.295  55.917  1.00  0.00    -0.245 OA
HETATM   26  H   UNL     1       7.988  26.150  54.689  1.00  0.00     0.170 HD
HETATM   27  H   UNL     1       7.138  27.763  55.942  1.00  0.00     0.192 HD
BRANCH  24  28
HETATM   28  C   UNL     1       7.650  24.111  54.716  1.00  0.00     0.037 A 
HETATM   29  C   UNL     1       7.914  23.131  55.677  1.00  0.00     0.045 A 
HETATM   30  C   UNL     1       8.208  21.808  55.300  1.00  0.00     0.050 A 
HETATM   31  C   UNL     1       8.252  21.481  53.937  1.00  0.00     0.016 A 
HETATM   32  C   UNL     1       7.997  22.453  52.973  1.00  0.00     0.003 A 
HETATM   33  C   UNL     1       7.699  23.760  53.361  1.00  0.00     0.029 A 
BRANCH  30  34
HETATM   34  C   UNL     1       8.510  20.759  56.341  1.00  0.00     0.417 C 
HETATM   35  F   UNL     1       7.723  19.651  56.249  1.00  0.00    -0.166 F 
HETATM   36  F   UNL     1       9.794  20.305  56.273  1.00  0.00    -0.166 F 
HETATM   37  F   UNL     1       8.351  21.229  57.609  1.00  0.00    -0.166 F 
ENDBRANCH  30  34
ENDBRANCH  24  28
ENDBRANCH   2  22
TORSDOF 7
ENDMDL
MODEL 5
REMARK VINA RESULT:     -10.1      2.960      4.162
REMARK  7 active torsions:
REMARK  status: ('A' for Active; 'I' for Inactive)
REMARK    1  A    between atoms: C_4  and  C_5 
REMARK    2  A    between atoms: C_5  and  C_6 
REMARK    3  A    between atoms: C_8  and  C_9 
REMARK    4  A    between atoms: C_9  and  C_10 
REMARK       I    between atoms: C_10  and  N_11 
REMARK    5  A    between atoms: N_11  and  N_12 
REMARK       I    between atoms: N_12  and  C_13 
REMARK       I    between atoms: C_13  and  N_14 
REMARK    6  A    between atoms: N_14  and  C_15 
REMARK    7  A    between atoms: C_17  and  C_18 
ROOT
HETATM    1  C   UNL     1       4.945  30.362  57.604  1.00  0.00     0.238 C 
HETATM    2  N   UNL     1       4.896  28.986  57.574  1.00  0.00    -0.266 N 
HETATM    3  O   UNL     1       5.961  31.000  57.335  1.00  0.00    -0.272 OA
HETATM    4  H   UNL     1       4.091  28.431  57.868  1.00  0.00     0.190 HD
ENDROOT
BRANCH   1   5
HETATM    5  C   UNL     1       3.629  30.989  57.987  1.00  0.00     0.139 C 
BRANCH   5   6
HETATM    6  C   UNL     1       3.739  31.815  59.266  1.00  0.00     0.185 C 
HETATM    7  N   UNL     1       5.023  31.565  59.917  1.00  0.00    -0.363 N 
HETATM    8  C   UNL     1       5.650  32.586  60.595  1.00  0.00     0.125 C 
HETATM    9  H   UNL     1       5.076  30.645  60.354  1.00  0.00     0.161 HD
HETATM   10  N   UNL     1       5.370  33.848  60.452  1.00  0.00    -0.159 NA
HETATM   11  N   UNL     1       4.373  34.180  59.585  1.00  0.00    -0.244 N 
HETATM   12  C   UNL     1       3.561  33.294  58.916  1.00  0.00     0.261 C 
HETATM   13  H   UNL     1       4.238  35.169  59.408  1.00  0.00     0.192 HD
HETATM   14  O   UNL     1       2.707  33.693  58.125  1.00  0.00    -0.269 OA
BRANCH   8  15
HETATM   15  C   UNL     1       6.750  32.213  61.583  1.00  0.00     0.118 C 
BRANCH  15  16
HETATM   16  C   UNL     1       6.490  32.767  62.962  1.00  0.00    -0.051 A 
HETATM   17  C   UNL     1       5.187  32.862  63.467  1.00  0.00     0.007 A 
HETATM   18  C   UNL     1       4.962  33.374  64.746  1.00  0.00     0.001 A 
HETATM   19  C   UNL     1       6.034  33.797  65.531  1.00  0.00     0.000 A 
HETATM   20  C   UNL     1       7.333  33.709  65.036  1.00  0.00     0.001 A 
HETATM   21  C   UNL     1       7.561  33.198  63.759  1.00  0.00     0.007 A 
ENDBRANCH  15  16
ENDBRANCH   8  15
ENDBRANCH   5   6
ENDBRANCH   1   5
BRANCH   2  22
HETATM   22  N   UNL     1       6.048  28.271  57.217  1.00  0.00    -0.249 N 
HETATM   23  C   UNL     1       5.947  27.447  56.105  1.00  0.00     0.339 C 
HETATM   24  N   UNL     1       7.109  26.738  55.894  1.00  0.00    -0.308 N 
HETATM   25  O   UNL     1       4.931  27.431  55.417  1.00  0.00    -0.245 OA
HETATM   26  H   UNL     1       7.892  27.003  56.473  1.00  0.00     0.170 HD
HETATM   27  H   UNL     1       6.634  27.992  58.000  1.00  0.00     0.192 HD
BRANCH  24  28
HETATM   28  C   UNL     1       7.368  25.798  54.877  1.00  0.00     0.037 A 
HETATM   29  C   UNL     1       7.522  24.428  55.103  1.00  0.00     0.045 A 
HETATM   30  C   UNL     1       7.772  23.542  54.039  1.00  0.00     0.050 A 
HETATM   31  C   UNL     1       7.883  24.054  52.738  1.00  0.00     0.016 A 
HETATM   32  C   UNL     1       7.736  25.419  52.505  1.00  0.00     0.003 A 
HETATM   33  C   UNL     1       7.481  26.285  53.569  1.00  0.00     0.029 A 
BRANCH  30  34
HETATM   34  C   UNL     1       7.956  22.066  54.291  1.00  0.00     0.417 C 
HETATM   35  F   UNL     1       7.297  21.610  55.392  1.00  0.00    -0.166 F 
HETATM   36  F   UNL     1       7.518  21.298  53.254  1.00  0.00    -0.166 F 
HETATM   37  F   UNL     1       9.265  21.733  54.471  1.00  0.00    -0.166 F 
ENDBRANCH  30  34
ENDBRANCH  24  28
ENDBRANCH   2  22
TORSDOF 7
ENDMDL
MODEL 6
REMARK VINA RESULT:      -9.9      3.755      5.421
REMARK  7 active torsions:
REMARK  status: ('A' for Active; 'I' for Inactive)
REMARK    1  A    between atoms: C_4  and  C_5 
REMARK    2  A    between atoms: C_5  and  C_6 
REMARK    3  A    between atoms: C_8  and  C_9 
REMARK    4  A    between atoms: C_9  and  C_10 
REMARK       I    between atoms: C_10  and  N_11 
REMARK    5  A    between atoms: N_11  and  N_12 
REMARK       I    between atoms: N_12  and  C_13 
REMARK       I    between atoms: C_13  and  N_14 
REMARK    6  A    between atoms: N_14  and  C_15 
REMARK    7  A    between atoms: C_17  and  C_18 
ROOT
HETATM    1  C   UNL     1       7.528  30.797  58.590  1.00  0.00     0.238 C 
HETATM    2  N   UNL     1       7.878  29.468  58.668  1.00  0.00    -0.266 N 
HETATM    3  O   UNL     1       6.495  31.185  58.047  1.00  0.00    -0.272 OA
HETATM    4  H   UNL     1       8.765  29.125  59.041  1.00  0.00     0.190 HD
ENDROOT
BRANCH   1   5
HETATM    5  C   UNL     1       8.533  31.709  59.245  1.00  0.00     0.139 C 
BRANCH   5   6
HETATM    6  C   UNL     1       8.051  32.208  60.606  1.00  0.00     0.185 C 
HETATM    7  N   UNL     1       6.680  32.702  60.504  1.00  0.00    -0.363 N 
HETATM    8  C   UNL     1       5.821  32.541  61.567  1.00  0.00     0.125 C 
HETATM    9  H   UNL     1       6.613  33.592  60.011  1.00  0.00     0.161 HD
HETATM   10  N   UNL     1       6.008  31.706  62.548  1.00  0.00    -0.159 NA
HETATM   11  N   UNL     1       7.145  30.956  62.531  1.00  0.00    -0.244 N 
HETATM   12  C   UNL     1       8.169  31.067  61.620  1.00  0.00     0.261 C 
HETATM   13  H   UNL     1       7.225  30.240  63.245  1.00  0.00     0.192 HD
HETATM   14  O   UNL     1       9.143  30.317  61.668  1.00  0.00    -0.269 OA
BRANCH   8  15
HETATM   15  C   UNL     1       4.560  33.397  61.599  1.00  0.00     0.118 C 
BRANCH  15  16
HETATM   16  C   UNL     1       4.654  34.513  62.611  1.00  0.00    -0.051 A 
HETATM   17  C   UNL     1       3.751  34.595  63.679  1.00  0.00     0.007 A 
HETATM   18  C   UNL     1       3.852  35.631  64.610  1.00  0.00     0.001 A 
HETATM   19  C   UNL     1       4.852  36.593  64.481  1.00  0.00     0.000 A 
HETATM   20  C   UNL     1       5.753  36.521  63.422  1.00  0.00     0.001 A 
HETATM   21  C   UNL     1       5.655  35.488  62.491  1.00  0.00     0.007 A 
ENDBRANCH  15  16
ENDBRANCH   8  15
ENDBRANCH   5   6
ENDBRANCH   1   5
BRANCH   2  22
HETATM   22  N   UNL     1       7.024  28.505  58.111  1.00  0.00    -0.249 N 
HETATM   23  C   UNL     1       7.628  27.474  57.405  1.00  0.00     0.339 C 
HETATM   24  N   UNL     1       6.696  26.633  56.840  1.00  0.00    -0.308 N 
HETATM   25  O   UNL     1       8.850  27.364  57.363  1.00  0.00    -0.245 OA
HETATM   26  H   UNL     1       5.738  26.796  57.117  1.00  0.00     0.170 HD
HETATM   27  H   UNL     1       6.122  28.862  57.809  1.00  0.00     0.192 HD
BRANCH  24  28
HETATM   28  C   UNL     1       6.936  25.496  56.044  1.00  0.00     0.037 A 
HETATM   29  C   UNL     1       7.404  24.279  56.545  1.00  0.00     0.045 A 
HETATM   30  C   UNL     1       7.614  23.178  55.694  1.00  0.00     0.050 A 
HETATM   31  C   UNL     1       7.364  23.321  54.322  1.00  0.00     0.016 A 
HETATM   32  C   UNL     1       6.904  24.533  53.813  1.00  0.00     0.003 A 
HETATM   33  C   UNL     1       6.692  25.613  54.670  1.00  0.00     0.029 A 
BRANCH  30  34
HETATM   34  C   UNL     1       8.137  21.872  56.237  1.00  0.00     0.417 C 
HETATM   35  F   UNL     1       8.360  21.886  57.581  1.00  0.00    -0.166 F 
HETATM   36  F   UNL     1       7.285  20.832  56.015  1.00  0.00    -0.166 F 
HETATM   37  F   UNL     1       9.319  21.511  55.664  1.00  0.00    -0.166 F 
ENDBRANCH  30  34
ENDBRANCH  24  28
ENDBRANCH   2  22
TORSDOF 7
ENDMDL
MODEL 7
REMARK VINA RESULT:      -9.9      2.769      3.599
REMARK  7 active torsions:
REMARK  status: ('A' for Active; 'I' for Inactive)
REMARK    1  A    between atoms: C_4  and  C_5 
REMARK    2  A    between atoms: C_5  and  C_6 
REMARK    3  A    between atoms: C_8  and  C_9 
REMARK    4  A    between atoms: C_9  and  C_10 
REMARK       I    between atoms: C_10  and  N_11 
REMARK    5  A    between atoms: N_11  and  N_12 
REMARK       I    between atoms: N_12  and  C_13 
REMARK       I    between atoms: C_13  and  N_14 
REMARK    6  A    between atoms: N_14  and  C_15 
REMARK    7  A    between atoms: C_17  and  C_18 
ROOT
HETATM    1  C   UNL     1       4.853  30.879  58.156  1.00  0.00     0.238 C 
HETATM    2  N   UNL     1       4.903  29.513  57.989  1.00  0.00    -0.266 N 
HETATM    3  O   UNL     1       5.843  31.601  58.055  1.00  0.00    -0.272 OA
HETATM    4  H   UNL     1       4.115  28.883  58.145  1.00  0.00     0.190 HD
ENDROOT
BRANCH   1   5
HETATM    5  C   UNL     1       3.466  31.383  58.462  1.00  0.00     0.139 C 
BRANCH   5   6
HETATM    6  C   UNL     1       3.427  32.203  59.750  1.00  0.00     0.185 C 
HETATM    7  N   UNL     1       4.618  31.938  60.552  1.00  0.00    -0.363 N 
HETATM    8  C   UNL     1       5.167  32.949  61.307  1.00  0.00     0.125 C 
HETATM    9  H   UNL     1       4.608  31.015  60.988  1.00  0.00     0.161 HD
HETATM   10  N   UNL     1       4.919  34.215  61.137  1.00  0.00    -0.159 NA
HETATM   11  N   UNL     1       4.039  34.560  60.156  1.00  0.00    -0.244 N 
HETATM   12  C   UNL     1       3.307  33.686  59.388  1.00  0.00     0.261 C 
HETATM   13  H   UNL     1       3.937  35.552  59.968  1.00  0.00     0.192 HD
HETATM   14  O   UNL     1       2.560  34.096  58.500  1.00  0.00    -0.269 OA
BRANCH   8  15
HETATM   15  C   UNL     1       6.134  32.562  62.420  1.00  0.00     0.118 C 
BRANCH  15  16
HETATM   16  C   UNL     1       7.441  32.033  61.881  1.00  0.00    -0.051 A 
HETATM   17  C   UNL     1       8.086  30.949  62.490  1.00  0.00     0.007 A 
HETATM   18  C   UNL     1       9.292  30.468  61.978  1.00  0.00     0.001 A 
HETATM   19  C   UNL     1       9.866  31.066  60.857  1.00  0.00     0.000 A 
HETATM   20  C   UNL     1       9.234  32.146  60.247  1.00  0.00     0.001 A 
HETATM   21  C   UNL     1       8.028  32.628  60.756  1.00  0.00     0.007 A 
ENDBRANCH  15  16
ENDBRANCH   8  15
ENDBRANCH   5   6
ENDBRANCH   1   5
BRANCH   2  22
HETATM   22  N   UNL     1       6.131  28.909  57.684  1.00  0.00    -0.249 N 
HETATM   23  C   UNL     1       6.075  27.675  57.051  1.00  0.00     0.339 C 
HETATM   24  N   UNL     1       7.331  27.141  56.870  1.00  0.00    -0.308 N 
HETATM   25  O   UNL     1       5.005  27.195  56.690  1.00  0.00    -0.245 OA
HETATM   26  H   UNL     1       8.101  27.756  57.092  1.00  0.00     0.170 HD
HETATM   27  H   UNL     1       6.875  29.100  58.349  1.00  0.00     0.192 HD
BRANCH  24  28
HETATM   28  C   UNL     1       7.662  25.904  56.283  1.00  0.00     0.037 A 
HETATM   29  C   UNL     1       7.471  25.607  54.931  1.00  0.00     0.045 A 
HETATM   30  C   UNL     1       7.832  24.353  54.407  1.00  0.00     0.050 A 
HETATM   31  C   UNL     1       8.376  23.387  55.265  1.00  0.00     0.016 A 
HETATM   32  C   UNL     1       8.564  23.672  56.616  1.00  0.00     0.003 A 
HETATM   33  C   UNL     1       8.208  24.924  57.120  1.00  0.00     0.029 A 
BRANCH  30  34
HETATM   34  C   UNL     1       7.606  24.031  52.951  1.00  0.00     0.417 C 
HETATM   35  F   UNL     1       6.295  24.049  52.581  1.00  0.00    -0.166 F 
HETATM   36  F   UNL     1       8.236  24.906  52.116  1.00  0.00    -0.166 F 
HETATM   37  F   UNL     1       8.075  22.797  52.616  1.00  0.00    -0.166 F 
ENDBRANCH  30  34
ENDBRANCH  24  28
ENDBRANCH   2  22
TORSDOF 7
ENDMDL
MODEL 8
REMARK VINA RESULT:      -9.8      4.256      5.906
REMARK  7 active torsions:
REMARK  status: ('A' for Active; 'I' for Inactive)
REMARK    1  A    between atoms: C_4  and  C_5 
REMARK    2  A    between atoms: C_5  and  C_6 
REMARK    3  A    between atoms: C_8  and  C_9 
REMARK    4  A    between atoms: C_9  and  C_10 
REMARK       I    between atoms: C_10  and  N_11 
REMARK    5  A    between atoms: N_11  and  N_12 
REMARK       I    between atoms: N_12  and  C_13 
REMARK       I    between atoms: C_13  and  N_14 
REMARK    6  A    between atoms: N_14  and  C_15 
REMARK    7  A    between atoms: C_17  and  C_18 
ROOT
HETATM    1  C   UNL     1       7.506  30.951  58.594  1.00  0.00     0.238 C 
HETATM    2  N   UNL     1       7.903  29.634  58.660  1.00  0.00    -0.266 N 
HETATM    3  O   UNL     1       6.465  31.308  58.046  1.00  0.00    -0.272 OA
HETATM    4  H   UNL     1       8.797  29.320  59.039  1.00  0.00     0.190 HD
ENDROOT
BRANCH   1   5
HETATM    5  C   UNL     1       8.471  31.891  59.270  1.00  0.00     0.139 C 
BRANCH   5   6
HETATM    6  C   UNL     1       7.974  32.330  60.645  1.00  0.00     0.185 C 
HETATM    7  N   UNL     1       6.615  32.857  60.546  1.00  0.00    -0.363 N 
HETATM    8  C   UNL     1       5.734  32.661  61.584  1.00  0.00     0.125 C 
HETATM    9  H   UNL     1       6.576  33.773  60.098  1.00  0.00     0.161 HD
HETATM   10  N   UNL     1       5.885  31.774  62.523  1.00  0.00    -0.159 NA
HETATM   11  N   UNL     1       7.006  31.001  62.487  1.00  0.00    -0.244 N 
HETATM   12  C   UNL     1       8.049  31.136  61.601  1.00  0.00     0.261 C 
HETATM   13  H   UNL     1       7.058  30.247  63.164  1.00  0.00     0.192 HD
HETATM   14  O   UNL     1       9.006  30.364  61.628  1.00  0.00    -0.269 OA
BRANCH   8  15
HETATM   15  C   UNL     1       4.490  33.542  61.637  1.00  0.00     0.118 C 
BRANCH  15  16
HETATM   16  C   UNL     1       4.607  34.629  62.677  1.00  0.00    -0.051 A 
HETATM   17  C   UNL     1       3.712  34.698  63.752  1.00  0.00     0.007 A 
HETATM   18  C   UNL     1       3.833  35.708  64.708  1.00  0.00     0.001 A 
HETATM   19  C   UNL     1       4.847  36.658  64.598  1.00  0.00     0.000 A 
HETATM   20  C   UNL     1       5.740  36.600  63.531  1.00  0.00     0.001 A 
HETATM   21  C   UNL     1       5.621  35.593  62.575  1.00  0.00     0.007 A 
ENDBRANCH  15  16
ENDBRANCH   8  15
ENDBRANCH   5   6
ENDBRANCH   1   5
BRANCH   2  22
HETATM   22  N   UNL     1       7.090  28.648  58.085  1.00  0.00    -0.249 N 
HETATM   23  C   UNL     1       7.740  27.615  57.424  1.00  0.00     0.339 C 
HETATM   24  N   UNL     1       6.847  26.749  56.833  1.00  0.00    -0.308 N 
HETATM   25  O   UNL     1       8.964  27.526  57.437  1.00  0.00    -0.245 OA
HETATM   26  H   UNL     1       5.876  26.901  57.066  1.00  0.00     0.170 HD
HETATM   27  H   UNL     1       6.195  28.984  57.737  1.00  0.00     0.192 HD
BRANCH  24  28
HETATM   28  C   UNL     1       7.139  25.603  56.069  1.00  0.00     0.037 A 
HETATM   29  C   UNL     1       7.237  25.599  54.675  1.00  0.00     0.045 A 
HETATM   30  C   UNL     1       7.541  24.418  53.974  1.00  0.00     0.050 A 
HETATM   31  C   UNL     1       7.730  23.229  54.692  1.00  0.00     0.016 A 
HETATM   32  C   UNL     1       7.629  23.223  56.082  1.00  0.00     0.003 A 
HETATM   33  C   UNL     1       7.334  24.403  56.764  1.00  0.00     0.029 A 
BRANCH  30  34
HETATM   34  C   UNL     1       7.626  24.416  52.468  1.00  0.00     0.417 C 
HETATM   35  F   UNL     1       8.552  25.282  51.969  1.00  0.00    -0.166 F 
HETATM   36  F   UNL     1       7.955  23.193  51.963  1.00  0.00    -0.166 F 
HETATM   37  F   UNL     1       6.443  24.752  51.884  1.00  0.00    -0.166 F 
ENDBRANCH  30  34
ENDBRANCH  24  28
ENDBRANCH   2  22
TORSDOF 7
ENDMDL
MODEL 9
REMARK VINA RESULT:      -9.7      4.996      9.320
REMARK  7 active torsions:
REMARK  status: ('A' for Active; 'I' for Inactive)
REMARK    1  A    between atoms: C_4  and  C_5 
REMARK    2  A    between atoms: C_5  and  C_6 
REMARK    3  A    between atoms: C_8  and  C_9 
REMARK    4  A    between atoms: C_9  and  C_10 
REMARK       I    between atoms: C_10  and  N_11 
REMARK    5  A    between atoms: N_11  and  N_12 
REMARK       I    between atoms: N_12  and  C_13 
REMARK       I    between atoms: C_13  and  N_14 
REMARK    6  A    between atoms: N_14  and  C_15 
REMARK    7  A    between atoms: C_17  and  C_18 
ROOT
HETATM    1  C   UNL     1       5.997  28.411  55.493  1.00  0.00     0.238 C 
HETATM    2  N   UNL     1       6.595  29.633  55.703  1.00  0.00    -0.266 N 
HETATM    3  O   UNL     1       6.246  27.419  56.175  1.00  0.00    -0.272 OA
HETATM    4  H   UNL     1       6.467  30.450  55.104  1.00  0.00     0.190 HD
ENDROOT
BRANCH   1   5
HETATM    5  C   UNL     1       5.008  28.429  54.355  1.00  0.00     0.139 C 
BRANCH   5   6
HETATM    6  C   UNL     1       5.652  28.020  53.032  1.00  0.00     0.185 C 
HETATM    7  N   UNL     1       6.620  26.948  53.252  1.00  0.00    -0.363 N 
HETATM    8  C   UNL     1       6.791  25.980  52.289  1.00  0.00     0.125 C 
HETATM    9  H   UNL     1       7.471  27.269  53.715  1.00  0.00     0.161 HD
HETATM   10  N   UNL     1       5.948  25.738  51.328  1.00  0.00    -0.159 NA
HETATM   11  N   UNL     1       4.828  26.511  51.260  1.00  0.00    -0.244 N 
HETATM   12  C   UNL     1       4.550  27.596  52.057  1.00  0.00     0.261 C 
HETATM   13  H   UNL     1       4.134  26.242  50.571  1.00  0.00     0.192 HD
HETATM   14  O   UNL     1       3.491  28.212  51.940  1.00  0.00    -0.269 OA
BRANCH   8  15
HETATM   15  C   UNL     1       8.055  25.130  52.352  1.00  0.00     0.118 C 
BRANCH  15  16
HETATM   16  C   UNL     1       7.915  23.970  53.307  1.00  0.00    -0.051 A 
HETATM   17  C   UNL     1       7.756  24.183  54.682  1.00  0.00     0.007 A 
HETATM   18  C   UNL     1       7.624  23.100  55.553  1.00  0.00     0.001 A 
HETATM   19  C   UNL     1       7.652  21.797  55.060  1.00  0.00     0.000 A 
HETATM   20  C   UNL     1       7.812  21.574  53.695  1.00  0.00     0.001 A 
HETATM   21  C   UNL     1       7.944  22.654  52.822  1.00  0.00     0.007 A 
ENDBRANCH  15  16
ENDBRANCH   8  15
ENDBRANCH   5   6
ENDBRANCH   1   5
BRANCH   2  22
HETATM   22  N   UNL     1       7.527  29.765  56.742  1.00  0.00    -0.249 N 
HETATM   23  C   UNL     1       7.087  30.403  57.894  1.00  0.00     0.339 C 
HETATM   24  N   UNL     1       8.102  30.545  58.814  1.00  0.00    -0.308 N 
HETATM   25  O   UNL     1       5.914  30.738  58.024  1.00  0.00    -0.245 OA
HETATM   26  H   UNL     1       8.962  30.064  58.590  1.00  0.00     0.170 HD
HETATM   27  H   UNL     1       8.490  29.884  56.437  1.00  0.00     0.192 HD
BRANCH  24  28
HETATM   28  C   UNL     1       8.032  31.154  60.082  1.00  0.00     0.037 A 
HETATM   29  C   UNL     1       7.068  32.100  60.440  1.00  0.00     0.045 A 
HETATM   30  C   UNL     1       7.051  32.663  61.730  1.00  0.00     0.050 A 
HETATM   31  C   UNL     1       8.031  32.277  62.655  1.00  0.00     0.016 A 
HETATM   32  C   UNL     1       9.000  31.339  62.303  1.00  0.00     0.003 A 
HETATM   33  C   UNL     1       8.999  30.783  61.024  1.00  0.00     0.029 A 
BRANCH  30  34
HETATM   34  C   UNL     1       6.019  33.697  62.106  1.00  0.00     0.417 C 
HETATM   35  F   UNL     1       5.300  34.166  61.048  1.00  0.00    -0.166 F 
HETATM   36  F   UNL     1       5.101  33.223  62.995  1.00  0.00    -0.166 F 
HETATM   37  F   UNL     1       6.576  34.790  62.697  1.00  0.00    -0.166 F 
ENDBRANCH  30  34
ENDBRANCH  24  28
ENDBRANCH   2  22
TORSDOF 7
ENDMDL
MODEL 10
REMARK VINA RESULT:      -9.6      5.229      7.394
REMARK  7 active torsions:
REMARK  status: ('A' for Active; 'I' for Inactive)
REMARK    1  A    between atoms: C_4  and  C_5 
REMARK    2  A    between atoms: C_5  and  C_6 
REMARK    3  A    between atoms: C_8  and  C_9 
REMARK    4  A    between atoms: C_9  and  C_10 
REMARK       I    between atoms: C_10  and  N_11 
REMARK    5  A    between atoms: N_11  and  N_12 
REMARK       I    between atoms: N_12  and  C_13 
REMARK       I    between atoms: C_13  and  N_14 
REMARK    6  A    between atoms: N_14  and  C_15 
REMARK    7  A    between atoms: C_17  and  C_18 
ROOT
HETATM    1  C   UNL     1       4.959  29.444  55.710  1.00  0.00     0.238 C 
HETATM    2  N   UNL     1       5.449  30.017  54.558  1.00  0.00    -0.266 N 
HETATM    3  O   UNL     1       3.856  28.903  55.770  1.00  0.00    -0.272 OA
HETATM    4  H   UNL     1       6.324  30.541  54.501  1.00  0.00     0.190 HD
ENDROOT
BRANCH   1   5
HETATM    5  C   UNL     1       5.916  29.544  56.870  1.00  0.00     0.139 C 
BRANCH   5   6
HETATM    6  C   UNL     1       6.289  28.171  57.424  1.00  0.00     0.185 C 
HETATM    7  N   UNL     1       5.985  27.133  56.442  1.00  0.00    -0.363 N 
HETATM    8  C   UNL     1       6.793  26.022  56.357  1.00  0.00     0.125 C 
HETATM    9  H   UNL     1       4.985  26.962  56.340  1.00  0.00     0.161 HD
HETATM   10  N   UNL     1       7.995  25.944  56.850  1.00  0.00    -0.159 NA
HETATM   11  N   UNL     1       8.477  27.032  57.514  1.00  0.00    -0.244 N 
HETATM   12  C   UNL     1       7.773  28.177  57.800  1.00  0.00     0.261 C 
HETATM   13  H   UNL     1       9.450  26.992  57.800  1.00  0.00     0.192 HD
HETATM   14  O   UNL     1       8.309  29.122  58.378  1.00  0.00    -0.269 OA
BRANCH   8  15
HETATM   15  C   UNL     1       6.245  24.797  55.634  1.00  0.00     0.118 C 
BRANCH  15  16
HETATM   16  C   UNL     1       6.262  24.966  54.134  1.00  0.00    -0.051 A 
HETATM   17  C   UNL     1       7.470  25.057  53.432  1.00  0.00     0.007 A 
HETATM   18  C   UNL     1       7.470  25.210  52.044  1.00  0.00     0.001 A 
HETATM   19  C   UNL     1       6.265  25.274  51.347  1.00  0.00     0.000 A 
HETATM   20  C   UNL     1       5.058  25.187  52.036  1.00  0.00     0.001 A 
HETATM   21  C   UNL     1       5.055  25.034  53.422  1.00  0.00     0.007 A 
ENDBRANCH  15  16
ENDBRANCH   8  15
ENDBRANCH   5   6
ENDBRANCH   1   5
BRANCH   2  22
HETATM   22  N   UNL     1       4.668  29.983  53.394  1.00  0.00    -0.249 N 
HETATM   23  C   UNL     1       5.107  29.148  52.376  1.00  0.00     0.339 C 
HETATM   24  N   UNL     1       4.311  29.251  51.258  1.00  0.00    -0.308 N 
HETATM   25  O   UNL     1       6.072  28.406  52.536  1.00  0.00    -0.245 OA
HETATM   26  H   UNL     1       3.469  29.798  51.371  1.00  0.00     0.170 HD
HETATM   27  H   UNL     1       4.211  30.861  53.164  1.00  0.00     0.192 HD
BRANCH  24  28
HETATM   28  C   UNL     1       4.460  28.572  50.033  1.00  0.00     0.037 A 
HETATM   29  C   UNL     1       3.614  27.546  49.602  1.00  0.00     0.045 A 
HETATM   30  C   UNL     1       3.815  26.915  48.361  1.00  0.00     0.050 A 
HETATM   31  C   UNL     1       4.893  27.316  47.559  1.00  0.00     0.016 A 
HETATM   32  C   UNL     1       5.745  28.334  47.983  1.00  0.00     0.003 A 
HETATM   33  C   UNL     1       5.528  28.957  49.213  1.00  0.00     0.029 A 
BRANCH  30  34
HETATM   34  C   UNL     1       2.911  25.796  47.910  1.00  0.00     0.417 C 
HETATM   35  F   UNL     1       3.075  24.640  48.611  1.00  0.00    -0.166 F 
HETATM   36  F   UNL     1       1.589  26.111  48.023  1.00  0.00    -0.166 F 
HETATM   37  F   UNL     1       3.103  25.472  46.601  1.00  0.00    -0.166 F 
ENDBRANCH  30  34
ENDBRANCH  24  28
ENDBRANCH   2  22
TORSDOF 7
ENDMDL
