MODEL 1
REMARK VINA RESULT:     -11.0      0.000      0.000
REMARK  9 active torsions:
REMARK  status: ('A' for Active; 'I' for Inactive)
REMARK    1  A    between atoms: C_2  and  O_3 
REMARK    2  A    between atoms: O_3  and  C_4 
REMARK    3  A    between atoms: C_7  and  C_8 
REMARK    4  A    between atoms: C_9  and  C_10 
REMARK       I    between atoms: C_10  and  N_11 
REMARK    5  A    between atoms: N_11  and  C_12 
REMARK    6  A    between atoms: C_22  and  S_23 
REMARK    7  A    between atoms: S_23  and  C_24 
REMARK    8  A    between atoms: C_24  and  C_25 
REMARK       I    between atoms: C_25  and  N_26 
REMARK    9  A    between atoms: N_26  and  C_27 
ROOT
HETATM    1  C   UNL     1       5.551  26.967  55.434  1.00  0.00     0.104 C 
HETATM    2  C   UNL     1       5.556  25.701  54.576  1.00  0.00     0.046 C 
HETATM    3  C   UNL     1       4.914  25.658  53.386  1.00  0.00     0.019 C 
HETATM    4  C   UNL     1       4.773  24.444  52.502  1.00  0.00     0.069 C 
HETATM    5  N   UNL     1       4.292  26.798  52.923  1.00  0.00    -0.353 N 
HETATM    6  C   UNL     1       4.116  27.964  53.636  1.00  0.00     0.087 C 
HETATM    7  C   UNL     1       4.611  28.055  54.891  1.00  0.00     0.055 C 
HETATM    8  C   UNL     1       4.410  29.306  55.729  1.00  0.00     0.019 C 
HETATM    9  N   UNL     1       4.242  30.345  56.425  1.00  0.00    -0.096 N 
HETATM   10  H   UNL     1       3.989  26.837  51.947  1.00  0.00     0.166 HD
ENDROOT
BRANCH   1  11
HETATM   11  C   UNL     1       6.953  27.589  55.559  1.00  0.00    -0.044 A 
HETATM   12  C   UNL     1       7.633  28.103  54.440  1.00  0.00     0.011 A 
HETATM   13  C   UNL     1       8.823  28.820  54.593  1.00  0.00     0.037 A 
HETATM   14  C   UNL     1       9.327  29.080  55.865  1.00  0.00     0.068 A 
HETATM   15  C   UNL     1       8.691  28.529  56.977  1.00  0.00     0.037 A 
HETATM   16  C   UNL     1       7.516  27.787  56.829  1.00  0.00     0.011 A 
BRANCH  14  17
HETATM   17  O   UNL     1      10.425  29.849  56.133  1.00  0.00    -0.352 OA
BRANCH  17  18
HETATM   18  C   UNL     1      10.790  29.952  57.511  1.00  0.00     0.171 C 
HETATM   19  C   UNL     1      10.453  31.351  57.993  1.00  0.00     0.034 C 
ENDBRANCH  17  18
ENDBRANCH  14  17
ENDBRANCH   1  11
BRANCH   6  20
HETATM   20  S   UNL     1       3.309  29.313  52.859  1.00  0.00    -0.102 SA
BRANCH  20  21
HETATM   21  C   UNL     1       4.639  29.851  51.729  1.00  0.00     0.184 C 
BRANCH  21  22
HETATM   22  C   UNL     1       4.463  29.347  50.293  1.00  0.00     0.231 C 
HETATM   23  N   UNL     1       3.498  28.349  50.212  1.00  0.00    -0.326 N 
HETATM   24  H   UNL     1       2.844  28.316  50.985  1.00  0.00     0.169 HD
HETATM   25  O   UNL     1       5.099  29.804  49.347  1.00  0.00    -0.272 OA
BRANCH  23  26
HETATM   26  C   UNL     1       3.109  27.602  49.072  1.00  0.00     0.040 A 
HETATM   27  C   UNL     1       2.076  27.922  48.174  1.00  0.00    -0.035 A 
HETATM   28  C   UNL     1       1.297  29.208  48.183  1.00  0.00     0.050 C 
HETATM   29  C   UNL     1       1.768  27.015  47.136  1.00  0.00     0.009 A 
HETATM   30  C   UNL     1       2.509  25.851  46.942  1.00  0.00     0.001 A 
HETATM   31  C   UNL     1       3.584  25.579  47.774  1.00  0.00     0.002 A 
HETATM   32  C   UNL     1       3.885  26.455  48.819  1.00  0.00     0.030 A 
ENDBRANCH  23  26
ENDBRANCH  21  22
ENDBRANCH  20  21
ENDBRANCH   6  20
BRANCH   2  33
HETATM   33  C   UNL     1       6.282  24.532  55.154  1.00  0.00     0.255 C 
HETATM   34  N   UNL     1       6.901  23.764  54.189  1.00  0.00    -0.323 N 
HETATM   35  H   UNL     1       6.832  24.092  53.234  1.00  0.00     0.169 HD
HETATM   36  O   UNL     1       6.300  24.375  56.367  1.00  0.00    -0.268 OA
BRANCH  34  37
HETATM   37  C   UNL     1       7.554  22.527  54.355  1.00  0.00     0.035 A 
HETATM   38  C   UNL     1       7.815  21.943  55.595  1.00  0.00     0.029 A 
HETATM   39  C   UNL     1       8.437  20.693  55.667  1.00  0.00     0.002 A 
HETATM   40  C   UNL     1       8.797  20.016  54.504  1.00  0.00     0.000 A 
HETATM   41  C   UNL     1       8.542  20.591  53.263  1.00  0.00     0.002 A 
HETATM   42  C   UNL     1       7.929  21.844  53.190  1.00  0.00     0.029 A 
ENDBRANCH  34  37
ENDBRANCH   2  33
TORSDOF 9
ENDMDL
MODEL 2
REMARK VINA RESULT:     -10.9      0.390      1.166
REMARK  9 active torsions:
REMARK  status: ('A' for Active; 'I' for Inactive)
REMARK    1  A    between atoms: C_2  and  O_3 
REMARK    2  A    between atoms: O_3  and  C_4 
REMARK    3  A    between atoms: C_7  and  C_8 
REMARK    4  A    between atoms: C_9  and  C_10 
REMARK       I    between atoms: C_10  and  N_11 
REMARK    5  A    between atoms: N_11  and  C_12 
REMARK    6  A    between atoms: C_22  and  S_23 
REMARK    7  A    between atoms: S_23  and  C_24 
REMARK    8  A    between atoms: C_24  and  C_25 
REMARK       I    between atoms: C_25  and  N_26 
REMARK    9  A    between atoms: N_26  and  C_27 
ROOT
HETATM    1  C   UNL     1       5.573  27.055  55.353  1.00  0.00     0.104 C 
HETATM    2  C   UNL     1       5.560  25.798  54.481  1.00  0.00     0.046 C 
HETATM    3  C   UNL     1       4.934  25.784  53.281  1.00  0.00     0.019 C 
HETATM    4  C   UNL     1       4.776  24.585  52.381  1.00  0.00     0.069 C 
HETATM    5  N   UNL     1       4.348  26.945  52.821  1.00  0.00    -0.353 N 
HETATM    6  C   UNL     1       4.190  28.107  53.545  1.00  0.00     0.087 C 
HETATM    7  C   UNL     1       4.669  28.171  54.808  1.00  0.00     0.055 C 
HETATM    8  C   UNL     1       4.486  29.418  55.658  1.00  0.00     0.019 C 
HETATM    9  N   UNL     1       4.334  30.453  56.363  1.00  0.00    -0.096 N 
HETATM   10  H   UNL     1       4.062  27.002  51.842  1.00  0.00     0.166 HD
ENDROOT
BRANCH   1  11
HETATM   11  C   UNL     1       6.988  27.639  55.506  1.00  0.00    -0.044 A 
HETATM   12  C   UNL     1       7.696  28.153  54.404  1.00  0.00     0.011 A 
HETATM   13  C   UNL     1       8.901  28.838  54.584  1.00  0.00     0.037 A 
HETATM   14  C   UNL     1       9.394  29.066  55.866  1.00  0.00     0.068 A 
HETATM   15  C   UNL     1       8.729  28.515  56.961  1.00  0.00     0.037 A 
HETATM   16  C   UNL     1       7.539  27.804  56.786  1.00  0.00     0.011 A 
BRANCH  14  17
HETATM   17  O   UNL     1      10.507  29.804  56.161  1.00  0.00    -0.352 OA
BRANCH  17  18
HETATM   18  C   UNL     1      10.811  29.942  57.550  1.00  0.00     0.171 C 
HETATM   19  C   UNL     1      10.413  31.339  57.991  1.00  0.00     0.034 C 
ENDBRANCH  17  18
ENDBRANCH  14  17
ENDBRANCH   1  11
BRANCH   6  20
HETATM   20  S   UNL     1       3.430  29.485  52.771  1.00  0.00    -0.102 SA
BRANCH  20  21
HETATM   21  C   UNL     1       4.716  29.888  51.539  1.00  0.00     0.184 C 
BRANCH  21  22
HETATM   22  C   UNL     1       4.365  29.437  50.118  1.00  0.00     0.231 C 
HETATM   23  N   UNL     1       3.167  28.731  50.083  1.00  0.00    -0.326 N 
HETATM   24  H   UNL     1       2.554  28.879  50.875  1.00  0.00     0.169 HD
HETATM   25  O   UNL     1       5.067  29.701  49.146  1.00  0.00    -0.272 OA
BRANCH  23  26
HETATM   26  C   UNL     1       2.556  28.106  48.967  1.00  0.00     0.040 A 
HETATM   27  C   UNL     1       2.944  26.893  48.371  1.00  0.00    -0.035 A 
HETATM   28  C   UNL     1       3.992  25.964  48.916  1.00  0.00     0.050 C 
HETATM   29  C   UNL     1       2.271  26.459  47.207  1.00  0.00     0.009 A 
HETATM   30  C   UNL     1       1.192  27.167  46.682  1.00  0.00     0.001 A 
HETATM   31  C   UNL     1       0.754  28.316  47.320  1.00  0.00     0.002 A 
HETATM   32  C   UNL     1       1.424  28.770  48.460  1.00  0.00     0.030 A 
ENDBRANCH  23  26
ENDBRANCH  21  22
ENDBRANCH  20  21
ENDBRANCH   6  20
BRANCH   2  33
HETATM   33  C   UNL     1       6.246  24.605  55.056  1.00  0.00     0.255 C 
HETATM   34  N   UNL     1       6.897  23.855  54.097  1.00  0.00    -0.323 N 
HETATM   35  H   UNL     1       6.872  24.210  53.150  1.00  0.00     0.169 HD
HETATM   36  O   UNL     1       6.212  24.415  56.264  1.00  0.00    -0.268 OA
BRANCH  34  37
HETATM   37  C   UNL     1       7.528  22.606  54.257  1.00  0.00     0.035 A 
HETATM   38  C   UNL     1       7.761  22.003  55.492  1.00  0.00     0.029 A 
HETATM   39  C   UNL     1       8.363  20.742  55.557  1.00  0.00     0.002 A 
HETATM   40  C   UNL     1       8.729  20.074  54.390  1.00  0.00     0.000 A 
HETATM   41  C   UNL     1       8.502  20.669  53.153  1.00  0.00     0.002 A 
HETATM   42  C   UNL     1       7.909  21.932  53.087  1.00  0.00     0.029 A 
ENDBRANCH  34  37
ENDBRANCH   2  33
TORSDOF 9
ENDMDL
MODEL 3
REMARK VINA RESULT:     -10.3      2.184      7.650
REMARK  9 active torsions:
REMARK  status: ('A' for Active; 'I' for Inactive)
REMARK    1  A    between atoms: C_2  and  O_3 
REMARK    2  A    between atoms: O_3  and  C_4 
REMARK    3  A    between atoms: C_7  and  C_8 
REMARK    4  A    between atoms: C_9  and  C_10 
REMARK       I    between atoms: C_10  and  N_11 
REMARK    5  A    between atoms: N_11  and  C_12 
REMARK    6  A    between atoms: C_22  and  S_23 
REMARK    7  A    between atoms: S_23  and  C_24 
REMARK    8  A    between atoms: C_24  and  C_25 
REMARK       I    between atoms: C_25  and  N_26 
REMARK    9  A    between atoms: N_26  and  C_27 
ROOT
HETATM    1  C   UNL     1       5.575  28.892  54.403  1.00  0.00     0.104 C 
HETATM    2  C   UNL     1       5.730  27.567  55.151  1.00  0.00     0.046 C 
HETATM    3  C   UNL     1       5.103  27.351  56.330  1.00  0.00     0.019 C 
HETATM    4  C   UNL     1       5.254  26.127  57.199  1.00  0.00     0.069 C 
HETATM    5  N   UNL     1       4.269  28.328  56.831  1.00  0.00    -0.353 N 
HETATM    6  C   UNL     1       4.126  29.600  56.322  1.00  0.00     0.087 C 
HETATM    7  C   UNL     1       4.817  29.954  55.215  1.00  0.00     0.055 C 
HETATM    8  C   UNL     1       4.720  31.357  54.639  1.00  0.00     0.019 C 
HETATM    9  N   UNL     1       4.640  32.521  54.161  1.00  0.00    -0.096 N 
HETATM   10  H   UNL     1       3.638  28.095  57.600  1.00  0.00     0.166 HD
ENDROOT
BRANCH   1  11
HETATM   11  C   UNL     1       4.835  28.719  53.065  1.00  0.00    -0.044 A 
HETATM   12  C   UNL     1       3.441  28.542  53.012  1.00  0.00     0.011 A 
HETATM   13  C   UNL     1       2.763  28.563  51.789  1.00  0.00     0.037 A 
HETATM   14  C   UNL     1       3.455  28.812  50.607  1.00  0.00     0.068 A 
HETATM   15  C   UNL     1       4.844  28.936  50.642  1.00  0.00     0.037 A 
HETATM   16  C   UNL     1       5.532  28.886  51.857  1.00  0.00     0.011 A 
BRANCH  14  17
HETATM   17  O   UNL     1       2.880  28.950  49.374  1.00  0.00    -0.352 OA
BRANCH  17  18
HETATM   18  C   UNL     1       2.787  27.756  48.595  1.00  0.00     0.171 C 
HETATM   19  C   UNL     1       1.320  27.459  48.345  1.00  0.00     0.034 C 
ENDBRANCH  17  18
ENDBRANCH  14  17
ENDBRANCH   1  11
BRANCH   6  20
HETATM   20  S   UNL     1       2.996  30.695  57.097  1.00  0.00    -0.102 SA
BRANCH  20  21
HETATM   21  C   UNL     1       4.004  31.206  58.531  1.00  0.00     0.184 C 
BRANCH  21  22
HETATM   22  C   UNL     1       5.430  31.625  58.159  1.00  0.00     0.231 C 
HETATM   23  N   UNL     1       6.354  30.629  58.459  1.00  0.00    -0.326 N 
HETATM   24  H   UNL     1       5.968  29.698  58.563  1.00  0.00     0.169 HD
HETATM   25  O   UNL     1       5.689  32.708  57.641  1.00  0.00    -0.272 OA
BRANCH  23  26
HETATM   26  C   UNL     1       7.764  30.677  58.318  1.00  0.00     0.040 A 
HETATM   27  C   UNL     1       8.649  31.503  59.032  1.00  0.00    -0.035 A 
HETATM   28  C   UNL     1       8.262  32.379  60.190  1.00  0.00     0.050 C 
HETATM   29  C   UNL     1      10.022  31.480  58.700  1.00  0.00     0.009 A 
HETATM   30  C   UNL     1      10.524  30.610  57.735  1.00  0.00     0.001 A 
HETATM   31  C   UNL     1       9.664  29.733  57.092  1.00  0.00     0.002 A 
HETATM   32  C   UNL     1       8.300  29.760  57.394  1.00  0.00     0.030 A 
ENDBRANCH  23  26
ENDBRANCH  21  22
ENDBRANCH  20  21
ENDBRANCH   6  20
BRANCH   2  33
HETATM   33  C   UNL     1       6.631  26.565  54.511  1.00  0.00     0.255 C 
HETATM   34  N   UNL     1       6.172  25.272  54.655  1.00  0.00    -0.323 N 
HETATM   35  H   UNL     1       5.284  25.155  55.125  1.00  0.00     0.169 HD
HETATM   36  O   UNL     1       7.629  26.948  53.913  1.00  0.00    -0.268 OA
BRANCH  34  37
HETATM   37  C   UNL     1       6.828  24.077  54.299  1.00  0.00     0.035 A 
HETATM   38  C   UNL     1       7.171  23.735  52.992  1.00  0.00     0.029 A 
HETATM   39  C   UNL     1       7.853  22.542  52.732  1.00  0.00     0.002 A 
HETATM   40  C   UNL     1       8.203  21.688  53.776  1.00  0.00     0.000 A 
HETATM   41  C   UNL     1       7.863  22.019  55.083  1.00  0.00     0.002 A 
HETATM   42  C   UNL     1       7.173  23.206  55.343  1.00  0.00     0.029 A 
ENDBRANCH  34  37
ENDBRANCH   2  33
TORSDOF 9
ENDMDL
MODEL 4
REMARK VINA RESULT:     -10.2      4.460      9.114
REMARK  9 active torsions:
REMARK  status: ('A' for Active; 'I' for Inactive)
REMARK    1  A    between atoms: C_2  and  O_3 
REMARK    2  A    between atoms: O_3  and  C_4 
REMARK    3  A    between atoms: C_7  and  C_8 
REMARK    4  A    between atoms: C_9  and  C_10 
REMARK       I    between atoms: C_10  and  N_11 
REMARK    5  A    between atoms: N_11  and  C_12 
REMARK    6  A    between atoms: C_22  and  S_23 
REMARK    7  A    between atoms: S_23  and  C_24 
REMARK    8  A    between atoms: C_24  and  C_25 
REMARK       I    between atoms: C_25  and  N_26 
REMARK    9  A    between atoms: N_26  and  C_27 
ROOT
HETATM    1  C   UNL     1       5.598  31.331  58.209  1.00  0.00     0.104 C 
HETATM    2  C   UNL     1       7.092  31.199  58.510  1.00  0.00     0.046 C 
HETATM    3  C   UNL     1       7.889  30.399  57.764  1.00  0.00     0.019 C 
HETATM    4  C   UNL     1       9.348  30.119  58.022  1.00  0.00     0.069 C 
HETATM    5  N   UNL     1       7.345  29.736  56.684  1.00  0.00    -0.353 N 
HETATM    6  C   UNL     1       6.006  29.678  56.368  1.00  0.00     0.087 C 
HETATM    7  C   UNL     1       5.113  30.342  57.138  1.00  0.00     0.055 C 
HETATM    8  C   UNL     1       3.622  30.276  56.851  1.00  0.00     0.019 C 
HETATM    9  N   UNL     1       2.385  30.222  56.613  1.00  0.00    -0.096 N 
HETATM   10  H   UNL     1       7.971  29.304  56.001  1.00  0.00     0.166 HD
ENDROOT
BRANCH   1  11
HETATM   11  C   UNL     1       5.225  32.746  57.734  1.00  0.00    -0.044 A 
HETATM   12  C   UNL     1       5.241  33.094  56.371  1.00  0.00     0.011 A 
HETATM   13  C   UNL     1       4.734  34.323  55.940  1.00  0.00     0.037 A 
HETATM   14  C   UNL     1       4.155  35.202  56.853  1.00  0.00     0.068 A 
HETATM   15  C   UNL     1       4.182  34.891  58.212  1.00  0.00     0.037 A 
HETATM   16  C   UNL     1       4.715  33.677  58.653  1.00  0.00     0.011 A 
BRANCH  14  17
HETATM   17  O   UNL     1       3.544  36.382  56.528  1.00  0.00    -0.352 OA
BRANCH  17  18
HETATM   18  C   UNL     1       2.445  36.282  55.621  1.00  0.00     0.171 C 
HETATM   19  C   UNL     1       1.262  35.690  56.365  1.00  0.00     0.034 C 
ENDBRANCH  17  18
ENDBRANCH  14  17
ENDBRANCH   1  11
BRANCH   6  20
HETATM   20  S   UNL     1       5.515  28.792  54.936  1.00  0.00    -0.102 SA
BRANCH  20  21
HETATM   21  C   UNL     1       5.319  27.128  55.662  1.00  0.00     0.184 C 
BRANCH  21  22
HETATM   22  C   UNL     1       6.528  26.215  55.434  1.00  0.00     0.231 C 
HETATM   23  N   UNL     1       6.170  25.040  54.782  1.00  0.00    -0.326 N 
HETATM   24  H   UNL     1       5.293  25.076  54.277  1.00  0.00     0.169 HD
HETATM   25  O   UNL     1       7.666  26.522  55.780  1.00  0.00    -0.272 OA
BRANCH  23  26
HETATM   26  C   UNL     1       6.997  23.935  54.460  1.00  0.00     0.040 A 
HETATM   27  C   UNL     1       7.643  23.701  53.233  1.00  0.00    -0.035 A 
HETATM   28  C   UNL     1       7.691  24.674  52.088  1.00  0.00     0.050 C 
HETATM   29  C   UNL     1       8.362  22.498  53.058  1.00  0.00     0.009 A 
HETATM   30  C   UNL     1       8.504  21.576  54.093  1.00  0.00     0.001 A 
HETATM   31  C   UNL     1       7.940  21.848  55.331  1.00  0.00     0.002 A 
HETATM   32  C   UNL     1       7.207  23.023  55.511  1.00  0.00     0.030 A 
ENDBRANCH  23  26
ENDBRANCH  21  22
ENDBRANCH  20  21
ENDBRANCH   6  20
BRANCH   2  33
HETATM   33  C   UNL     1       7.587  31.979  59.681  1.00  0.00     0.255 C 
HETATM   34  N   UNL     1       6.809  31.795  60.807  1.00  0.00    -0.323 N 
HETATM   35  H   UNL     1       6.042  31.140  60.726  1.00  0.00     0.169 HD
HETATM   36  O   UNL     1       8.602  32.653  59.570  1.00  0.00    -0.268 OA
BRANCH  34  37
HETATM   37  C   UNL     1       6.900  32.468  62.040  1.00  0.00     0.035 A 
HETATM   38  C   UNL     1       7.862  32.193  63.011  1.00  0.00     0.029 A 
HETATM   39  C   UNL     1       7.901  32.936  64.194  1.00  0.00     0.002 A 
HETATM   40  C   UNL     1       6.985  33.963  64.414  1.00  0.00     0.000 A 
HETATM   41  C   UNL     1       6.019  34.243  63.452  1.00  0.00     0.002 A 
HETATM   42  C   UNL     1       5.973  33.495  62.273  1.00  0.00     0.029 A 
ENDBRANCH  34  37
ENDBRANCH   2  33
TORSDOF 9
ENDMDL
MODEL 5
REMARK VINA RESULT:     -10.2      1.694      2.285
REMARK  9 active torsions:
REMARK  status: ('A' for Active; 'I' for Inactive)
REMARK    1  A    between atoms: C_2  and  O_3 
REMARK    2  A    between atoms: O_3  and  C_4 
REMARK    3  A    between atoms: C_7  and  C_8 
REMARK    4  A    between atoms: C_9  and  C_10 
REMARK       I    between atoms: C_10  and  N_11 
REMARK    5  A    between atoms: N_11  and  C_12 
REMARK    6  A    between atoms: C_22  and  S_23 
REMARK    7  A    between atoms: S_23  and  C_24 
REMARK    8  A    between atoms: C_24  and  C_25 
REMARK       I    between atoms: C_25  and  N_26 
REMARK    9  A    between atoms: N_26  and  C_27 
ROOT
HETATM    1  C   UNL     1       4.621  27.821  54.127  1.00  0.00     0.104 C 
HETATM    2  C   UNL     1       4.978  26.929  52.936  1.00  0.00     0.046 C 
HETATM    3  C   UNL     1       5.074  27.436  51.685  1.00  0.00     0.019 C 
HETATM    4  C   UNL     1       5.326  26.642  50.428  1.00  0.00     0.069 C 
HETATM    5  N   UNL     1       4.898  28.791  51.499  1.00  0.00    -0.353 N 
HETATM    6  C   UNL     1       4.467  29.684  52.456  1.00  0.00     0.087 C 
HETATM    7  C   UNL     1       4.217  29.243  53.710  1.00  0.00     0.055 C 
HETATM    8  C   UNL     1       3.705  30.183  54.788  1.00  0.00     0.019 C 
HETATM    9  N   UNL     1       3.280  30.964  55.684  1.00  0.00    -0.096 N 
HETATM   10  H   UNL     1       5.172  29.209  50.608  1.00  0.00     0.166 HD
ENDROOT
BRANCH   1  11
HETATM   11  C   UNL     1       5.784  27.945  55.127  1.00  0.00    -0.044 A 
HETATM   12  C   UNL     1       7.012  28.526  54.760  1.00  0.00     0.011 A 
HETATM   13  C   UNL     1       7.993  28.792  55.720  1.00  0.00     0.037 A 
HETATM   14  C   UNL     1       7.746  28.531  57.066  1.00  0.00     0.068 A 
HETATM   15  C   UNL     1       6.555  27.906  57.434  1.00  0.00     0.037 A 
HETATM   16  C   UNL     1       5.582  27.611  56.475  1.00  0.00     0.011 A 
BRANCH  14  17
HETATM   17  O   UNL     1       8.593  28.840  58.094  1.00  0.00    -0.352 OA
BRANCH  17  18
HETATM   18  C   UNL     1       8.348  30.087  58.747  1.00  0.00     0.171 C 
HETATM   19  C   UNL     1       9.583  30.956  58.600  1.00  0.00     0.034 C 
ENDBRANCH  17  18
ENDBRANCH  14  17
ENDBRANCH   1  11
BRANCH   6  20
HETATM   20  S   UNL     1       4.323  31.377  52.024  1.00  0.00    -0.102 SA
BRANCH  20  21
HETATM   21  C   UNL     1       2.644  31.364  51.306  1.00  0.00     0.184 C 
BRANCH  21  22
HETATM   22  C   UNL     1       2.592  30.811  49.879  1.00  0.00     0.231 C 
HETATM   23  N   UNL     1       1.605  29.841  49.737  1.00  0.00    -0.326 N 
HETATM   24  H   UNL     1       0.878  29.859  50.442  1.00  0.00     0.169 HD
HETATM   25  O   UNL     1       3.334  31.211  48.985  1.00  0.00    -0.272 OA
BRANCH  23  26
HETATM   26  C   UNL     1       1.303  29.064  48.591  1.00  0.00     0.040 A 
HETATM   27  C   UNL     1       0.624  29.498  47.440  1.00  0.00    -0.035 A 
HETATM   28  C   UNL     1       0.229  30.922  47.161  1.00  0.00     0.050 C 
HETATM   29  C   UNL     1       0.333  28.561  46.424  1.00  0.00     0.009 A 
HETATM   30  C   UNL     1       0.765  27.239  46.507  1.00  0.00     0.001 A 
HETATM   31  C   UNL     1       1.512  26.832  47.602  1.00  0.00     0.002 A 
HETATM   32  C   UNL     1       1.787  27.742  48.625  1.00  0.00     0.030 A 
ENDBRANCH  23  26
ENDBRANCH  21  22
ENDBRANCH  20  21
ENDBRANCH   6  20
BRANCH   2  33
HETATM   33  C   UNL     1       5.176  25.484  53.248  1.00  0.00     0.255 C 
HETATM   34  N   UNL     1       6.473  25.197  53.626  1.00  0.00    -0.323 N 
HETATM   35  H   UNL     1       7.110  25.979  53.689  1.00  0.00     0.169 HD
HETATM   36  O   UNL     1       4.224  24.718  53.183  1.00  0.00    -0.268 OA
BRANCH  34  37
HETATM   37  C   UNL     1       7.045  23.931  53.859  1.00  0.00     0.035 A 
HETATM   38  C   UNL     1       7.667  23.163  52.875  1.00  0.00     0.029 A 
HETATM   39  C   UNL     1       8.242  21.931  53.202  1.00  0.00     0.002 A 
HETATM   40  C   UNL     1       8.205  21.461  54.513  1.00  0.00     0.000 A 
HETATM   41  C   UNL     1       7.585  22.219  55.501  1.00  0.00     0.002 A 
HETATM   42  C   UNL     1       7.002  23.446  55.174  1.00  0.00     0.029 A 
ENDBRANCH  34  37
ENDBRANCH   2  33
TORSDOF 9
ENDMDL
MODEL 6
REMARK VINA RESULT:     -10.0      2.769      7.509
REMARK  9 active torsions:
REMARK  status: ('A' for Active; 'I' for Inactive)
REMARK    1  A    between atoms: C_2  and  O_3 
REMARK    2  A    between atoms: O_3  and  C_4 
REMARK    3  A    between atoms: C_7  and  C_8 
REMARK    4  A    between atoms: C_9  and  C_10 
REMARK       I    between atoms: C_10  and  N_11 
REMARK    5  A    between atoms: N_11  and  C_12 
REMARK    6  A    between atoms: C_22  and  S_23 
REMARK    7  A    between atoms: S_23  and  C_24 
REMARK    8  A    between atoms: C_24  and  C_25 
REMARK       I    between atoms: C_25  and  N_26 
REMARK    9  A    between atoms: N_26  and  C_27 
ROOT
HETATM    1  C   UNL     1       5.907  28.804  54.652  1.00  0.00     0.104 C 
HETATM    2  C   UNL     1       5.253  27.666  53.865  1.00  0.00     0.046 C 
HETATM    3  C   UNL     1       5.295  26.390  54.312  1.00  0.00     0.019 C 
HETATM    4  C   UNL     1       4.770  25.180  53.581  1.00  0.00     0.069 C 
HETATM    5  N   UNL     1       5.894  26.128  55.526  1.00  0.00    -0.353 N 
HETATM    6  C   UNL     1       6.613  27.031  56.279  1.00  0.00     0.087 C 
HETATM    7  C   UNL     1       6.738  28.306  55.844  1.00  0.00     0.055 C 
HETATM    8  C   UNL     1       7.552  29.327  56.621  1.00  0.00     0.019 C 
HETATM    9  N   UNL     1       8.228  30.175  57.266  1.00  0.00    -0.096 N 
HETATM   10  H   UNL     1       5.749  25.217  55.965  1.00  0.00     0.166 HD
ENDROOT
BRANCH   1  11
HETATM   11  C   UNL     1       4.871  29.803  55.196  1.00  0.00    -0.044 A 
HETATM   12  C   UNL     1       4.000  29.462  56.247  1.00  0.00     0.011 A 
HETATM   13  C   UNL     1       3.189  30.430  56.846  1.00  0.00     0.037 A 
HETATM   14  C   UNL     1       3.270  31.761  56.444  1.00  0.00     0.068 A 
HETATM   15  C   UNL     1       4.090  32.100  55.367  1.00  0.00     0.037 A 
HETATM   16  C   UNL     1       4.881  31.132  54.744  1.00  0.00     0.011 A 
BRANCH  14  17
HETATM   17  O   UNL     1       2.598  32.800  57.024  1.00  0.00    -0.352 OA
BRANCH  17  18
HETATM   18  C   UNL     1       3.410  33.863  57.525  1.00  0.00     0.171 C 
HETATM   19  C   UNL     1       4.011  33.425  58.848  1.00  0.00     0.034 C 
ENDBRANCH  17  18
ENDBRANCH  14  17
ENDBRANCH   1  11
BRANCH   6  20
HETATM   20  S   UNL     1       7.286  26.505  57.810  1.00  0.00    -0.102 SA
BRANCH  20  21
HETATM   21  C   UNL     1       8.576  25.366  57.199  1.00  0.00     0.184 C 
BRANCH  21  22
HETATM   22  C   UNL     1       8.014  24.130  56.488  1.00  0.00     0.231 C 
HETATM   23  N   UNL     1       8.927  23.598  55.583  1.00  0.00    -0.326 N 
HETATM   24  H   UNL     1       9.892  23.864  55.735  1.00  0.00     0.169 HD
HETATM   25  O   UNL     1       6.898  23.678  56.727  1.00  0.00    -0.272 OA
BRANCH  23  26
HETATM   26  C   UNL     1       8.743  22.504  54.701  1.00  0.00     0.040 A 
HETATM   27  C   UNL     1       8.236  22.560  53.391  1.00  0.00    -0.035 A 
HETATM   28  C   UNL     1       7.943  23.826  52.637  1.00  0.00     0.050 C 
HETATM   29  C   UNL     1       8.039  21.354  52.683  1.00  0.00     0.009 A 
HETATM   30  C   UNL     1       8.401  20.122  53.226  1.00  0.00     0.001 A 
HETATM   31  C   UNL     1       8.982  20.075  54.484  1.00  0.00     0.002 A 
HETATM   32  C   UNL     1       9.161  21.258  55.205  1.00  0.00     0.030 A 
ENDBRANCH  23  26
ENDBRANCH  21  22
ENDBRANCH  20  21
ENDBRANCH   6  20
BRANCH   2  33
HETATM   33  C   UNL     1       4.606  28.059  52.579  1.00  0.00     0.255 C 
HETATM   34  N   UNL     1       5.481  28.017  51.512  1.00  0.00    -0.323 N 
HETATM   35  H   UNL     1       6.420  27.695  51.707  1.00  0.00     0.169 HD
HETATM   36  O   UNL     1       3.414  28.335  52.565  1.00  0.00    -0.268 OA
BRANCH  34  37
HETATM   37  C   UNL     1       5.253  28.447  50.190  1.00  0.00     0.035 A 
HETATM   38  C   UNL     1       4.913  27.595  49.141  1.00  0.00     0.029 A 
HETATM   39  C   UNL     1       4.669  28.112  47.864  1.00  0.00     0.002 A 
HETATM   40  C   UNL     1       4.758  29.482  47.630  1.00  0.00     0.000 A 
HETATM   41  C   UNL     1       5.099  30.340  48.670  1.00  0.00     0.002 A 
HETATM   42  C   UNL     1       5.351  29.824  49.944  1.00  0.00     0.029 A 
ENDBRANCH  34  37
ENDBRANCH   2  33
TORSDOF 9
ENDMDL
MODEL 7
REMARK VINA RESULT:      -9.7      3.055      3.942
REMARK  9 active torsions:
REMARK  status: ('A' for Active; 'I' for Inactive)
REMARK    1  A    between atoms: C_2  and  O_3 
REMARK    2  A    between atoms: O_3  and  C_4 
REMARK    3  A    between atoms: C_7  and  C_8 
REMARK    4  A    between atoms: C_9  and  C_10 
REMARK       I    between atoms: C_10  and  N_11 
REMARK    5  A    between atoms: N_11  and  C_12 
REMARK    6  A    between atoms: C_22  and  S_23 
REMARK    7  A    between atoms: S_23  and  C_24 
REMARK    8  A    between atoms: C_24  and  C_25 
REMARK       I    between atoms: C_25  and  N_26 
REMARK    9  A    between atoms: N_26  and  C_27 
ROOT
HETATM    1  C   UNL     1       4.538  27.814  54.121  1.00  0.00     0.104 C 
HETATM    2  C   UNL     1       4.916  26.939  52.925  1.00  0.00     0.046 C 
HETATM    3  C   UNL     1       5.018  27.460  51.680  1.00  0.00     0.019 C 
HETATM    4  C   UNL     1       5.291  26.682  50.417  1.00  0.00     0.069 C 
HETATM    5  N   UNL     1       4.828  28.814  51.506  1.00  0.00    -0.353 N 
HETATM    6  C   UNL     1       4.378  29.693  52.467  1.00  0.00     0.087 C 
HETATM    7  C   UNL     1       4.122  29.236  53.714  1.00  0.00     0.055 C 
HETATM    8  C   UNL     1       3.589  30.160  54.798  1.00  0.00     0.019 C 
HETATM    9  N   UNL     1       3.147  30.926  55.697  1.00  0.00    -0.096 N 
HETATM   10  H   UNL     1       5.105  29.245  50.621  1.00  0.00     0.166 HD
ENDROOT
BRANCH   1  11
HETATM   11  C   UNL     1       5.691  27.942  55.133  1.00  0.00    -0.044 A 
HETATM   12  C   UNL     1       6.915  28.541  54.783  1.00  0.00     0.011 A 
HETATM   13  C   UNL     1       7.883  28.808  55.755  1.00  0.00     0.037 A 
HETATM   14  C   UNL     1       7.628  28.530  57.096  1.00  0.00     0.068 A 
HETATM   15  C   UNL     1       6.441  27.888  57.446  1.00  0.00     0.037 A 
HETATM   16  C   UNL     1       5.480  27.591  56.476  1.00  0.00     0.011 A 
BRANCH  14  17
HETATM   17  O   UNL     1       8.461  28.839  58.135  1.00  0.00    -0.352 OA
BRANCH  17  18
HETATM   18  C   UNL     1       8.990  30.166  58.134  1.00  0.00     0.171 C 
HETATM   19  C   UNL     1       7.968  31.090  58.770  1.00  0.00     0.034 C 
ENDBRANCH  17  18
ENDBRANCH  14  17
ENDBRANCH   1  11
BRANCH   6  20
HETATM   20  S   UNL     1       4.218  31.389  52.051  1.00  0.00    -0.102 SA
BRANCH  20  21
HETATM   21  C   UNL     1       3.551  31.223  50.359  1.00  0.00     0.184 C 
BRANCH  21  22
HETATM   22  C   UNL     1       4.041  32.312  49.399  1.00  0.00     0.231 C 
HETATM   23  N   UNL     1       5.116  31.876  48.632  1.00  0.00    -0.326 N 
HETATM   24  H   UNL     1       5.220  30.870  48.564  1.00  0.00     0.169 HD
HETATM   25  O   UNL     1       3.513  33.418  49.326  1.00  0.00    -0.272 OA
BRANCH  23  26
HETATM   26  C   UNL     1       5.871  32.616  47.689  1.00  0.00     0.040 A 
HETATM   27  C   UNL     1       5.682  32.638  46.296  1.00  0.00    -0.035 A 
HETATM   28  C   UNL     1       4.533  31.989  45.575  1.00  0.00     0.050 C 
HETATM   29  C   UNL     1       6.587  33.369  45.495  1.00  0.00     0.009 A 
HETATM   30  C   UNL     1       7.615  34.122  46.058  1.00  0.00     0.001 A 
HETATM   31  C   UNL     1       7.748  34.171  47.437  1.00  0.00     0.002 A 
HETATM   32  C   UNL     1       6.875  33.435  48.241  1.00  0.00     0.030 A 
ENDBRANCH  23  26
ENDBRANCH  21  22
ENDBRANCH  20  21
ENDBRANCH   6  20
BRANCH   2  33
HETATM   33  C   UNL     1       5.129  25.493  53.223  1.00  0.00     0.255 C 
HETATM   34  N   UNL     1       6.427  25.216  53.601  1.00  0.00    -0.323 N 
HETATM   35  H   UNL     1       7.057  26.004  53.673  1.00  0.00     0.169 HD
HETATM   36  O   UNL     1       4.184  24.718  53.149  1.00  0.00    -0.268 OA
BRANCH  34  37
HETATM   37  C   UNL     1       7.012  23.954  53.824  1.00  0.00     0.035 A 
HETATM   38  C   UNL     1       7.547  23.153  52.815  1.00  0.00     0.029 A 
HETATM   39  C   UNL     1       8.142  21.928  53.130  1.00  0.00     0.002 A 
HETATM   40  C   UNL     1       8.212  21.497  54.454  1.00  0.00     0.000 A 
HETATM   41  C   UNL     1       7.678  22.288  55.466  1.00  0.00     0.002 A 
HETATM   42  C   UNL     1       7.076  23.508  55.152  1.00  0.00     0.029 A 
ENDBRANCH  34  37
ENDBRANCH   2  33
TORSDOF 9
ENDMDL
MODEL 8
REMARK VINA RESULT:      -9.7      2.560      4.022
REMARK  9 active torsions:
REMARK  status: ('A' for Active; 'I' for Inactive)
REMARK    1  A    between atoms: C_2  and  O_3 
REMARK    2  A    between atoms: O_3  and  C_4 
REMARK    3  A    between atoms: C_7  and  C_8 
REMARK    4  A    between atoms: C_9  and  C_10 
REMARK       I    between atoms: C_10  and  N_11 
REMARK    5  A    between atoms: N_11  and  C_12 
REMARK    6  A    between atoms: C_22  and  S_23 
REMARK    7  A    between atoms: S_23  and  C_24 
REMARK    8  A    between atoms: C_24  and  C_25 
REMARK       I    between atoms: C_25  and  N_26 
REMARK    9  A    between atoms: N_26  and  C_27 
ROOT
HETATM    1  C   UNL     1       6.235  27.032  54.792  1.00  0.00     0.104 C 
HETATM    2  C   UNL     1       6.336  26.398  53.404  1.00  0.00     0.046 C 
HETATM    3  C   UNL     1       5.642  26.894  52.354  1.00  0.00     0.019 C 
HETATM    4  C   UNL     1       5.591  26.301  50.969  1.00  0.00     0.069 C 
HETATM    5  N   UNL     1       4.874  28.025  52.537  1.00  0.00    -0.353 N 
HETATM    6  C   UNL     1       4.607  28.627  53.747  1.00  0.00     0.087 C 
HETATM    7  C   UNL     1       5.153  28.120  54.875  1.00  0.00     0.055 C 
HETATM    8  C   UNL     1       4.857  28.728  56.237  1.00  0.00     0.019 C 
HETATM    9  N   UNL     1       4.612  29.232  57.367  1.00  0.00    -0.096 N 
HETATM   10  H   UNL     1       4.519  28.522  51.718  1.00  0.00     0.166 HD
ENDROOT
BRANCH   1  11
HETATM   11  C   UNL     1       7.564  27.667  55.238  1.00  0.00    -0.044 A 
HETATM   12  C   UNL     1       8.326  28.468  54.369  1.00  0.00     0.011 A 
HETATM   13  C   UNL     1       9.435  29.178  54.838  1.00  0.00     0.037 A 
HETATM   14  C   UNL     1       9.770  29.142  56.189  1.00  0.00     0.068 A 
HETATM   15  C   UNL     1       9.055  28.310  57.049  1.00  0.00     0.037 A 
HETATM   16  C   UNL     1       7.963  27.573  56.581  1.00  0.00     0.011 A 
BRANCH  14  17
HETATM   17  O   UNL     1      10.771  29.872  56.770  1.00  0.00    -0.352 OA
BRANCH  17  18
HETATM   18  C   UNL     1      10.605  30.156  58.160  1.00  0.00     0.171 C 
HETATM   19  C   UNL     1      10.168  31.603  58.304  1.00  0.00     0.034 C 
ENDBRANCH  17  18
ENDBRANCH  14  17
ENDBRANCH   1  11
BRANCH   6  20
HETATM   20  S   UNL     1       3.616  30.074  53.768  1.00  0.00    -0.102 SA
BRANCH  20  21
HETATM   21  C   UNL     1       3.260  30.223  51.983  1.00  0.00     0.184 C 
BRANCH  21  22
HETATM   22  C   UNL     1       3.523  31.623  51.421  1.00  0.00     0.231 C 
HETATM   23  N   UNL     1       4.884  31.899  51.342  1.00  0.00    -0.326 N 
HETATM   24  H   UNL     1       5.491  31.088  51.345  1.00  0.00     0.169 HD
HETATM   25  O   UNL     1       2.619  32.379  51.072  1.00  0.00    -0.272 OA
BRANCH  23  26
HETATM   26  C   UNL     1       5.507  33.106  50.936  1.00  0.00     0.040 A 
HETATM   27  C   UNL     1       5.931  33.434  49.637  1.00  0.00    -0.035 A 
HETATM   28  C   UNL     1       5.654  32.611  48.410  1.00  0.00     0.050 C 
HETATM   29  C   UNL     1       6.615  34.652  49.429  1.00  0.00     0.009 A 
HETATM   30  C   UNL     1       6.814  35.562  50.465  1.00  0.00     0.001 A 
HETATM   31  C   UNL     1       6.318  35.278  51.728  1.00  0.00     0.002 A 
HETATM   32  C   UNL     1       5.660  34.067  51.954  1.00  0.00     0.030 A 
ENDBRANCH  23  26
ENDBRANCH  21  22
ENDBRANCH  20  21
ENDBRANCH   6  20
BRANCH   2  33
HETATM   33  C   UNL     1       7.216  25.197  53.305  1.00  0.00     0.255 C 
HETATM   34  N   UNL     1       6.685  24.097  53.949  1.00  0.00    -0.323 N 
HETATM   35  H   UNL     1       5.770  24.213  54.364  1.00  0.00     0.169 HD
HETATM   36  O   UNL     1       8.259  25.266  52.669  1.00  0.00    -0.268 OA
BRANCH  34  37
HETATM   37  C   UNL     1       7.295  22.848  54.171  1.00  0.00     0.035 A 
HETATM   38  C   UNL     1       7.752  22.010  53.155  1.00  0.00     0.029 A 
HETATM   39  C   UNL     1       8.380  20.800  53.467  1.00  0.00     0.002 A 
HETATM   40  C   UNL     1       8.561  20.422  54.796  1.00  0.00     0.000 A 
HETATM   41  C   UNL     1       8.106  21.250  55.817  1.00  0.00     0.002 A 
HETATM   42  C   UNL     1       7.471  22.455  55.506  1.00  0.00     0.029 A 
ENDBRANCH  34  37
ENDBRANCH   2  33
TORSDOF 9
ENDMDL
MODEL 9
REMARK VINA RESULT:      -9.4      1.651      2.499
REMARK  9 active torsions:
REMARK  status: ('A' for Active; 'I' for Inactive)
REMARK    1  A    between atoms: C_2  and  O_3 
REMARK    2  A    between atoms: O_3  and  C_4 
REMARK    3  A    between atoms: C_7  and  C_8 
REMARK    4  A    between atoms: C_9  and  C_10 
REMARK       I    between atoms: C_10  and  N_11 
REMARK    5  A    between atoms: N_11  and  C_12 
REMARK    6  A    between atoms: C_22  and  S_23 
REMARK    7  A    between atoms: S_23  and  C_24 
REMARK    8  A    between atoms: C_24  and  C_25 
REMARK       I    between atoms: C_25  and  N_26 
REMARK    9  A    between atoms: N_26  and  C_27 
ROOT
HETATM    1  C   UNL     1       6.107  26.884  54.653  1.00  0.00     0.104 C 
HETATM    2  C   UNL     1       6.305  26.224  53.287  1.00  0.00     0.046 C 
HETATM    3  C   UNL     1       5.666  26.685  52.187  1.00  0.00     0.019 C 
HETATM    4  C   UNL     1       5.711  26.063  50.814  1.00  0.00     0.069 C 
HETATM    5  N   UNL     1       4.867  27.803  52.300  1.00  0.00    -0.353 N 
HETATM    6  C   UNL     1       4.515  28.424  53.478  1.00  0.00     0.087 C 
HETATM    7  C   UNL     1       5.001  27.951  54.648  1.00  0.00     0.055 C 
HETATM    8  C   UNL     1       4.612  28.579  55.976  1.00  0.00     0.019 C 
HETATM    9  N   UNL     1       4.288  29.101  57.078  1.00  0.00    -0.096 N 
HETATM   10  H   UNL     1       4.553  28.276  51.450  1.00  0.00     0.166 HD
ENDROOT
BRANCH   1  11
HETATM   11  C   UNL     1       7.394  27.555  55.165  1.00  0.00    -0.044 A 
HETATM   12  C   UNL     1       8.151  28.414  54.349  1.00  0.00     0.011 A 
HETATM   13  C   UNL     1       9.214  29.151  54.879  1.00  0.00     0.037 A 
HETATM   14  C   UNL     1       9.507  29.083  56.239  1.00  0.00     0.068 A 
HETATM   15  C   UNL     1       8.797  28.194  57.046  1.00  0.00     0.037 A 
HETATM   16  C   UNL     1       7.752  27.432  56.517  1.00  0.00     0.011 A 
BRANCH  14  17
HETATM   17  O   UNL     1      10.457  29.831  56.877  1.00  0.00    -0.352 OA
BRANCH  17  18
HETATM   18  C   UNL     1      10.197  30.125  58.250  1.00  0.00     0.171 C 
HETATM   19  C   UNL     1      10.123  31.632  58.412  1.00  0.00     0.034 C 
ENDBRANCH  17  18
ENDBRANCH  14  17
ENDBRANCH   1  11
BRANCH   6  20
HETATM   20  S   UNL     1       3.496  29.850  53.409  1.00  0.00    -0.102 SA
BRANCH  20  21
HETATM   21  C   UNL     1       3.754  30.320  51.663  1.00  0.00     0.184 C 
BRANCH  21  22
HETATM   22  C   UNL     1       2.652  29.817  50.725  1.00  0.00     0.231 C 
HETATM   23  N   UNL     1       2.462  30.676  49.647  1.00  0.00    -0.326 N 
HETATM   24  H   UNL     1       3.236  31.298  49.447  1.00  0.00     0.169 HD
HETATM   25  O   UNL     1       2.044  28.768  50.918  1.00  0.00    -0.272 OA
BRANCH  23  26
HETATM   26  C   UNL     1       1.496  30.578  48.614  1.00  0.00     0.040 A 
HETATM   27  C   UNL     1       1.575  29.768  47.468  1.00  0.00    -0.035 A 
HETATM   28  C   UNL     1       2.641  28.739  47.215  1.00  0.00     0.050 C 
HETATM   29  C   UNL     1       0.555  29.861  46.495  1.00  0.00     0.009 A 
HETATM   30  C   UNL     1      -0.556  30.682  46.679  1.00  0.00     0.001 A 
HETATM   31  C   UNL     1      -0.676  31.414  47.850  1.00  0.00     0.002 A 
HETATM   32  C   UNL     1       0.335  31.350  48.811  1.00  0.00     0.030 A 
ENDBRANCH  23  26
ENDBRANCH  21  22
ENDBRANCH  20  21
ENDBRANCH   6  20
BRANCH   2  33
HETATM   33  C   UNL     1       7.212  25.040  53.267  1.00  0.00     0.255 C 
HETATM   34  N   UNL     1       6.654  23.935  53.878  1.00  0.00    -0.323 N 
HETATM   35  H   UNL     1       5.708  24.036  54.221  1.00  0.00     0.169 HD
HETATM   36  O   UNL     1       8.300  25.125  52.713  1.00  0.00    -0.268 OA
BRANCH  34  37
HETATM   37  C   UNL     1       7.269  22.699  54.158  1.00  0.00     0.035 A 
HETATM   38  C   UNL     1       7.696  21.801  53.181  1.00  0.00     0.029 A 
HETATM   39  C   UNL     1       8.330  20.610  53.548  1.00  0.00     0.002 A 
HETATM   40  C   UNL     1       8.549  20.312  54.892  1.00  0.00     0.000 A 
HETATM   41  C   UNL     1       8.125  21.202  55.874  1.00  0.00     0.002 A 
HETATM   42  C   UNL     1       7.483  22.388  55.509  1.00  0.00     0.029 A 
ENDBRANCH  34  37
ENDBRANCH   2  33
TORSDOF 9
ENDMDL
MODEL 10
REMARK VINA RESULT:      -9.3      5.577      9.857
REMARK  9 active torsions:
REMARK  status: ('A' for Active; 'I' for Inactive)
REMARK    1  A    between atoms: C_2  and  O_3 
REMARK    2  A    between atoms: O_3  and  C_4 
REMARK    3  A    between atoms: C_7  and  C_8 
REMARK    4  A    between atoms: C_9  and  C_10 
REMARK       I    between atoms: C_10  and  N_11 
REMARK    5  A    between atoms: N_11  and  C_12 
REMARK    6  A    between atoms: C_22  and  S_23 
REMARK    7  A    between atoms: S_23  and  C_24 
REMARK    8  A    between atoms: C_24  and  C_25 
REMARK       I    between atoms: C_25  and  N_26 
REMARK    9  A    between atoms: N_26  and  C_27 
ROOT
HETATM    1  C   UNL     1       5.337  32.215  57.977  1.00  0.00     0.104 C 
HETATM    2  C   UNL     1       4.128  32.511  57.088  1.00  0.00     0.046 C 
HETATM    3  C   UNL     1       3.573  31.547  56.316  1.00  0.00     0.019 C 
HETATM    4  C   UNL     1       2.444  31.742  55.336  1.00  0.00     0.069 C 
HETATM    5  N   UNL     1       4.081  30.267  56.381  1.00  0.00    -0.353 N 
HETATM    6  C   UNL     1       5.225  29.889  57.047  1.00  0.00     0.087 C 
HETATM    7  C   UNL     1       5.924  30.815  57.742  1.00  0.00     0.055 C 
HETATM    8  C   UNL     1       7.213  30.453  58.463  1.00  0.00     0.019 C 
HETATM    9  N   UNL     1       8.282  30.153  59.061  1.00  0.00    -0.096 N 
HETATM   10  H   UNL     1       3.545  29.499  55.969  1.00  0.00     0.166 HD
ENDROOT
BRANCH   1  11
HETATM   11  C   UNL     1       4.997  32.328  59.474  1.00  0.00    -0.044 A 
HETATM   12  C   UNL     1       5.779  33.103  60.350  1.00  0.00     0.011 A 
HETATM   13  C   UNL     1       5.361  33.338  61.663  1.00  0.00     0.037 A 
HETATM   14  C   UNL     1       4.135  32.850  62.107  1.00  0.00     0.068 A 
HETATM   15  C   UNL     1       3.378  32.037  61.265  1.00  0.00     0.037 A 
HETATM   16  C   UNL     1       3.803  31.773  59.960  1.00  0.00     0.011 A 
BRANCH  14  17
HETATM   17  O   UNL     1       3.587  33.102  63.335  1.00  0.00    -0.352 OA
BRANCH  17  18
HETATM   18  C   UNL     1       4.131  34.220  64.039  1.00  0.00     0.171 C 
HETATM   19  C   UNL     1       4.809  33.710  65.297  1.00  0.00     0.034 C 
ENDBRANCH  17  18
ENDBRANCH  14  17
ENDBRANCH   1  11
BRANCH   6  20
HETATM   20  S   UNL     1       5.697  28.200  57.022  1.00  0.00    -0.102 SA
BRANCH  20  21
HETATM   21  C   UNL     1       6.233  28.061  55.282  1.00  0.00     0.184 C 
BRANCH  21  22
HETATM   22  C   UNL     1       6.094  26.647  54.709  1.00  0.00     0.231 C 
HETATM   23  N   UNL     1       7.214  25.868  54.982  1.00  0.00    -0.326 N 
HETATM   24  H   UNL     1       7.790  26.193  55.749  1.00  0.00     0.169 HD
HETATM   25  O   UNL     1       5.092  26.272  54.106  1.00  0.00    -0.272 OA
BRANCH  23  26
HETATM   26  C   UNL     1       7.476  24.540  54.561  1.00  0.00     0.040 A 
HETATM   27  C   UNL     1       7.749  24.116  53.249  1.00  0.00    -0.035 A 
HETATM   28  C   UNL     1       7.964  25.032  52.077  1.00  0.00     0.050 C 
HETATM   29  C   UNL     1       7.902  22.735  52.996  1.00  0.00     0.009 A 
HETATM   30  C   UNL     1       7.858  21.796  54.025  1.00  0.00     0.001 A 
HETATM   31  C   UNL     1       7.676  22.223  55.331  1.00  0.00     0.002 A 
HETATM   32  C   UNL     1       7.500  23.584  55.594  1.00  0.00     0.030 A 
ENDBRANCH  23  26
ENDBRANCH  21  22
ENDBRANCH  20  21
ENDBRANCH   6  20
BRANCH   2  33
HETATM   33  C   UNL     1       3.637  33.919  57.112  1.00  0.00     0.255 C 
HETATM   34  N   UNL     1       4.644  34.835  56.884  1.00  0.00    -0.323 N 
HETATM   35  H   UNL     1       5.563  34.459  56.689  1.00  0.00     0.169 HD
HETATM   36  O   UNL     1       2.446  34.138  57.286  1.00  0.00    -0.268 OA
BRANCH  34  37
HETATM   37  C   UNL     1       4.571  36.239  56.967  1.00  0.00     0.035 A 
HETATM   38  C   UNL     1       4.703  37.093  55.873  1.00  0.00     0.029 A 
HETATM   39  C   UNL     1       4.581  38.476  56.041  1.00  0.00     0.002 A 
HETATM   40  C   UNL     1       4.322  39.014  57.299  1.00  0.00     0.000 A 
HETATM   41  C   UNL     1       4.192  38.170  58.397  1.00  0.00     0.002 A 
HETATM   42  C   UNL     1       4.321  36.788  58.233  1.00  0.00     0.029 A 
ENDBRANCH  34  37
ENDBRANCH   2  33
TORSDOF 9
ENDMDL
