MODEL 1
REMARK VINA RESULT:      -8.6      0.000      0.000
REMARK  8 active torsions:
REMARK  status: ('A' for Active; 'I' for Inactive)
REMARK    1  A    between atoms: N_2  and  C_5 
REMARK    2  A    between atoms: C_5  and  C_6 
REMARK    3  A    between atoms: C_6  and  S_7 
REMARK    4  A    between atoms: S_7  and  C_8 
REMARK    5  A    between atoms: C_10  and  C_24 
REMARK    6  A    between atoms: C_15  and  C_18 
REMARK    7  A    between atoms: C_30  and  C_34 
REMARK       I    between atoms: C_34  and  N_36 
REMARK    8  A    between atoms: N_36  and  C_37 
ROOT
HETATM    1  C   UNL     1       7.434  28.833  56.492  1.00  0.00     0.108 A 
HETATM    2  N   UNL     1       6.738  29.984  56.432  1.00  0.00    -0.225 NA
HETATM    3  C   UNL     1       5.509  29.928  55.907  1.00  0.00     0.134 A 
HETATM    4  N   UNL     1       4.923  28.789  55.508  1.00  0.00    -0.232 NA
HETATM    5  C   UNL     1       5.630  27.655  55.559  1.00  0.00     0.072 A 
HETATM    6  C   UNL     1       5.043  26.488  55.091  1.00  0.00     0.033 A 
HETATM    7  C   UNL     1       5.727  25.268  55.076  1.00  0.00     0.014 A 
HETATM    8  C   UNL     1       7.037  25.192  55.545  1.00  0.00    -0.022 A 
HETATM    9  C   UNL     1       7.634  26.358  56.036  1.00  0.00     0.029 A 
HETATM   10  C   UNL     1       6.938  27.601  56.044  1.00  0.00     0.029 A 
ENDROOT
BRANCH   3  11
HETATM   11  C   UNL     1       4.717  31.208  55.728  1.00  0.00     0.086 C 
HETATM   12  C   UNL     1       3.226  31.073  56.049  1.00  0.00     0.188 C 
HETATM   13  O   UNL     1       2.914  30.815  57.429  1.00  0.00    -0.350 OA
HETATM   14  C   UNL     1       3.696  31.460  58.349  1.00  0.00     0.075 A 
HETATM   15  C   UNL     1       3.306  31.328  59.683  1.00  0.00     0.038 A 
HETATM   16  C   UNL     1       4.855  32.171  58.024  1.00  0.00    -0.023 A 
HETATM   17  C   UNL     1       4.068  31.902  60.704  1.00  0.00     0.020 A 
HETATM   18  C   UNL     1       5.226  32.621  60.387  1.00  0.00     0.032 A 
HETATM   19  C   UNL     1       5.614  32.753  59.048  1.00  0.00     0.027 A 
HETATM   20  C   UNL     1       5.281  32.335  56.592  1.00  0.00     0.056 C 
BRANCH  18  21
HETATM   21  C   UNL     1       6.100  33.211  61.435  1.00  0.00     0.252 C 
HETATM   22  O   UNL     1       7.261  33.496  61.163  1.00  0.00    -0.268 OA
HETATM   23  N   UNL     1       5.517  33.418  62.670  1.00  0.00    -0.352 N 
HETATM   24  H   UNL     1       4.513  33.338  62.764  1.00  0.00     0.163 HD
BRANCH  23  25
HETATM   25  C   UNL     1       6.242  34.006  63.753  1.00  0.00     0.084 A 
HETATM   26  C   UNL     1       5.958  33.603  65.173  1.00  0.00     0.027 A 
HETATM   27  C   UNL     1       7.247  33.196  64.522  1.00  0.00     0.027 A 
ENDBRANCH  23  25
ENDBRANCH  18  21
ENDBRANCH   3  11
BRANCH   1  28
HETATM   28  S   UNL     1       9.111  29.017  57.114  1.00  0.00    -0.108 SA
BRANCH  28  29
HETATM   29  C   UNL     1       8.917  30.519  58.145  1.00  0.00     0.108 C 
BRANCH  29  30
HETATM   30  C   UNL     1       8.403  30.140  59.536  1.00  0.00     0.244 C 
BRANCH  30  31
HETATM   31  N   UNL     1       8.885  31.115  60.602  1.00  0.00    -0.078 N 
HETATM   32  C   UNL     1       9.209  30.459  61.916  1.00  0.00     0.269 C 
HETATM   33  H   UNL     1       8.089  31.751  60.777  1.00  0.00     0.279 HD
HETATM   34  C   UNL     1      10.021  31.965  60.111  1.00  0.00     0.269 C 
ENDBRANCH  30  31
ENDBRANCH  29  30
ENDBRANCH  28  29
ENDBRANCH   1  28
BRANCH   8  35
HETATM   35  C   UNL     1       7.778  23.943  55.525  1.00  0.00     0.010 A 
HETATM   36  C   UNL     1       8.076  23.027  56.560  1.00  0.00     0.152 A 
HETATM   37  N   UNL     1       8.825  22.003  56.146  1.00  0.00    -0.187 NA
HETATM   38  N   UNL     1       9.000  22.249  54.837  1.00  0.00    -0.289 N 
HETATM   39  H   UNL     1       9.547  21.591  54.291  1.00  0.00     0.188 HD
HETATM   40  C   UNL     1       8.399  23.403  54.419  1.00  0.00     0.123 A 
ENDBRANCH   8  35
TORSDOF 8
ENDMDL
MODEL 2
REMARK VINA RESULT:      -8.6      4.178      6.597
REMARK  8 active torsions:
REMARK  status: ('A' for Active; 'I' for Inactive)
REMARK    1  A    between atoms: N_2  and  C_5 
REMARK    2  A    between atoms: C_5  and  C_6 
REMARK    3  A    between atoms: C_6  and  S_7 
REMARK    4  A    between atoms: S_7  and  C_8 
REMARK    5  A    between atoms: C_10  and  C_24 
REMARK    6  A    between atoms: C_15  and  C_18 
REMARK    7  A    between atoms: C_30  and  C_34 
REMARK       I    between atoms: C_34  and  N_36 
REMARK    8  A    between atoms: N_36  and  C_37 
ROOT
HETATM    1  C   UNL     1       4.421  28.725  53.379  1.00  0.00     0.108 A 
HETATM    2  N   UNL     1       4.698  28.010  54.486  1.00  0.00    -0.225 NA
HETATM    3  C   UNL     1       5.094  26.743  54.311  1.00  0.00     0.134 A 
HETATM    4  N   UNL     1       5.290  26.186  53.107  1.00  0.00    -0.232 NA
HETATM    5  C   UNL     1       4.998  26.902  52.016  1.00  0.00     0.072 A 
HETATM    6  C   UNL     1       5.145  26.304  50.773  1.00  0.00     0.033 A 
HETATM    7  C   UNL     1       4.826  26.971  49.586  1.00  0.00     0.014 A 
HETATM    8  C   UNL     1       4.350  28.280  49.623  1.00  0.00    -0.022 A 
HETATM    9  C   UNL     1       4.214  28.901  50.869  1.00  0.00     0.029 A 
HETATM   10  C   UNL     1       4.532  28.217  52.078  1.00  0.00     0.029 A 
ENDROOT
BRANCH   3  11
HETATM   11  C   UNL     1       5.328  25.863  55.523  1.00  0.00     0.086 C 
HETATM   12  C   UNL     1       6.654  25.097  55.496  1.00  0.00     0.188 C 
HETATM   13  O   UNL     1       7.837  25.911  55.585  1.00  0.00    -0.350 OA
HETATM   14  C   UNL     1       7.756  26.992  56.421  1.00  0.00     0.075 A 
HETATM   15  C   UNL     1       8.943  27.698  56.623  1.00  0.00     0.038 A 
HETATM   16  C   UNL     1       6.569  27.433  57.012  1.00  0.00    -0.023 A 
HETATM   17  C   UNL     1       8.956  28.850  57.415  1.00  0.00     0.020 A 
HETATM   18  C   UNL     1       7.773  29.294  58.015  1.00  0.00     0.032 A 
HETATM   19  C   UNL     1       6.584  28.583  57.812  1.00  0.00     0.027 A 
HETATM   20  C   UNL     1       5.285  26.676  56.817  1.00  0.00     0.056 C 
BRANCH  18  21
HETATM   21  C   UNL     1       7.720  30.538  58.827  1.00  0.00     0.252 C 
HETATM   22  O   UNL     1       7.423  31.599  58.287  1.00  0.00    -0.268 OA
HETATM   23  N   UNL     1       7.997  30.402  60.173  1.00  0.00    -0.352 N 
HETATM   24  H   UNL     1       8.044  29.476  60.578  1.00  0.00     0.163 HD
BRANCH  23  25
HETATM   25  C   UNL     1       7.949  31.517  61.066  1.00  0.00     0.084 A 
HETATM   26  C   UNL     1       8.166  31.327  62.542  1.00  0.00     0.027 A 
HETATM   27  C   UNL     1       9.206  32.023  61.716  1.00  0.00     0.027 A 
ENDBRANCH  23  25
ENDBRANCH  18  21
ENDBRANCH   3  11
BRANCH   1  28
HETATM   28  S   UNL     1       3.798  30.379  53.708  1.00  0.00    -0.108 SA
BRANCH  28  29
HETATM   29  C   UNL     1       3.899  30.411  55.537  1.00  0.00     0.108 C 
BRANCH  29  30
HETATM   30  C   UNL     1       4.759  31.592  55.997  1.00  0.00     0.244 C 
BRANCH  30  31
HETATM   31  N   UNL     1       4.610  31.853  57.489  1.00  0.00    -0.078 N 
HETATM   32  C   UNL     1       4.256  33.278  57.818  1.00  0.00     0.269 C 
HETATM   33  H   UNL     1       5.542  31.679  57.897  1.00  0.00     0.279 HD
HETATM   34  C   UNL     1       3.663  30.883  58.135  1.00  0.00     0.269 C 
ENDBRANCH  30  31
ENDBRANCH  29  30
ENDBRANCH  28  29
ENDBRANCH   1  28
BRANCH   8  35
HETATM   35  C   UNL     1       3.994  28.992  48.409  1.00  0.00     0.010 A 
HETATM   36  C   UNL     1       4.661  30.027  47.714  1.00  0.00     0.152 A 
HETATM   37  N   UNL     1       3.986  30.452  46.644  1.00  0.00    -0.187 NA
HETATM   38  N   UNL     1       2.886  29.681  46.639  1.00  0.00    -0.289 N 
HETATM   39  H   UNL     1       2.204  29.818  45.899  1.00  0.00     0.188 HD
HETATM   40  C   UNL     1       2.841  28.797  47.679  1.00  0.00     0.123 A 
ENDBRANCH   8  35
TORSDOF 8
ENDMDL
MODEL 3
REMARK VINA RESULT:      -8.5      1.417      1.926
REMARK  8 active torsions:
REMARK  status: ('A' for Active; 'I' for Inactive)
REMARK    1  A    between atoms: N_2  and  C_5 
REMARK    2  A    between atoms: C_5  and  C_6 
REMARK    3  A    between atoms: C_6  and  S_7 
REMARK    4  A    between atoms: S_7  and  C_8 
REMARK    5  A    between atoms: C_10  and  C_24 
REMARK    6  A    between atoms: C_15  and  C_18 
REMARK    7  A    between atoms: C_30  and  C_34 
REMARK       I    between atoms: C_34  and  N_36 
REMARK    8  A    between atoms: N_36  and  C_37 
ROOT
HETATM    1  C   UNL     1       6.547  27.920  56.125  1.00  0.00     0.108 A 
HETATM    2  N   UNL     1       5.962  29.133  56.075  1.00  0.00    -0.225 NA
HETATM    3  C   UNL     1       5.044  29.328  55.120  1.00  0.00     0.134 A 
HETATM    4  N   UNL     1       4.638  28.371  54.273  1.00  0.00    -0.232 NA
HETATM    5  C   UNL     1       5.236  27.176  54.324  1.00  0.00     0.072 A 
HETATM    6  C   UNL     1       4.856  26.206  53.408  1.00  0.00     0.033 A 
HETATM    7  C   UNL     1       5.458  24.944  53.371  1.00  0.00     0.014 A 
HETATM    8  C   UNL     1       6.469  24.622  54.275  1.00  0.00    -0.022 A 
HETATM    9  C   UNL     1       6.849  25.585  55.215  1.00  0.00     0.029 A 
HETATM   10  C   UNL     1       6.240  26.873  55.246  1.00  0.00     0.029 A 
ENDROOT
BRANCH   3  11
HETATM   11  C   UNL     1       4.423  30.701  54.956  1.00  0.00     0.086 C 
HETATM   12  C   UNL     1       2.961  30.786  55.406  1.00  0.00     0.188 C 
HETATM   13  O   UNL     1       2.739  30.613  56.816  1.00  0.00    -0.350 OA
HETATM   14  C   UNL     1       3.680  31.167  57.641  1.00  0.00     0.075 A 
HETATM   15  C   UNL     1       3.394  31.129  59.007  1.00  0.00     0.038 A 
HETATM   16  C   UNL     1       4.892  31.699  57.193  1.00  0.00    -0.023 A 
HETATM   17  C   UNL     1       4.315  31.620  59.937  1.00  0.00     0.020 A 
HETATM   18  C   UNL     1       5.528  32.160  59.496  1.00  0.00     0.032 A 
HETATM   19  C   UNL     1       5.811  32.198  58.126  1.00  0.00     0.027 A 
HETATM   20  C   UNL     1       5.210  31.762  55.725  1.00  0.00     0.056 C 
BRANCH  18  21
HETATM   21  C   UNL     1       6.563  32.650  60.444  1.00  0.00     0.252 C 
HETATM   22  O   UNL     1       7.714  32.810  60.052  1.00  0.00    -0.268 OA
HETATM   23  N   UNL     1       6.136  32.918  61.730  1.00  0.00    -0.352 N 
HETATM   24  H   UNL     1       5.144  32.946  61.927  1.00  0.00     0.163 HD
BRANCH  23  25
HETATM   25  C   UNL     1       7.027  33.423  62.727  1.00  0.00     0.084 A 
HETATM   26  C   UNL     1       6.848  33.052  64.173  1.00  0.00     0.027 A 
HETATM   27  C   UNL     1       8.011  32.508  63.399  1.00  0.00     0.027 A 
ENDBRANCH  23  25
ENDBRANCH  18  21
ENDBRANCH   3  11
BRANCH   1  28
HETATM   28  S   UNL     1       7.839  27.777  57.367  1.00  0.00    -0.108 SA
BRANCH  28  29
HETATM   29  C   UNL     1       7.754  29.443  58.124  1.00  0.00     0.108 C 
BRANCH  29  30
HETATM   30  C   UNL     1       8.965  30.278  57.699  1.00  0.00     0.244 C 
BRANCH  30  31
HETATM   31  N   UNL     1       9.975  29.451  56.916  1.00  0.00    -0.078 N 
HETATM   32  C   UNL     1       9.788  29.524  55.425  1.00  0.00     0.269 C 
HETATM   33  H   UNL     1       9.801  28.469  57.188  1.00  0.00     0.279 HD
HETATM   34  C   UNL     1      11.388  29.769  57.315  1.00  0.00     0.269 C 
ENDBRANCH  30  31
ENDBRANCH  29  30
ENDBRANCH  28  29
ENDBRANCH   1  28
BRANCH   8  35
HETATM   35  C   UNL     1       7.124  23.326  54.249  1.00  0.00     0.010 A 
HETATM   36  C   UNL     1       7.454  22.435  55.295  1.00  0.00     0.152 A 
HETATM   37  N   UNL     1       8.096  21.346  54.866  1.00  0.00    -0.187 NA
HETATM   38  N   UNL     1       8.169  21.527  53.537  1.00  0.00    -0.289 N 
HETATM   39  H   UNL     1       8.622  20.812  52.977  1.00  0.00     0.188 HD
HETATM   40  C   UNL     1       7.609  22.701  53.119  1.00  0.00     0.123 A 
ENDBRANCH   8  35
TORSDOF 8
ENDMDL
MODEL 4
REMARK VINA RESULT:      -8.3      3.712      9.233
REMARK  8 active torsions:
REMARK  status: ('A' for Active; 'I' for Inactive)
REMARK    1  A    between atoms: N_2  and  C_5 
REMARK    2  A    between atoms: C_5  and  C_6 
REMARK    3  A    between atoms: C_6  and  S_7 
REMARK    4  A    between atoms: S_7  and  C_8 
REMARK    5  A    between atoms: C_10  and  C_24 
REMARK    6  A    between atoms: C_15  and  C_18 
REMARK    7  A    between atoms: C_30  and  C_34 
REMARK       I    between atoms: C_34  and  N_36 
REMARK    8  A    between atoms: N_36  and  C_37 
ROOT
HETATM    1  C   UNL     1       4.980  30.055  55.328  1.00  0.00     0.108 A 
HETATM    2  N   UNL     1       4.317  29.298  54.433  1.00  0.00    -0.225 NA
HETATM    3  C   UNL     1       4.666  28.009  54.344  1.00  0.00     0.134 A 
HETATM    4  N   UNL     1       5.580  27.431  55.139  1.00  0.00    -0.232 NA
HETATM    5  C   UNL     1       6.241  28.196  56.014  1.00  0.00     0.072 A 
HETATM    6  C   UNL     1       7.226  27.609  56.793  1.00  0.00     0.033 A 
HETATM    7  C   UNL     1       7.989  28.345  57.706  1.00  0.00     0.014 A 
HETATM    8  C   UNL     1       7.768  29.713  57.862  1.00  0.00    -0.022 A 
HETATM    9  C   UNL     1       6.764  30.314  57.095  1.00  0.00     0.029 A 
HETATM   10  C   UNL     1       5.994  29.563  56.160  1.00  0.00     0.029 A 
ENDROOT
BRANCH   3  11
HETATM   11  C   UNL     1       4.020  27.134  53.289  1.00  0.00     0.086 C 
HETATM   12  C   UNL     1       4.476  27.437  51.858  1.00  0.00     0.188 C 
HETATM   13  O   UNL     1       5.855  27.139  51.575  1.00  0.00    -0.350 OA
HETATM   14  C   UNL     1       6.355  26.010  52.166  1.00  0.00     0.075 A 
HETATM   15  C   UNL     1       7.644  25.638  51.779  1.00  0.00     0.038 A 
HETATM   16  C   UNL     1       5.676  25.276  53.142  1.00  0.00    -0.023 A 
HETATM   17  C   UNL     1       8.267  24.532  52.363  1.00  0.00     0.020 A 
HETATM   18  C   UNL     1       7.592  23.787  53.337  1.00  0.00     0.032 A 
HETATM   19  C   UNL     1       6.299  24.162  53.721  1.00  0.00     0.027 A 
HETATM   20  C   UNL     1       4.282  25.653  53.559  1.00  0.00     0.056 C 
BRANCH  18  21
HETATM   21  C   UNL     1       8.225  22.632  54.025  1.00  0.00     0.252 C 
HETATM   22  O   UNL     1       8.768  21.756  53.360  1.00  0.00    -0.268 OA
HETATM   23  N   UNL     1       8.172  22.640  55.406  1.00  0.00    -0.352 N 
HETATM   24  H   UNL     1       7.881  23.482  55.885  1.00  0.00     0.163 HD
BRANCH  23  25
HETATM   25  C   UNL     1       8.770  21.602  56.185  1.00  0.00     0.084 A 
HETATM   26  C   UNL     1       8.218  21.246  57.538  1.00  0.00     0.027 A 
HETATM   27  C   UNL     1       8.054  20.297  56.388  1.00  0.00     0.027 A 
ENDBRANCH  23  25
ENDBRANCH  18  21
ENDBRANCH   3  11
BRANCH   1  28
HETATM   28  S   UNL     1       4.521  31.793  55.307  1.00  0.00    -0.108 SA
BRANCH  28  29
HETATM   29  C   UNL     1       2.869  31.688  54.523  1.00  0.00     0.108 C 
BRANCH  29  30
HETATM   30  C   UNL     1       2.863  32.461  53.201  1.00  0.00     0.244 C 
BRANCH  30  31
HETATM   31  N   UNL     1       2.248  31.645  52.072  1.00  0.00    -0.078 N 
HETATM   32  C   UNL     1       1.321  32.439  51.192  1.00  0.00     0.269 C 
HETATM   33  H   UNL     1       1.672  30.923  52.532  1.00  0.00     0.279 HD
HETATM   34  C   UNL     1       3.292  30.923  51.269  1.00  0.00     0.269 C 
ENDBRANCH  30  31
ENDBRANCH  29  30
ENDBRANCH  28  29
ENDBRANCH   1  28
BRANCH   8  35
HETATM   35  C   UNL     1       8.555  30.507  58.788  1.00  0.00     0.010 A 
HETATM   36  C   UNL     1       9.533  31.501  58.556  1.00  0.00     0.152 A 
HETATM   37  N   UNL     1      10.067  31.977  59.683  1.00  0.00    -0.187 NA
HETATM   38  N   UNL     1       9.423  31.300  60.647  1.00  0.00    -0.289 N 
HETATM   39  H   UNL     1       9.659  31.495  61.615  1.00  0.00     0.188 HD
HETATM   40  C   UNL     1       8.514  30.402  60.162  1.00  0.00     0.123 A 
ENDBRANCH   8  35
TORSDOF 8
ENDMDL
MODEL 5
REMARK VINA RESULT:      -8.1      5.119      9.338
REMARK  8 active torsions:
REMARK  status: ('A' for Active; 'I' for Inactive)
REMARK    1  A    between atoms: N_2  and  C_5 
REMARK    2  A    between atoms: C_5  and  C_6 
REMARK    3  A    between atoms: C_6  and  S_7 
REMARK    4  A    between atoms: S_7  and  C_8 
REMARK    5  A    between atoms: C_10  and  C_24 
REMARK    6  A    between atoms: C_15  and  C_18 
REMARK    7  A    between atoms: C_30  and  C_34 
REMARK       I    between atoms: C_34  and  N_36 
REMARK    8  A    between atoms: N_36  and  C_37 
ROOT
HETATM    1  C   UNL     1       3.915  29.836  52.273  1.00  0.00     0.108 A 
HETATM    2  N   UNL     1       4.479  30.151  53.455  1.00  0.00    -0.225 NA
HETATM    3  C   UNL     1       5.381  29.294  53.948  1.00  0.00     0.134 A 
HETATM    4  N   UNL     1       5.791  28.193  53.301  1.00  0.00    -0.232 NA
HETATM    5  C   UNL     1       5.213  27.884  52.136  1.00  0.00     0.072 A 
HETATM    6  C   UNL     1       5.596  26.714  51.498  1.00  0.00     0.033 A 
HETATM    7  C   UNL     1       5.015  26.300  50.295  1.00  0.00     0.014 A 
HETATM    8  C   UNL     1       4.021  27.071  49.694  1.00  0.00    -0.022 A 
HETATM    9  C   UNL     1       3.638  28.262  50.319  1.00  0.00     0.029 A 
HETATM   10  C   UNL     1       4.226  28.678  51.548  1.00  0.00     0.029 A 
ENDROOT
BRANCH   3  11
HETATM   11  C   UNL     1       5.977  29.550  55.318  1.00  0.00     0.086 C 
HETATM   12  C   UNL     1       4.992  29.363  56.476  1.00  0.00     0.188 C 
HETATM   13  O   UNL     1       4.535  28.016  56.685  1.00  0.00    -0.350 OA
HETATM   14  C   UNL     1       5.468  27.033  56.493  1.00  0.00     0.075 A 
HETATM   15  C   UNL     1       5.071  25.739  56.835  1.00  0.00     0.038 A 
HETATM   16  C   UNL     1       6.731  27.255  55.938  1.00  0.00    -0.023 A 
HETATM   17  C   UNL     1       5.930  24.656  56.626  1.00  0.00     0.020 A 
HETATM   18  C   UNL     1       7.199  24.871  56.077  1.00  0.00     0.032 A 
HETATM   19  C   UNL     1       7.594  26.170  55.736  1.00  0.00     0.027 A 
HETATM   20  C   UNL     1       7.180  28.644  55.578  1.00  0.00     0.056 C 
BRANCH  18  21
HETATM   21  C   UNL     1       8.133  23.751  55.788  1.00  0.00     0.252 C 
HETATM   22  O   UNL     1       9.136  23.607  56.479  1.00  0.00    -0.268 OA
HETATM   23  N   UNL     1       7.782  22.918  54.743  1.00  0.00    -0.352 N 
HETATM   24  H   UNL     1       6.854  22.983  54.348  1.00  0.00     0.163 HD
BRANCH  23  25
HETATM   25  C   UNL     1       8.581  21.788  54.385  1.00  0.00     0.084 A 
HETATM   26  C   UNL     1       8.030  20.393  54.502  1.00  0.00     0.027 A 
HETATM   27  C   UNL     1       8.263  20.996  53.148  1.00  0.00     0.027 A 
ENDBRANCH  23  25
ENDBRANCH  18  21
ENDBRANCH   3  11
BRANCH   1  28
HETATM   28  S   UNL     1       2.642  30.986  51.735  1.00  0.00    -0.108 SA
BRANCH  28  29
HETATM   29  C   UNL     1       3.635  32.110  50.684  1.00  0.00     0.108 C 
BRANCH  29  30
HETATM   30  C   UNL     1       3.432  31.765  49.206  1.00  0.00     0.244 C 
BRANCH  30  31
HETATM   31  N   UNL     1       4.724  31.293  48.552  1.00  0.00    -0.078 N 
HETATM   32  C   UNL     1       4.547  30.840  47.128  1.00  0.00     0.269 C 
HETATM   33  H   UNL     1       5.021  30.464  49.091  1.00  0.00     0.279 HD
HETATM   34  C   UNL     1       5.820  32.312  48.678  1.00  0.00     0.269 C 
ENDBRANCH  30  31
ENDBRANCH  29  30
ENDBRANCH  28  29
ENDBRANCH   1  28
BRANCH   8  35
HETATM   35  C   UNL     1       3.387  26.657  48.455  1.00  0.00     0.010 A 
HETATM   36  C   UNL     1       3.506  25.463  47.708  1.00  0.00     0.152 A 
HETATM   37  N   UNL     1       2.781  25.478  46.587  1.00  0.00    -0.187 NA
HETATM   38  N   UNL     1       2.180  26.678  46.616  1.00  0.00    -0.289 N 
HETATM   39  H   UNL     1       1.558  26.926  45.853  1.00  0.00     0.188 HD
HETATM   40  C   UNL     1       2.517  27.425  47.710  1.00  0.00     0.123 A 
ENDBRANCH   8  35
TORSDOF 8
ENDMDL
MODEL 6
REMARK VINA RESULT:      -8.1      3.136      8.882
REMARK  8 active torsions:
REMARK  status: ('A' for Active; 'I' for Inactive)
REMARK    1  A    between atoms: N_2  and  C_5 
REMARK    2  A    between atoms: C_5  and  C_6 
REMARK    3  A    between atoms: C_6  and  S_7 
REMARK    4  A    between atoms: S_7  and  C_8 
REMARK    5  A    between atoms: C_10  and  C_24 
REMARK    6  A    between atoms: C_15  and  C_18 
REMARK    7  A    between atoms: C_30  and  C_34 
REMARK       I    between atoms: C_34  and  N_36 
REMARK    8  A    between atoms: N_36  and  C_37 
ROOT
HETATM    1  C   UNL     1       5.791  28.075  56.207  1.00  0.00     0.108 A 
HETATM    2  N   UNL     1       5.391  27.396  55.115  1.00  0.00    -0.225 NA
HETATM    3  C   UNL     1       4.493  27.991  54.321  1.00  0.00     0.134 A 
HETATM    4  N   UNL     1       4.035  29.236  54.521  1.00  0.00    -0.232 NA
HETATM    5  C   UNL     1       4.429  29.894  55.616  1.00  0.00     0.072 A 
HETATM    6  C   UNL     1       3.908  31.158  55.852  1.00  0.00     0.033 A 
HETATM    7  C   UNL     1       4.241  31.897  56.992  1.00  0.00     0.014 A 
HETATM    8  C   UNL     1       5.126  31.374  57.934  1.00  0.00    -0.022 A 
HETATM    9  C   UNL     1       5.671  30.108  57.699  1.00  0.00     0.029 A 
HETATM   10  C   UNL     1       5.325  29.354  56.541  1.00  0.00     0.029 A 
ENDROOT
BRANCH   3  11
HETATM   11  C   UNL     1       3.936  27.236  53.132  1.00  0.00     0.086 C 
HETATM   12  C   UNL     1       4.532  27.658  51.785  1.00  0.00     0.188 C 
HETATM   13  O   UNL     1       5.925  27.353  51.605  1.00  0.00    -0.350 OA
HETATM   14  C   UNL     1       6.347  26.161  52.129  1.00  0.00     0.075 A 
HETATM   15  C   UNL     1       7.661  25.793  51.831  1.00  0.00     0.038 A 
HETATM   16  C   UNL     1       5.566  25.356  52.963  1.00  0.00    -0.023 A 
HETATM   17  C   UNL     1       8.207  24.621  52.362  1.00  0.00     0.020 A 
HETATM   18  C   UNL     1       7.429  23.807  53.193  1.00  0.00     0.032 A 
HETATM   19  C   UNL     1       6.111  24.177  53.489  1.00  0.00     0.027 A 
HETATM   20  C   UNL     1       4.146  25.729  53.282  1.00  0.00     0.056 C 
BRANCH  18  21
HETATM   21  C   UNL     1       7.974  22.576  53.824  1.00  0.00     0.252 C 
HETATM   22  O   UNL     1       8.273  21.617  53.120  1.00  0.00    -0.268 OA
HETATM   23  N   UNL     1       8.126  22.610  55.197  1.00  0.00    -0.352 N 
HETATM   24  H   UNL     1       8.040  23.493  55.683  1.00  0.00     0.163 HD
BRANCH  23  25
HETATM   25  C   UNL     1       8.668  21.502  55.919  1.00  0.00     0.084 A 
HETATM   26  C   UNL     1       8.282  21.260  57.352  1.00  0.00     0.027 A 
HETATM   27  C   UNL     1       7.797  20.332  56.279  1.00  0.00     0.027 A 
ENDBRANCH  23  25
ENDBRANCH  18  21
ENDBRANCH   3  11
BRANCH   1  28
HETATM   28  S   UNL     1       6.916  27.161  57.271  1.00  0.00    -0.108 SA
BRANCH  28  29
HETATM   29  C   UNL     1       8.498  27.996  56.873  1.00  0.00     0.108 C 
BRANCH  29  30
HETATM   30  C   UNL     1       8.779  29.104  57.892  1.00  0.00     0.244 C 
BRANCH  30  31
HETATM   31  N   UNL     1       9.729  30.156  57.336  1.00  0.00    -0.078 N 
HETATM   32  C   UNL     1       9.995  31.290  58.288  1.00  0.00     0.269 C 
HETATM   33  H   UNL     1       9.247  30.563  56.519  1.00  0.00     0.279 HD
HETATM   34  C   UNL     1      11.005  29.546  56.830  1.00  0.00     0.269 C 
ENDBRANCH  30  31
ENDBRANCH  29  30
ENDBRANCH  28  29
ENDBRANCH   1  28
BRANCH   8  35
HETATM   35  C   UNL     1       5.476  32.111  59.135  1.00  0.00     0.010 A 
HETATM   36  C   UNL     1       6.691  32.185  59.854  1.00  0.00     0.152 A 
HETATM   37  N   UNL     1       6.603  32.950  60.944  1.00  0.00    -0.187 NA
HETATM   38  N   UNL     1       5.331  33.382  60.923  1.00  0.00    -0.289 N 
HETATM   39  H   UNL     1       5.018  33.998  61.668  1.00  0.00     0.188 HD
HETATM   40  C   UNL     1       4.614  32.902  59.865  1.00  0.00     0.123 A 
ENDBRANCH   8  35
TORSDOF 8
ENDMDL
MODEL 7
REMARK VINA RESULT:      -8.0      4.145      7.541
REMARK  8 active torsions:
REMARK  status: ('A' for Active; 'I' for Inactive)
REMARK    1  A    between atoms: N_2  and  C_5 
REMARK    2  A    between atoms: C_5  and  C_6 
REMARK    3  A    between atoms: C_6  and  S_7 
REMARK    4  A    between atoms: S_7  and  C_8 
REMARK    5  A    between atoms: C_10  and  C_24 
REMARK    6  A    between atoms: C_15  and  C_18 
REMARK    7  A    between atoms: C_30  and  C_34 
REMARK       I    between atoms: C_34  and  N_36 
REMARK    8  A    between atoms: N_36  and  C_37 
ROOT
HETATM    1  C   UNL     1       5.071  32.756  59.835  1.00  0.00     0.108 A 
HETATM    2  N   UNL     1       4.300  33.271  60.810  1.00  0.00    -0.225 NA
HETATM    3  C   UNL     1       4.826  33.327  62.040  1.00  0.00     0.134 A 
HETATM    4  N   UNL     1       6.086  32.965  62.325  1.00  0.00    -0.232 NA
HETATM    5  C   UNL     1       6.836  32.441  61.351  1.00  0.00     0.072 A 
HETATM    6  C   UNL     1       8.118  32.012  61.662  1.00  0.00     0.033 A 
HETATM    7  C   UNL     1       8.955  31.420  60.710  1.00  0.00     0.014 A 
HETATM    8  C   UNL     1       8.514  31.249  59.398  1.00  0.00    -0.022 A 
HETATM    9  C   UNL     1       7.229  31.694  59.068  1.00  0.00     0.029 A 
HETATM   10  C   UNL     1       6.377  32.290  60.041  1.00  0.00     0.029 A 
ENDROOT
BRANCH   3  11
HETATM   11  C   UNL     1       3.970  33.810  63.194  1.00  0.00     0.086 C 
HETATM   12  C   UNL     1       4.760  34.147  64.462  1.00  0.00     0.188 C 
HETATM   13  O   UNL     1       5.642  35.278  64.356  1.00  0.00    -0.350 OA
HETATM   14  C   UNL     1       5.178  36.328  63.610  1.00  0.00     0.075 A 
HETATM   15  C   UNL     1       5.964  37.482  63.625  1.00  0.00     0.038 A 
HETATM   16  C   UNL     1       4.026  36.275  62.822  1.00  0.00    -0.023 A 
HETATM   17  C   UNL     1       5.608  38.592  62.853  1.00  0.00     0.020 A 
HETATM   18  C   UNL     1       4.452  38.549  62.066  1.00  0.00     0.032 A 
HETATM   19  C   UNL     1       3.665  37.390  62.054  1.00  0.00     0.027 A 
HETATM   20  C   UNL     1       3.160  35.046  62.806  1.00  0.00     0.056 C 
BRANCH  18  21
HETATM   21  C   UNL     1       4.053  39.681  61.189  1.00  0.00     0.252 C 
HETATM   22  O   UNL     1       4.918  40.367  60.657  1.00  0.00    -0.268 OA
HETATM   23  N   UNL     1       2.695  39.870  61.016  1.00  0.00    -0.352 N 
HETATM   24  H   UNL     1       2.052  39.154  61.327  1.00  0.00     0.163 HD
BRANCH  23  25
HETATM   25  C   UNL     1       2.183  40.904  60.173  1.00  0.00     0.084 A 
HETATM   26  C   UNL     1       1.455  40.567  58.901  1.00  0.00     0.027 A 
HETATM   27  C   UNL     1       0.702  41.135  60.068  1.00  0.00     0.027 A 
ENDBRANCH  23  25
ENDBRANCH  18  21
ENDBRANCH   3  11
BRANCH   1  28
HETATM   28  S   UNL     1       4.251  32.622  58.241  1.00  0.00    -0.108 SA
BRANCH  28  29
HETATM   29  C   UNL     1       3.717  30.871  58.290  1.00  0.00     0.108 C 
BRANCH  29  30
HETATM   30  C   UNL     1       3.421  30.369  56.874  1.00  0.00     0.244 C 
BRANCH  30  31
HETATM   31  N   UNL     1       4.018  28.991  56.626  1.00  0.00    -0.078 N 
HETATM   32  C   UNL     1       4.085  28.617  55.170  1.00  0.00     0.269 C 
HETATM   33  H   UNL     1       3.370  28.323  57.073  1.00  0.00     0.279 HD
HETATM   34  C   UNL     1       5.348  28.826  57.303  1.00  0.00     0.269 C 
ENDBRANCH  30  31
ENDBRANCH  29  30
ENDBRANCH  28  29
ENDBRANCH   1  28
BRANCH   8  35
HETATM   35  C   UNL     1       9.353  30.622  58.393  1.00  0.00     0.010 A 
HETATM   36  C   UNL     1      10.591  31.022  57.840  1.00  0.00     0.152 A 
HETATM   37  N   UNL     1      11.033  30.186  56.898  1.00  0.00    -0.187 NA
HETATM   38  N   UNL     1      10.085  29.236  56.851  1.00  0.00    -0.289 N 
HETATM   39  H   UNL     1      10.202  28.469  56.195  1.00  0.00     0.188 HD
HETATM   40  C   UNL     1       9.054  29.456  57.720  1.00  0.00     0.123 A 
ENDBRANCH   8  35
TORSDOF 8
ENDMDL
MODEL 8
REMARK VINA RESULT:      -7.9      3.864      8.263
REMARK  8 active torsions:
REMARK  status: ('A' for Active; 'I' for Inactive)
REMARK    1  A    between atoms: N_2  and  C_5 
REMARK    2  A    between atoms: C_5  and  C_6 
REMARK    3  A    between atoms: C_6  and  S_7 
REMARK    4  A    between atoms: S_7  and  C_8 
REMARK    5  A    between atoms: C_10  and  C_24 
REMARK    6  A    between atoms: C_15  and  C_18 
REMARK    7  A    between atoms: C_30  and  C_34 
REMARK       I    between atoms: C_34  and  N_36 
REMARK    8  A    between atoms: N_36  and  C_37 
ROOT
HETATM    1  C   UNL     1       4.588  29.330  53.317  1.00  0.00     0.108 A 
HETATM    2  N   UNL     1       5.201  28.309  53.945  1.00  0.00    -0.225 NA
HETATM    3  C   UNL     1       5.069  28.242  55.275  1.00  0.00     0.134 A 
HETATM    4  N   UNL     1       4.312  29.089  55.990  1.00  0.00    -0.232 NA
HETATM    5  C   UNL     1       3.721  30.107  55.356  1.00  0.00     0.072 A 
HETATM    6  C   UNL     1       2.988  31.016  56.105  1.00  0.00     0.033 A 
HETATM    7  C   UNL     1       2.369  32.128  55.525  1.00  0.00     0.014 A 
HETATM    8  C   UNL     1       2.470  32.351  54.153  1.00  0.00    -0.022 A 
HETATM    9  C   UNL     1       3.192  31.432  53.384  1.00  0.00     0.029 A 
HETATM   10  C   UNL     1       3.828  30.304  53.978  1.00  0.00     0.029 A 
ENDROOT
BRANCH   3  11
HETATM   11  C   UNL     1       5.814  27.170  56.044  1.00  0.00     0.086 C 
HETATM   12  C   UNL     1       7.051  26.625  55.322  1.00  0.00     0.188 C 
HETATM   13  O   UNL     1       8.128  27.562  55.153  1.00  0.00    -0.350 OA
HETATM   14  C   UNL     1       8.342  28.420  56.197  1.00  0.00     0.075 A 
HETATM   15  C   UNL     1       9.475  29.231  56.100  1.00  0.00     0.038 A 
HETATM   16  C   UNL     1       7.477  28.552  57.287  1.00  0.00    -0.023 A 
HETATM   17  C   UNL     1       9.753  30.180  57.088  1.00  0.00     0.020 A 
HETATM   18  C   UNL     1       8.895  30.314  58.185  1.00  0.00     0.032 A 
HETATM   19  C   UNL     1       7.761  29.499  58.280  1.00  0.00     0.027 A 
HETATM   20  C   UNL     1       6.261  27.678  57.415  1.00  0.00     0.056 C 
BRANCH  18  21
HETATM   21  C   UNL     1       9.117  31.339  59.239  1.00  0.00     0.252 C 
HETATM   22  O   UNL     1       9.724  32.368  58.962  1.00  0.00    -0.268 OA
HETATM   23  N   UNL     1       8.590  31.058  60.484  1.00  0.00    -0.352 N 
HETATM   24  H   UNL     1       7.943  30.288  60.586  1.00  0.00     0.163 HD
BRANCH  23  25
HETATM   25  C   UNL     1       8.708  31.976  61.573  1.00  0.00     0.084 A 
HETATM   26  C   UNL     1       7.515  32.758  62.049  1.00  0.00     0.027 A 
HETATM   27  C   UNL     1       8.082  31.662  62.902  1.00  0.00     0.027 A 
ENDBRANCH  23  25
ENDBRANCH  18  21
ENDBRANCH   3  11
BRANCH   1  28
HETATM   28  S   UNL     1       4.903  29.403  51.549  1.00  0.00    -0.108 SA
BRANCH  28  29
HETATM   29  C   UNL     1       4.633  27.649  51.093  1.00  0.00     0.108 C 
BRANCH  29  30
HETATM   30  C   UNL     1       4.519  27.511  49.572  1.00  0.00     0.244 C 
BRANCH  30  31
HETATM   31  N   UNL     1       3.169  26.943  49.155  1.00  0.00    -0.078 N 
HETATM   32  C   UNL     1       2.279  27.946  48.473  1.00  0.00     0.269 C 
HETATM   33  H   UNL     1       2.696  26.677  50.034  1.00  0.00     0.279 HD
HETATM   34  C   UNL     1       3.316  25.689  48.344  1.00  0.00     0.269 C 
ENDBRANCH  30  31
ENDBRANCH  29  30
ENDBRANCH  28  29
ENDBRANCH   1  28
BRANCH   8  35
HETATM   35  C   UNL     1       1.853  33.506  53.526  1.00  0.00     0.010 A 
HETATM   36  C   UNL     1       0.536  33.709  53.053  1.00  0.00     0.152 A 
HETATM   37  N   UNL     1       0.364  34.910  52.496  1.00  0.00    -0.187 NA
HETATM   38  N   UNL     1       1.569  35.490  52.621  1.00  0.00    -0.289 N 
HETATM   39  H   UNL     1       1.689  36.434  52.266  1.00  0.00     0.188 HD
HETATM   40  C   UNL     1       2.496  34.688  53.224  1.00  0.00     0.123 A 
ENDBRANCH   8  35
TORSDOF 8
ENDMDL
MODEL 9
REMARK VINA RESULT:      -7.7      6.191     10.492
REMARK  8 active torsions:
REMARK  status: ('A' for Active; 'I' for Inactive)
REMARK    1  A    between atoms: N_2  and  C_5 
REMARK    2  A    between atoms: C_5  and  C_6 
REMARK    3  A    between atoms: C_6  and  S_7 
REMARK    4  A    between atoms: S_7  and  C_8 
REMARK    5  A    between atoms: C_10  and  C_24 
REMARK    6  A    between atoms: C_15  and  C_18 
REMARK    7  A    between atoms: C_30  and  C_34 
REMARK       I    between atoms: C_34  and  N_36 
REMARK    8  A    between atoms: N_36  and  C_37 
ROOT
HETATM    1  C   UNL     1       5.148  26.143  52.444  1.00  0.00     0.108 A 
HETATM    2  N   UNL     1       5.143  25.787  51.145  1.00  0.00    -0.225 NA
HETATM    3  C   UNL     1       4.726  26.702  50.262  1.00  0.00     0.134 A 
HETATM    4  N   UNL     1       4.387  27.956  50.597  1.00  0.00    -0.232 NA
HETATM    5  C   UNL     1       4.382  28.293  51.891  1.00  0.00     0.072 A 
HETATM    6  C   UNL     1       3.973  29.572  52.240  1.00  0.00     0.033 A 
HETATM    7  C   UNL     1       3.905  29.992  53.572  1.00  0.00     0.014 A 
HETATM    8  C   UNL     1       4.259  29.121  54.602  1.00  0.00    -0.022 A 
HETATM    9  C   UNL     1       4.690  27.834  54.261  1.00  0.00     0.029 A 
HETATM   10  C   UNL     1       4.751  27.406  52.904  1.00  0.00     0.029 A 
ENDROOT
BRANCH   3  11
HETATM   11  C   UNL     1       4.610  26.325  48.799  1.00  0.00     0.086 C 
HETATM   12  C   UNL     1       3.186  25.977  48.352  1.00  0.00     0.188 C 
HETATM   13  O   UNL     1       2.250  27.069  48.372  1.00  0.00    -0.350 OA
HETATM   14  C   UNL     1       2.746  28.287  47.990  1.00  0.00     0.075 A 
HETATM   15  C   UNL     1       1.810  29.316  47.867  1.00  0.00     0.038 A 
HETATM   16  C   UNL     1       4.103  28.544  47.781  1.00  0.00    -0.023 A 
HETATM   17  C   UNL     1       2.220  30.610  47.536  1.00  0.00     0.020 A 
HETATM   18  C   UNL     1       3.577  30.875  47.318  1.00  0.00     0.032 A 
HETATM   19  C   UNL     1       4.513  29.841  47.441  1.00  0.00     0.027 A 
HETATM   20  C   UNL     1       5.122  27.445  47.894  1.00  0.00     0.056 C 
BRANCH  18  21
HETATM   21  C   UNL     1       4.074  32.242  47.011  1.00  0.00     0.252 C 
HETATM   22  O   UNL     1       3.274  33.123  46.713  1.00  0.00    -0.268 OA
HETATM   23  N   UNL     1       5.439  32.431  47.107  1.00  0.00    -0.352 N 
HETATM   24  H   UNL     1       6.009  31.717  47.541  1.00  0.00     0.163 HD
BRANCH  23  25
HETATM   25  C   UNL     1       6.038  33.707  46.867  1.00  0.00     0.084 A 
HETATM   26  C   UNL     1       7.386  34.041  47.444  1.00  0.00     0.027 A 
HETATM   27  C   UNL     1       7.236  33.825  45.968  1.00  0.00     0.027 A 
ENDBRANCH  23  25
ENDBRANCH  18  21
ENDBRANCH   3  11
BRANCH   1  28
HETATM   28  S   UNL     1       5.621  24.823  53.568  1.00  0.00    -0.108 SA
BRANCH  28  29
HETATM   29  C   UNL     1       7.445  24.897  53.416  1.00  0.00     0.108 C 
BRANCH  29  30
HETATM   30  C   UNL     1       7.986  23.561  52.899  1.00  0.00     0.244 C 
BRANCH  30  31
HETATM   31  N   UNL     1       7.654  22.414  53.843  1.00  0.00    -0.078 N 
HETATM   32  C   UNL     1       7.986  21.058  53.282  1.00  0.00     0.269 C 
HETATM   33  H   UNL     1       6.628  22.441  53.964  1.00  0.00     0.279 HD
HETATM   34  C   UNL     1       8.257  22.615  55.203  1.00  0.00     0.269 C 
ENDBRANCH  30  31
ENDBRANCH  29  30
ENDBRANCH  28  29
ENDBRANCH   1  28
BRANCH   8  35
HETATM   35  C   UNL     1       4.182  29.522  55.994  1.00  0.00     0.010 A 
HETATM   36  C   UNL     1       3.352  30.468  56.640  1.00  0.00     0.152 A 
HETATM   37  N   UNL     1       3.613  30.582  57.944  1.00  0.00    -0.187 NA
HETATM   38  N   UNL     1       4.605  29.699  58.145  1.00  0.00    -0.289 N 
HETATM   39  H   UNL     1       4.980  29.600  59.083  1.00  0.00     0.188 HD
HETATM   40  C   UNL     1       4.986  29.046  57.007  1.00  0.00     0.123 A 
ENDBRANCH   8  35
TORSDOF 8
ENDMDL
MODEL 10
REMARK VINA RESULT:      -7.7      6.340      9.837
REMARK  8 active torsions:
REMARK  status: ('A' for Active; 'I' for Inactive)
REMARK    1  A    between atoms: N_2  and  C_5 
REMARK    2  A    between atoms: C_5  and  C_6 
REMARK    3  A    between atoms: C_6  and  S_7 
REMARK    4  A    between atoms: S_7  and  C_8 
REMARK    5  A    between atoms: C_10  and  C_24 
REMARK    6  A    between atoms: C_15  and  C_18 
REMARK    7  A    between atoms: C_30  and  C_34 
REMARK       I    between atoms: C_34  and  N_36 
REMARK    8  A    between atoms: N_36  and  C_37 
ROOT
HETATM    1  C   UNL     1       4.742  27.933  51.906  1.00  0.00     0.108 A 
HETATM    2  N   UNL     1       4.378  27.801  50.616  1.00  0.00    -0.225 NA
HETATM    3  C   UNL     1       4.624  26.623  50.031  1.00  0.00     0.134 A 
HETATM    4  N   UNL     1       5.143  25.567  50.675  1.00  0.00    -0.232 NA
HETATM    5  C   UNL     1       5.514  25.716  51.951  1.00  0.00     0.072 A 
HETATM    6  C   UNL     1       6.104  24.641  52.598  1.00  0.00     0.033 A 
HETATM    7  C   UNL     1       6.553  24.725  53.920  1.00  0.00     0.014 A 
HETATM    8  C   UNL     1       6.410  25.913  54.636  1.00  0.00    -0.022 A 
HETATM    9  C   UNL     1       5.799  26.999  54.000  1.00  0.00     0.029 A 
HETATM   10  C   UNL     1       5.349  26.913  52.651  1.00  0.00     0.029 A 
ENDROOT
BRANCH   3  11
HETATM   11  C   UNL     1       4.322  26.449  48.556  1.00  0.00     0.086 C 
HETATM   12  C   UNL     1       2.832  26.305  48.233  1.00  0.00     0.188 C 
HETATM   13  O   UNL     1       2.032  27.473  48.483  1.00  0.00    -0.350 OA
HETATM   14  C   UNL     1       2.622  28.674  48.192  1.00  0.00     0.075 A 
HETATM   15  C   UNL     1       1.801  29.799  48.294  1.00  0.00     0.038 A 
HETATM   16  C   UNL     1       3.972  28.819  47.864  1.00  0.00    -0.023 A 
HETATM   17  C   UNL     1       2.320  31.077  48.072  1.00  0.00     0.020 A 
HETATM   18  C   UNL     1       3.670  31.230  47.736  1.00  0.00     0.032 A 
HETATM   19  C   UNL     1       4.491  30.100  47.633  1.00  0.00     0.027 A 
HETATM   20  C   UNL     1       4.866  27.618  47.735  1.00  0.00     0.056 C 
BRANCH  18  21
HETATM   21  C   UNL     1       4.286  32.569  47.537  1.00  0.00     0.252 C 
HETATM   22  O   UNL     1       3.677  33.573  47.891  1.00  0.00    -0.268 OA
HETATM   23  N   UNL     1       5.545  32.583  46.968  1.00  0.00    -0.352 N 
HETATM   24  H   UNL     1       6.058  31.716  46.880  1.00  0.00     0.163 HD
BRANCH  23  25
HETATM   25  C   UNL     1       6.256  33.803  46.751  1.00  0.00     0.084 A 
HETATM   26  C   UNL     1       7.609  34.022  47.370  1.00  0.00     0.027 A 
HETATM   27  C   UNL     1       7.487  33.822  45.889  1.00  0.00     0.027 A 
ENDBRANCH  23  25
ENDBRANCH  18  21
ENDBRANCH   3  11
BRANCH   1  28
HETATM   28  S   UNL     1       4.471  29.577  52.583  1.00  0.00    -0.108 SA
BRANCH  28  29
HETATM   29  C   UNL     1       4.911  30.607  51.133  1.00  0.00     0.108 C 
BRANCH  29  30
HETATM   30  C   UNL     1       4.322  32.012  51.286  1.00  0.00     0.244 C 
BRANCH  30  31
HETATM   31  N   UNL     1       5.361  33.010  51.780  1.00  0.00    -0.078 N 
HETATM   32  C   UNL     1       5.857  33.941  50.707  1.00  0.00     0.269 C 
HETATM   33  H   UNL     1       6.171  32.444  52.078  1.00  0.00     0.279 HD
HETATM   34  C   UNL     1       4.885  33.761  52.990  1.00  0.00     0.269 C 
ENDBRANCH  30  31
ENDBRANCH  29  30
ENDBRANCH  28  29
ENDBRANCH   1  28
BRANCH   8  35
HETATM   35  C   UNL     1       6.882  26.036  56.003  1.00  0.00     0.010 A 
HETATM   36  C   UNL     1       7.392  27.149  56.709  1.00  0.00     0.152 A 
HETATM   37  N   UNL     1       7.762  26.848  57.956  1.00  0.00    -0.187 NA
HETATM   38  N   UNL     1       7.478  25.539  58.061  1.00  0.00    -0.289 N 
HETATM   39  H   UNL     1       7.672  25.072  58.941  1.00  0.00     0.188 HD
HETATM   40  C   UNL     1       6.956  25.005  56.916  1.00  0.00     0.123 A 
ENDBRANCH   8  35
TORSDOF 8
ENDMDL
