MODEL 1
REMARK VINA RESULT:      -7.9      0.000      0.000
REMARK  10 active torsions:
REMARK  status: ('A' for Active; 'I' for Inactive)
REMARK    1  A    between atoms: O_2  and  C_3 
REMARK    2  A    between atoms: C_6  and  C_7 
REMARK       I    between atoms: C_7  and  N_8 
REMARK    3  A    between atoms: N_8  and  C_9 
REMARK    4  A    between atoms: C_9  and  N_10 
REMARK    5  A    between atoms: N_10  and  C_11 
REMARK    6  A    between atoms: C_12  and  C_13 
REMARK       I    between atoms: C_13  and  N_14 
REMARK    7  A    between atoms: N_14  and  C_15 
REMARK    8  A    between atoms: C_15  and  C_16 
REMARK    9  A    between atoms: C_16  and  C_17 
REMARK   10  A    between atoms: C_17  and  O_18 
ROOT
HETATM    1  N   UNL     1       4.469  27.828  56.413  1.00  0.00    -0.332 N 
HETATM    2  H   UNL     1       3.628  27.566  56.912  1.00  0.00     0.168 HD
ENDROOT
BRANCH   1   3
HETATM    3  C   UNL     1       4.213  28.539  55.257  1.00  0.00     0.179 C 
HETATM    4  S   UNL     1       4.602  30.138  54.939  1.00  0.00    -0.040 SA
BRANCH   3   5
HETATM    5  N   UNL     1       3.712  27.805  54.193  1.00  0.00    -0.299 N 
HETATM    6  C   UNL     1       4.355  27.586  52.993  1.00  0.00     0.257 C 
HETATM    7  O   UNL     1       4.048  28.186  51.969  1.00  0.00    -0.267 OA
HETATM    8  H   UNL     1       2.744  28.073  54.058  1.00  0.00     0.171 HD
BRANCH   6   9
HETATM    9  C   UNL     1       5.443  26.584  52.977  1.00  0.00     0.032 A 
HETATM   10  C   UNL     1       6.771  26.978  53.169  1.00  0.00     0.020 A 
HETATM   11  C   UNL     1       7.770  26.006  53.284  1.00  0.00     0.038 A 
HETATM   12  C   UNL     1       7.433  24.653  53.195  1.00  0.00     0.068 A 
HETATM   13  C   UNL     1       6.116  24.266  52.949  1.00  0.00     0.038 A 
HETATM   14  C   UNL     1       5.112  25.229  52.870  1.00  0.00     0.020 A 
BRANCH  12  15
HETATM   15  O   UNL     1       8.364  23.655  53.297  1.00  0.00    -0.356 OA
HETATM   16  C   UNL     1       7.796  22.370  53.048  1.00  0.00     0.210 C 
ENDBRANCH  12  15
ENDBRANCH   6   9
ENDBRANCH   3   5
ENDBRANCH   1   3
BRANCH   1  17
HETATM   17  C   UNL     1       5.574  26.979  56.680  1.00  0.00     0.050 A 
HETATM   18  C   UNL     1       6.834  27.393  57.148  1.00  0.00     0.058 A 
HETATM   19  C   UNL     1       7.853  26.440  57.346  1.00  0.00     0.019 A 
HETATM   20  C   UNL     1       7.624  25.089  57.089  1.00  0.00     0.001 A 
HETATM   21  C   UNL     1       6.367  24.670  56.667  1.00  0.00     0.002 A 
HETATM   22  C   UNL     1       5.347  25.606  56.480  1.00  0.00     0.030 A 
BRANCH  18  23
HETATM   23  C   UNL     1       7.095  28.777  57.627  1.00  0.00     0.253 C 
HETATM   24  N   UNL     1       8.427  29.106  57.796  1.00  0.00    -0.357 N 
HETATM   25  H   UNL     1       9.141  28.425  57.568  1.00  0.00     0.162 HD
HETATM   26  O   UNL     1       6.168  29.539  57.872  1.00  0.00    -0.268 OA
BRANCH  24  27
HETATM   27  C   UNL     1       8.821  30.380  58.356  1.00  0.00     0.125 C 
BRANCH  27  28
HETATM   28  C   UNL     1      10.199  30.829  57.891  1.00  0.00     0.046 C 
BRANCH  28  29
HETATM   29  C   UNL     1      10.823  29.864  56.893  1.00  0.00     0.165 C 
BRANCH  29  30
HETATM   30  O   UNL     1      12.221  29.765  57.142  1.00  0.00    -0.401 OA
HETATM   31  H   UNL     1      12.429  30.368  57.876  1.00  0.00     0.209 HD
ENDBRANCH  29  30
ENDBRANCH  28  29
ENDBRANCH  27  28
ENDBRANCH  24  27
ENDBRANCH  18  23
ENDBRANCH   1  17
TORSDOF 10
ENDMDL
MODEL 2
REMARK VINA RESULT:      -7.5      1.579      2.635
REMARK  10 active torsions:
REMARK  status: ('A' for Active; 'I' for Inactive)
REMARK    1  A    between atoms: O_2  and  C_3 
REMARK    2  A    between atoms: C_6  and  C_7 
REMARK       I    between atoms: C_7  and  N_8 
REMARK    3  A    between atoms: N_8  and  C_9 
REMARK    4  A    between atoms: C_9  and  N_10 
REMARK    5  A    between atoms: N_10  and  C_11 
REMARK    6  A    between atoms: C_12  and  C_13 
REMARK       I    between atoms: C_13  and  N_14 
REMARK    7  A    between atoms: N_14  and  C_15 
REMARK    8  A    between atoms: C_15  and  C_16 
REMARK    9  A    between atoms: C_16  and  C_17 
REMARK   10  A    between atoms: C_17  and  O_18 
ROOT
HETATM    1  N   UNL     1       4.301  27.957  56.234  1.00  0.00    -0.332 N 
HETATM    2  H   UNL     1       3.458  27.697  56.730  1.00  0.00     0.168 HD
ENDROOT
BRANCH   1   3
HETATM    3  C   UNL     1       4.048  28.612  55.045  1.00  0.00     0.179 C 
HETATM    4  S   UNL     1       4.337  30.225  54.691  1.00  0.00    -0.040 SA
BRANCH   3   5
HETATM    5  N   UNL     1       3.652  27.812  53.985  1.00  0.00    -0.299 N 
HETATM    6  C   UNL     1       4.431  27.465  52.903  1.00  0.00     0.257 C 
HETATM    7  O   UNL     1       4.292  27.986  51.803  1.00  0.00    -0.267 OA
HETATM    8  H   UNL     1       2.724  28.108  53.702  1.00  0.00     0.171 HD
BRANCH   6   9
HETATM    9  C   UNL     1       5.458  26.420  53.111  1.00  0.00     0.032 A 
HETATM   10  C   UNL     1       5.098  25.069  53.146  1.00  0.00     0.020 A 
HETATM   11  C   UNL     1       6.095  24.090  53.210  1.00  0.00     0.038 A 
HETATM   12  C   UNL     1       7.438  24.471  53.250  1.00  0.00     0.068 A 
HETATM   13  C   UNL     1       7.792  25.820  53.269  1.00  0.00     0.038 A 
HETATM   14  C   UNL     1       6.804  26.798  53.169  1.00  0.00     0.020 A 
BRANCH  12  15
HETATM   15  O   UNL     1       8.459  23.561  53.315  1.00  0.00    -0.356 OA
HETATM   16  C   UNL     1       8.220  22.562  54.305  1.00  0.00     0.210 C 
ENDBRANCH  12  15
ENDBRANCH   6   9
ENDBRANCH   3   5
ENDBRANCH   1   3
BRANCH   1  17
HETATM   17  C   UNL     1       5.420  27.146  56.556  1.00  0.00     0.050 A 
HETATM   18  C   UNL     1       6.726  27.608  56.799  1.00  0.00     0.058 A 
HETATM   19  C   UNL     1       7.752  26.683  57.083  1.00  0.00     0.019 A 
HETATM   20  C   UNL     1       7.484  25.316  57.132  1.00  0.00     0.001 A 
HETATM   21  C   UNL     1       6.186  24.859  56.934  1.00  0.00     0.002 A 
HETATM   22  C   UNL     1       5.160  25.769  56.665  1.00  0.00     0.030 A 
BRANCH  18  23
HETATM   23  C   UNL     1       7.050  29.051  56.955  1.00  0.00     0.253 C 
HETATM   24  N   UNL     1       6.547  29.653  58.093  1.00  0.00    -0.357 N 
HETATM   25  H   UNL     1       6.022  29.099  58.759  1.00  0.00     0.162 HD
HETATM   26  O   UNL     1       7.698  29.643  56.100  1.00  0.00    -0.268 OA
BRANCH  24  27
HETATM   27  C   UNL     1       6.694  31.074  58.319  1.00  0.00     0.125 C 
BRANCH  27  28
HETATM   28  C   UNL     1       5.451  31.866  57.938  1.00  0.00     0.046 C 
BRANCH  28  29
HETATM   29  C   UNL     1       4.232  31.471  58.761  1.00  0.00     0.165 C 
BRANCH  29  30
HETATM   30  O   UNL     1       3.798  30.174  58.369  1.00  0.00    -0.401 OA
HETATM   31  H   UNL     1       3.654  29.658  59.181  1.00  0.00     0.209 HD
ENDBRANCH  29  30
ENDBRANCH  28  29
ENDBRANCH  27  28
ENDBRANCH  24  27
ENDBRANCH  18  23
ENDBRANCH   1  17
TORSDOF 10
ENDMDL
MODEL 3
REMARK VINA RESULT:      -7.4      2.575      7.071
REMARK  10 active torsions:
REMARK  status: ('A' for Active; 'I' for Inactive)
REMARK    1  A    between atoms: O_2  and  C_3 
REMARK    2  A    between atoms: C_6  and  C_7 
REMARK       I    between atoms: C_7  and  N_8 
REMARK    3  A    between atoms: N_8  and  C_9 
REMARK    4  A    between atoms: C_9  and  N_10 
REMARK    5  A    between atoms: N_10  and  C_11 
REMARK    6  A    between atoms: C_12  and  C_13 
REMARK       I    between atoms: C_13  and  N_14 
REMARK    7  A    between atoms: N_14  and  C_15 
REMARK    8  A    between atoms: C_15  and  C_16 
REMARK    9  A    between atoms: C_16  and  C_17 
REMARK   10  A    between atoms: C_17  and  O_18 
ROOT
HETATM    1  N   UNL     1       4.531  26.366  53.879  1.00  0.00    -0.332 N 
HETATM    2  H   UNL     1       3.672  26.121  53.401  1.00  0.00     0.168 HD
ENDROOT
BRANCH   1   3
HETATM    3  C   UNL     1       4.475  27.604  54.488  1.00  0.00     0.179 C 
HETATM    4  S   UNL     1       4.440  29.104  53.742  1.00  0.00    -0.040 SA
BRANCH   3   5
HETATM    5  N   UNL     1       4.275  27.596  55.860  1.00  0.00    -0.299 N 
HETATM    6  C   UNL     1       5.129  27.052  56.795  1.00  0.00     0.257 C 
HETATM    7  O   UNL     1       4.903  25.979  57.342  1.00  0.00    -0.267 OA
HETATM    8  H   UNL     1       3.311  27.332  56.032  1.00  0.00     0.171 HD
BRANCH   6   9
HETATM    9  C   UNL     1       6.350  27.820  57.128  1.00  0.00     0.032 A 
HETATM   10  C   UNL     1       7.616  27.256  56.938  1.00  0.00     0.020 A 
HETATM   11  C   UNL     1       8.757  28.041  57.131  1.00  0.00     0.038 A 
HETATM   12  C   UNL     1       8.622  29.374  57.524  1.00  0.00     0.068 A 
HETATM   13  C   UNL     1       7.360  29.918  57.765  1.00  0.00     0.038 A 
HETATM   14  C   UNL     1       6.219  29.151  57.538  1.00  0.00     0.020 A 
BRANCH  12  15
HETATM   15  O   UNL     1       9.699  30.193  57.730  1.00  0.00    -0.356 OA
HETATM   16  C   UNL     1      10.879  29.689  57.105  1.00  0.00     0.210 C 
ENDBRANCH  12  15
ENDBRANCH   6   9
ENDBRANCH   3   5
ENDBRANCH   1   3
BRANCH   1  17
HETATM   17  C   UNL     1       5.675  25.706  53.362  1.00  0.00     0.050 A 
HETATM   18  C   UNL     1       6.090  25.713  52.018  1.00  0.00     0.058 A 
HETATM   19  C   UNL     1       7.238  24.988  51.638  1.00  0.00     0.019 A 
HETATM   20  C   UNL     1       7.970  24.269  52.582  1.00  0.00     0.001 A 
HETATM   21  C   UNL     1       7.587  24.294  53.918  1.00  0.00     0.002 A 
HETATM   22  C   UNL     1       6.459  25.021  54.306  1.00  0.00     0.030 A 
BRANCH  18  23
HETATM   23  C   UNL     1       5.480  26.605  50.996  1.00  0.00     0.253 C 
HETATM   24  N   UNL     1       4.501  26.027  50.210  1.00  0.00    -0.357 N 
HETATM   25  H   UNL     1       4.232  25.064  50.377  1.00  0.00     0.162 HD
HETATM   26  O   UNL     1       5.863  27.761  50.866  1.00  0.00    -0.268 OA
BRANCH  24  27
HETATM   27  C   UNL     1       3.900  26.745  49.108  1.00  0.00     0.125 C 
BRANCH  27  28
HETATM   28  C   UNL     1       4.054  26.023  47.777  1.00  0.00     0.046 C 
BRANCH  28  29
HETATM   29  C   UNL     1       2.981  24.966  47.557  1.00  0.00     0.165 C 
BRANCH  29  30
HETATM   30  O   UNL     1       2.785  24.234  48.762  1.00  0.00    -0.401 OA
HETATM   31  H   UNL     1       3.182  23.356  48.636  1.00  0.00     0.209 HD
ENDBRANCH  29  30
ENDBRANCH  28  29
ENDBRANCH  27  28
ENDBRANCH  24  27
ENDBRANCH  18  23
ENDBRANCH   1  17
TORSDOF 10
ENDMDL
MODEL 4
REMARK VINA RESULT:      -7.3      2.421      4.208
REMARK  10 active torsions:
REMARK  status: ('A' for Active; 'I' for Inactive)
REMARK    1  A    between atoms: O_2  and  C_3 
REMARK    2  A    between atoms: C_6  and  C_7 
REMARK       I    between atoms: C_7  and  N_8 
REMARK    3  A    between atoms: N_8  and  C_9 
REMARK    4  A    between atoms: C_9  and  N_10 
REMARK    5  A    between atoms: N_10  and  C_11 
REMARK    6  A    between atoms: C_12  and  C_13 
REMARK       I    between atoms: C_13  and  N_14 
REMARK    7  A    between atoms: N_14  and  C_15 
REMARK    8  A    between atoms: C_15  and  C_16 
REMARK    9  A    between atoms: C_16  and  C_17 
REMARK   10  A    between atoms: C_17  and  O_18 
ROOT
HETATM    1  N   UNL     1       7.132  29.504  58.421  1.00  0.00    -0.332 N 
HETATM    2  H   UNL     1       6.982  28.708  59.028  1.00  0.00     0.168 HD
ENDROOT
BRANCH   1   3
HETATM    3  C   UNL     1       5.980  29.923  57.786  1.00  0.00     0.179 C 
HETATM    4  S   UNL     1       5.723  31.385  57.006  1.00  0.00    -0.040 SA
BRANCH   3   5
HETATM    5  N   UNL     1       4.982  28.971  57.650  1.00  0.00    -0.299 N 
HETATM    6  C   UNL     1       4.679  28.279  56.497  1.00  0.00     0.257 C 
HETATM    7  O   UNL     1       3.705  28.555  55.807  1.00  0.00    -0.267 OA
HETATM    8  H   UNL     1       4.149  29.328  58.106  1.00  0.00     0.171 HD
BRANCH   6   9
HETATM    9  C   UNL     1       5.581  27.171  56.113  1.00  0.00     0.032 A 
HETATM   10  C   UNL     1       6.307  27.229  54.920  1.00  0.00     0.020 A 
HETATM   11  C   UNL     1       7.252  26.238  54.637  1.00  0.00     0.038 A 
HETATM   12  C   UNL     1       7.453  25.194  55.544  1.00  0.00     0.068 A 
HETATM   13  C   UNL     1       6.690  25.110  56.708  1.00  0.00     0.038 A 
HETATM   14  C   UNL     1       5.772  26.114  57.011  1.00  0.00     0.020 A 
BRANCH  12  15
HETATM   15  O   UNL     1       8.362  24.194  55.325  1.00  0.00    -0.356 OA
HETATM   16  C   UNL     1       7.727  22.933  55.120  1.00  0.00     0.210 C 
ENDBRANCH  12  15
ENDBRANCH   6   9
ENDBRANCH   3   5
ENDBRANCH   1   3
BRANCH   1  17
HETATM   17  C   UNL     1       8.468  29.620  57.958  1.00  0.00     0.050 A 
HETATM   18  C   UNL     1       9.393  30.601  58.357  1.00  0.00     0.058 A 
HETATM   19  C   UNL     1      10.685  30.613  57.793  1.00  0.00     0.019 A 
HETATM   20  C   UNL     1      11.058  29.657  56.849  1.00  0.00     0.001 A 
HETATM   21  C   UNL     1      10.160  28.660  56.484  1.00  0.00     0.002 A 
HETATM   22  C   UNL     1       8.882  28.633  57.047  1.00  0.00     0.030 A 
BRANCH  18  23
HETATM   23  C   UNL     1       9.139  31.529  59.491  1.00  0.00     0.253 C 
HETATM   24  N   UNL     1       9.395  31.015  60.748  1.00  0.00    -0.357 N 
HETATM   25  H   UNL     1       9.758  30.073  60.837  1.00  0.00     0.162 HD
HETATM   26  O   UNL     1       8.705  32.657  59.291  1.00  0.00    -0.268 OA
BRANCH  24  27
HETATM   27  C   UNL     1       9.092  31.769  61.944  1.00  0.00     0.125 C 
BRANCH  27  28
HETATM   28  C   UNL     1       7.858  31.253  62.672  1.00  0.00     0.046 C 
BRANCH  28  29
HETATM   29  C   UNL     1       6.577  31.932  62.206  1.00  0.00     0.165 C 
BRANCH  29  30
HETATM   30  O   UNL     1       6.288  31.529  60.872  1.00  0.00    -0.401 OA
HETATM   31  H   UNL     1       7.114  31.192  60.484  1.00  0.00     0.209 HD
ENDBRANCH  29  30
ENDBRANCH  28  29
ENDBRANCH  27  28
ENDBRANCH  24  27
ENDBRANCH  18  23
ENDBRANCH   1  17
TORSDOF 10
ENDMDL
MODEL 5
REMARK VINA RESULT:      -7.3      2.237      6.468
REMARK  10 active torsions:
REMARK  status: ('A' for Active; 'I' for Inactive)
REMARK    1  A    between atoms: O_2  and  C_3 
REMARK    2  A    between atoms: C_6  and  C_7 
REMARK       I    between atoms: C_7  and  N_8 
REMARK    3  A    between atoms: N_8  and  C_9 
REMARK    4  A    between atoms: C_9  and  N_10 
REMARK    5  A    between atoms: N_10  and  C_11 
REMARK    6  A    between atoms: C_12  and  C_13 
REMARK       I    between atoms: C_13  and  N_14 
REMARK    7  A    between atoms: N_14  and  C_15 
REMARK    8  A    between atoms: C_15  and  C_16 
REMARK    9  A    between atoms: C_16  and  C_17 
REMARK   10  A    between atoms: C_17  and  O_18 
ROOT
HETATM    1  N   UNL     1       7.570  25.062  55.507  1.00  0.00    -0.332 N 
HETATM    2  H   UNL     1       8.318  25.275  56.154  1.00  0.00     0.168 HD
ENDROOT
BRANCH   1   3
HETATM    3  C   UNL     1       6.388  25.705  55.815  1.00  0.00     0.179 C 
HETATM    4  S   UNL     1       5.298  25.306  57.025  1.00  0.00    -0.040 SA
BRANCH   3   5
HETATM    5  N   UNL     1       6.156  26.898  55.149  1.00  0.00    -0.299 N 
HETATM    6  C   UNL     1       5.817  28.097  55.738  1.00  0.00     0.257 C 
HETATM    7  O   UNL     1       4.673  28.536  55.716  1.00  0.00    -0.267 OA
HETATM    8  H   UNL     1       5.573  26.696  54.344  1.00  0.00     0.171 HD
BRANCH   6   9
HETATM    9  C   UNL     1       6.897  28.856  56.407  1.00  0.00     0.032 A 
HETATM   10  C   UNL     1       6.668  29.479  57.638  1.00  0.00     0.020 A 
HETATM   11  C   UNL     1       7.734  30.076  58.318  1.00  0.00     0.038 A 
HETATM   12  C   UNL     1       9.013  30.056  57.756  1.00  0.00     0.068 A 
HETATM   13  C   UNL     1       9.227  29.480  56.504  1.00  0.00     0.038 A 
HETATM   14  C   UNL     1       8.176  28.852  55.839  1.00  0.00     0.020 A 
BRANCH  12  15
HETATM   15  O   UNL     1      10.095  30.624  58.371  1.00  0.00    -0.356 OA
HETATM   16  C   UNL     1       9.712  31.661  59.273  1.00  0.00     0.210 C 
ENDBRANCH  12  15
ENDBRANCH   6   9
ENDBRANCH   3   5
ENDBRANCH   1   3
BRANCH   1  17
HETATM   17  C   UNL     1       7.732  23.817  54.845  1.00  0.00     0.050 A 
HETATM   18  C   UNL     1       7.544  23.587  53.470  1.00  0.00     0.058 A 
HETATM   19  C   UNL     1       7.714  22.288  52.950  1.00  0.00     0.019 A 
HETATM   20  C   UNL     1       8.073  21.229  53.783  1.00  0.00     0.001 A 
HETATM   21  C   UNL     1       8.301  21.461  55.135  1.00  0.00     0.002 A 
HETATM   22  C   UNL     1       8.147  22.748  55.657  1.00  0.00     0.030 A 
BRANCH  18  23
HETATM   23  C   UNL     1       7.352  24.691  52.492  1.00  0.00     0.253 C 
HETATM   24  N   UNL     1       6.039  25.005  52.200  1.00  0.00    -0.357 N 
HETATM   25  H   UNL     1       5.291  24.507  52.668  1.00  0.00     0.162 HD
HETATM   26  O   UNL     1       8.317  25.245  51.978  1.00  0.00    -0.268 OA
BRANCH  24  27
HETATM   27  C   UNL     1       5.707  25.984  51.188  1.00  0.00     0.125 C 
BRANCH  27  28
HETATM   28  C   UNL     1       5.645  27.403  51.736  1.00  0.00     0.046 C 
BRANCH  28  29
HETATM   29  C   UNL     1       4.251  27.784  52.216  1.00  0.00     0.165 C 
BRANCH  29  30
HETATM   30  O   UNL     1       3.830  26.864  53.218  1.00  0.00    -0.401 OA
HETATM   31  H   UNL     1       3.616  26.027  52.772  1.00  0.00     0.209 HD
ENDBRANCH  29  30
ENDBRANCH  28  29
ENDBRANCH  27  28
ENDBRANCH  24  27
ENDBRANCH  18  23
ENDBRANCH   1  17
TORSDOF 10
ENDMDL
MODEL 6
REMARK VINA RESULT:      -7.2      2.533      6.991
REMARK  10 active torsions:
REMARK  status: ('A' for Active; 'I' for Inactive)
REMARK    1  A    between atoms: O_2  and  C_3 
REMARK    2  A    between atoms: C_6  and  C_7 
REMARK       I    between atoms: C_7  and  N_8 
REMARK    3  A    between atoms: N_8  and  C_9 
REMARK    4  A    between atoms: C_9  and  N_10 
REMARK    5  A    between atoms: N_10  and  C_11 
REMARK    6  A    between atoms: C_12  and  C_13 
REMARK       I    between atoms: C_13  and  N_14 
REMARK    7  A    between atoms: N_14  and  C_15 
REMARK    8  A    between atoms: C_15  and  C_16 
REMARK    9  A    between atoms: C_16  and  C_17 
REMARK   10  A    between atoms: C_17  and  O_18 
ROOT
HETATM    1  N   UNL     1       5.414  26.035  55.174  1.00  0.00    -0.332 N 
HETATM    2  H   UNL     1       4.417  25.887  55.084  1.00  0.00     0.168 HD
ENDROOT
BRANCH   1   3
HETATM    3  C   UNL     1       5.730  27.087  56.010  1.00  0.00     0.179 C 
HETATM    4  S   UNL     1       5.175  28.666  55.913  1.00  0.00    -0.040 SA
BRANCH   3   5
HETATM    5  N   UNL     1       6.468  26.764  57.138  1.00  0.00    -0.299 N 
HETATM    6  C   UNL     1       7.826  26.948  57.292  1.00  0.00     0.257 C 
HETATM    7  O   UNL     1       8.623  26.020  57.217  1.00  0.00    -0.267 OA
HETATM    8  H   UNL     1       6.174  25.845  57.449  1.00  0.00     0.171 HD
BRANCH   6   9
HETATM    9  C   UNL     1       8.300  28.324  57.558  1.00  0.00     0.032 A 
HETATM   10  C   UNL     1       7.633  29.137  58.479  1.00  0.00     0.020 A 
HETATM   11  C   UNL     1       8.171  30.383  58.817  1.00  0.00     0.038 A 
HETATM   12  C   UNL     1       9.363  30.806  58.225  1.00  0.00     0.068 A 
HETATM   13  C   UNL     1       9.998  30.016  57.267  1.00  0.00     0.038 A 
HETATM   14  C   UNL     1       9.485  28.758  56.953  1.00  0.00     0.020 A 
BRANCH  12  15
HETATM   15  O   UNL     1       9.939  32.014  58.512  1.00  0.00    -0.356 OA
HETATM   16  C   UNL     1       9.722  32.398  59.869  1.00  0.00     0.210 C 
ENDBRANCH  12  15
ENDBRANCH   6   9
ENDBRANCH   3   5
ENDBRANCH   1   3
BRANCH   1  17
HETATM   17  C   UNL     1       6.161  25.553  54.068  1.00  0.00     0.050 A 
HETATM   18  C   UNL     1       7.123  24.529  54.111  1.00  0.00     0.058 A 
HETATM   19  C   UNL     1       7.812  24.167  52.935  1.00  0.00     0.019 A 
HETATM   20  C   UNL     1       7.543  24.810  51.727  1.00  0.00     0.001 A 
HETATM   21  C   UNL     1       6.562  25.793  51.672  1.00  0.00     0.002 A 
HETATM   22  C   UNL     1       5.866  26.150  52.830  1.00  0.00     0.030 A 
BRANCH  18  23
HETATM   23  C   UNL     1       7.327  23.670  55.308  1.00  0.00     0.253 C 
HETATM   24  N   UNL     1       8.391  22.791  55.236  1.00  0.00    -0.357 N 
HETATM   25  H   UNL     1       8.980  22.789  54.413  1.00  0.00     0.162 HD
HETATM   26  O   UNL     1       6.566  23.743  56.267  1.00  0.00    -0.268 OA
BRANCH  24  27
HETATM   27  C   UNL     1       8.639  21.824  56.283  1.00  0.00     0.125 C 
BRANCH  27  28
HETATM   28  C   UNL     1       8.328  20.396  55.855  1.00  0.00     0.046 C 
BRANCH  28  29
HETATM   29  C   UNL     1       7.835  20.311  54.418  1.00  0.00     0.165 C 
BRANCH  29  30
HETATM   30  O   UNL     1       8.904  19.892  53.576  1.00  0.00    -0.401 OA
HETATM   31  H   UNL     1       9.425  19.238  54.072  1.00  0.00     0.209 HD
ENDBRANCH  29  30
ENDBRANCH  28  29
ENDBRANCH  27  28
ENDBRANCH  24  27
ENDBRANCH  18  23
ENDBRANCH   1  17
TORSDOF 10
ENDMDL
MODEL 7
REMARK VINA RESULT:      -7.1      2.436      4.102
REMARK  10 active torsions:
REMARK  status: ('A' for Active; 'I' for Inactive)
REMARK    1  A    between atoms: O_2  and  C_3 
REMARK    2  A    between atoms: C_6  and  C_7 
REMARK       I    between atoms: C_7  and  N_8 
REMARK    3  A    between atoms: N_8  and  C_9 
REMARK    4  A    between atoms: C_9  and  N_10 
REMARK    5  A    between atoms: N_10  and  C_11 
REMARK    6  A    between atoms: C_12  and  C_13 
REMARK       I    between atoms: C_13  and  N_14 
REMARK    7  A    between atoms: N_14  and  C_15 
REMARK    8  A    between atoms: C_15  and  C_16 
REMARK    9  A    between atoms: C_16  and  C_17 
REMARK   10  A    between atoms: C_17  and  O_18 
ROOT
HETATM    1  N   UNL     1       4.494  26.635  53.112  1.00  0.00    -0.332 N 
HETATM    2  H   UNL     1       4.536  25.922  53.830  1.00  0.00     0.168 HD
ENDROOT
BRANCH   1   3
HETATM    3  C   UNL     1       5.220  26.308  51.983  1.00  0.00     0.179 C 
HETATM    4  S   UNL     1       4.626  25.991  50.448  1.00  0.00    -0.040 SA
BRANCH   3   5
HETATM    5  N   UNL     1       6.598  26.400  52.102  1.00  0.00    -0.299 N 
HETATM    6  C   UNL     1       7.325  26.170  53.250  1.00  0.00     0.257 C 
HETATM    7  O   UNL     1       7.790  27.083  53.923  1.00  0.00    -0.267 OA
HETATM    8  H   UNL     1       6.894  27.249  51.632  1.00  0.00     0.171 HD
BRANCH   6   9
HETATM    9  C   UNL     1       7.535  24.761  53.650  1.00  0.00     0.032 A 
HETATM   10  C   UNL     1       7.689  23.764  52.681  1.00  0.00     0.020 A 
HETATM   11  C   UNL     1       8.019  22.464  53.075  1.00  0.00     0.038 A 
HETATM   12  C   UNL     1       8.181  22.171  54.431  1.00  0.00     0.068 A 
HETATM   13  C   UNL     1       7.975  23.155  55.398  1.00  0.00     0.038 A 
HETATM   14  C   UNL     1       7.681  24.461  55.009  1.00  0.00     0.020 A 
BRANCH  12  15
HETATM   15  O   UNL     1       8.502  20.919  54.880  1.00  0.00    -0.356 OA
HETATM   16  C   UNL     1       7.733  20.549  56.023  1.00  0.00     0.210 C 
ENDBRANCH  12  15
ENDBRANCH   6   9
ENDBRANCH   3   5
ENDBRANCH   1   3
BRANCH   1  17
HETATM   17  C   UNL     1       4.211  27.930  53.615  1.00  0.00     0.050 A 
HETATM   18  C   UNL     1       4.451  28.371  54.929  1.00  0.00     0.058 A 
HETATM   19  C   UNL     1       4.095  29.683  55.301  1.00  0.00     0.019 A 
HETATM   20  C   UNL     1       3.513  30.552  54.378  1.00  0.00     0.001 A 
HETATM   21  C   UNL     1       3.313  30.133  53.068  1.00  0.00     0.002 A 
HETATM   22  C   UNL     1       3.675  28.839  52.686  1.00  0.00     0.030 A 
BRANCH  18  23
HETATM   23  C   UNL     1       5.239  27.577  55.909  1.00  0.00     0.253 C 
HETATM   24  N   UNL     1       6.277  28.251  56.524  1.00  0.00    -0.357 N 
HETATM   25  H   UNL     1       6.433  29.229  56.308  1.00  0.00     0.162 HD
HETATM   26  O   UNL     1       4.975  26.398  56.114  1.00  0.00    -0.268 OA
BRANCH  24  27
HETATM   27  C   UNL     1       7.189  27.573  57.418  1.00  0.00     0.125 C 
BRANCH  27  28
HETATM   28  C   UNL     1       8.646  27.926  57.156  1.00  0.00     0.046 C 
BRANCH  28  29
HETATM   29  C   UNL     1       8.828  29.373  56.719  1.00  0.00     0.165 C 
BRANCH  29  30
HETATM   30  O   UNL     1       8.737  29.453  55.301  1.00  0.00    -0.401 OA
HETATM   31  H   UNL     1       9.035  30.341  55.040  1.00  0.00     0.209 HD
ENDBRANCH  29  30
ENDBRANCH  28  29
ENDBRANCH  27  28
ENDBRANCH  24  27
ENDBRANCH  18  23
ENDBRANCH   1  17
TORSDOF 10
ENDMDL
MODEL 8
REMARK VINA RESULT:      -7.1      2.671      6.592
REMARK  10 active torsions:
REMARK  status: ('A' for Active; 'I' for Inactive)
REMARK    1  A    between atoms: O_2  and  C_3 
REMARK    2  A    between atoms: C_6  and  C_7 
REMARK       I    between atoms: C_7  and  N_8 
REMARK    3  A    between atoms: N_8  and  C_9 
REMARK    4  A    between atoms: C_9  and  N_10 
REMARK    5  A    between atoms: N_10  and  C_11 
REMARK    6  A    between atoms: C_12  and  C_13 
REMARK       I    between atoms: C_13  and  N_14 
REMARK    7  A    between atoms: N_14  and  C_15 
REMARK    8  A    between atoms: C_15  and  C_16 
REMARK    9  A    between atoms: C_16  and  C_17 
REMARK   10  A    between atoms: C_17  and  O_18 
ROOT
HETATM    1  N   UNL     1       4.931  25.201  54.611  1.00  0.00    -0.332 N 
HETATM    2  H   UNL     1       4.100  25.296  54.041  1.00  0.00     0.168 HD
ENDROOT
BRANCH   1   3
HETATM    3  C   UNL     1       4.925  26.027  55.717  1.00  0.00     0.179 C 
HETATM    4  S   UNL     1       5.151  25.584  57.318  1.00  0.00    -0.040 SA
BRANCH   3   5
HETATM    5  N   UNL     1       4.875  27.387  55.458  1.00  0.00    -0.299 N 
HETATM    6  C   UNL     1       5.284  28.386  56.314  1.00  0.00     0.257 C 
HETATM    7  O   UNL     1       4.489  29.069  56.949  1.00  0.00    -0.267 OA
HETATM    8  H   UNL     1       3.972  27.592  55.044  1.00  0.00     0.171 HD
BRANCH   6   9
HETATM    9  C   UNL     1       6.740  28.617  56.443  1.00  0.00     0.032 A 
HETATM   10  C   UNL     1       7.554  28.665  55.307  1.00  0.00     0.020 A 
HETATM   11  C   UNL     1       8.901  29.015  55.436  1.00  0.00     0.038 A 
HETATM   12  C   UNL     1       9.423  29.303  56.699  1.00  0.00     0.068 A 
HETATM   13  C   UNL     1       8.623  29.203  57.837  1.00  0.00     0.038 A 
HETATM   14  C   UNL     1       7.271  28.889  57.709  1.00  0.00     0.020 A 
BRANCH  12  15
HETATM   15  O   UNL     1      10.733  29.651  56.892  1.00  0.00    -0.356 OA
HETATM   16  C   UNL     1      10.860  30.825  57.693  1.00  0.00     0.210 C 
ENDBRANCH  12  15
ENDBRANCH   6   9
ENDBRANCH   3   5
ENDBRANCH   1   3
BRANCH   1  17
HETATM   17  C   UNL     1       6.057  24.722  53.893  1.00  0.00     0.050 A 
HETATM   18  C   UNL     1       6.488  25.183  52.637  1.00  0.00     0.058 A 
HETATM   19  C   UNL     1       7.614  24.596  52.025  1.00  0.00     0.019 A 
HETATM   20  C   UNL     1       8.311  23.566  52.657  1.00  0.00     0.001 A 
HETATM   21  C   UNL     1       7.914  23.136  53.918  1.00  0.00     0.002 A 
HETATM   22  C   UNL     1       6.806  23.721  54.537  1.00  0.00     0.030 A 
BRANCH  18  23
HETATM   23  C   UNL     1       5.921  26.397  51.992  1.00  0.00     0.253 C 
HETATM   24  N   UNL     1       5.515  26.240  50.680  1.00  0.00    -0.357 N 
HETATM   25  H   UNL     1       5.594  25.331  50.240  1.00  0.00     0.162 HD
HETATM   26  O   UNL     1       5.857  27.458  52.602  1.00  0.00    -0.268 OA
BRANCH  24  27
HETATM   27  C   UNL     1       5.045  27.363  49.899  1.00  0.00     0.125 C 
BRANCH  27  28
HETATM   28  C   UNL     1       4.575  26.960  48.508  1.00  0.00     0.046 C 
BRANCH  28  29
HETATM   29  C   UNL     1       5.249  27.767  47.407  1.00  0.00     0.165 C 
BRANCH  29  30
HETATM   30  O   UNL     1       6.317  27.007  46.850  1.00  0.00    -0.401 OA
HETATM   31  H   UNL     1       6.042  26.075  46.852  1.00  0.00     0.209 HD
ENDBRANCH  29  30
ENDBRANCH  28  29
ENDBRANCH  27  28
ENDBRANCH  24  27
ENDBRANCH  18  23
ENDBRANCH   1  17
TORSDOF 10
ENDMDL
MODEL 9
REMARK VINA RESULT:      -7.0      2.609      6.557
REMARK  10 active torsions:
REMARK  status: ('A' for Active; 'I' for Inactive)
REMARK    1  A    between atoms: O_2  and  C_3 
REMARK    2  A    between atoms: C_6  and  C_7 
REMARK       I    between atoms: C_7  and  N_8 
REMARK    3  A    between atoms: N_8  and  C_9 
REMARK    4  A    between atoms: C_9  and  N_10 
REMARK    5  A    between atoms: N_10  and  C_11 
REMARK    6  A    between atoms: C_12  and  C_13 
REMARK       I    between atoms: C_13  and  N_14 
REMARK    7  A    between atoms: N_14  and  C_15 
REMARK    8  A    between atoms: C_15  and  C_16 
REMARK    9  A    between atoms: C_16  and  C_17 
REMARK   10  A    between atoms: C_17  and  O_18 
ROOT
HETATM    1  N   UNL     1       6.392  28.616  53.287  1.00  0.00    -0.332 N 
HETATM    2  H   UNL     1       7.136  29.246  53.015  1.00  0.00     0.168 HD
ENDROOT
BRANCH   1   3
HETATM    3  C   UNL     1       5.675  29.066  54.378  1.00  0.00     0.179 C 
HETATM    4  S   UNL     1       4.010  29.202  54.514  1.00  0.00    -0.040 SA
BRANCH   3   5
HETATM    5  N   UNL     1       6.406  29.288  55.535  1.00  0.00    -0.299 N 
HETATM    6  C   UNL     1       6.176  28.696  56.758  1.00  0.00     0.257 C 
HETATM    7  O   UNL     1       5.635  29.293  57.681  1.00  0.00    -0.267 OA
HETATM    8  H   UNL     1       6.556  30.287  55.621  1.00  0.00     0.171 HD
BRANCH   6   9
HETATM    9  C   UNL     1       6.615  27.293  56.929  1.00  0.00     0.032 A 
HETATM   10  C   UNL     1       5.725  26.239  56.698  1.00  0.00     0.020 A 
HETATM   11  C   UNL     1       6.191  24.922  56.733  1.00  0.00     0.038 A 
HETATM   12  C   UNL     1       7.537  24.670  57.010  1.00  0.00     0.068 A 
HETATM   13  C   UNL     1       8.410  25.720  57.293  1.00  0.00     0.038 A 
HETATM   14  C   UNL     1       7.959  27.037  57.223  1.00  0.00     0.020 A 
BRANCH  12  15
HETATM   15  O   UNL     1       8.054  23.404  57.061  1.00  0.00    -0.356 OA
HETATM   16  C   UNL     1       7.751  22.658  55.883  1.00  0.00     0.210 C 
ENDBRANCH  12  15
ENDBRANCH   6   9
ENDBRANCH   3   5
ENDBRANCH   1   3
BRANCH   1  17
HETATM   17  C   UNL     1       6.615  27.272  52.892  1.00  0.00     0.050 A 
HETATM   18  C   UNL     1       5.944  26.598  51.856  1.00  0.00     0.058 A 
HETATM   19  C   UNL     1       6.249  25.248  51.588  1.00  0.00     0.019 A 
HETATM   20  C   UNL     1       7.215  24.575  52.335  1.00  0.00     0.001 A 
HETATM   21  C   UNL     1       7.910  25.250  53.332  1.00  0.00     0.002 A 
HETATM   22  C   UNL     1       7.624  26.591  53.597  1.00  0.00     0.030 A 
BRANCH  18  23
HETATM   23  C   UNL     1       5.048  27.295  50.895  1.00  0.00     0.253 C 
HETATM   24  N   UNL     1       5.320  27.072  49.559  1.00  0.00    -0.357 N 
HETATM   25  H   UNL     1       6.073  26.444  49.302  1.00  0.00     0.162 HD
HETATM   26  O   UNL     1       4.156  28.034  51.295  1.00  0.00    -0.268 OA
BRANCH  24  27
HETATM   27  C   UNL     1       4.597  27.769  48.518  1.00  0.00     0.125 C 
BRANCH  27  28
HETATM   28  C   UNL     1       4.027  26.830  47.463  1.00  0.00     0.046 C 
BRANCH  28  29
HETATM   29  C   UNL     1       2.751  26.140  47.923  1.00  0.00     0.165 C 
BRANCH  29  30
HETATM   30  O   UNL     1       3.082  25.073  48.806  1.00  0.00    -0.401 OA
HETATM   31  H   UNL     1       2.908  24.241  48.333  1.00  0.00     0.209 HD
ENDBRANCH  29  30
ENDBRANCH  28  29
ENDBRANCH  27  28
ENDBRANCH  24  27
ENDBRANCH  18  23
ENDBRANCH   1  17
TORSDOF 10
ENDMDL
MODEL 10
REMARK VINA RESULT:      -7.0      2.524      7.143
REMARK  10 active torsions:
REMARK  status: ('A' for Active; 'I' for Inactive)
REMARK    1  A    between atoms: O_2  and  C_3 
REMARK    2  A    between atoms: C_6  and  C_7 
REMARK       I    between atoms: C_7  and  N_8 
REMARK    3  A    between atoms: N_8  and  C_9 
REMARK    4  A    between atoms: C_9  and  N_10 
REMARK    5  A    between atoms: N_10  and  C_11 
REMARK    6  A    between atoms: C_12  and  C_13 
REMARK       I    between atoms: C_13  and  N_14 
REMARK    7  A    between atoms: N_14  and  C_15 
REMARK    8  A    between atoms: C_15  and  C_16 
REMARK    9  A    between atoms: C_16  and  C_17 
REMARK   10  A    between atoms: C_17  and  O_18 
ROOT
HETATM    1  N   UNL     1       5.382  26.193  54.970  1.00  0.00    -0.332 N 
HETATM    2  H   UNL     1       4.418  26.246  54.664  1.00  0.00     0.168 HD
ENDROOT
BRANCH   1   3
HETATM    3  C   UNL     1       5.744  27.239  55.796  1.00  0.00     0.179 C 
HETATM    4  S   UNL     1       5.340  28.857  55.624  1.00  0.00    -0.040 SA
BRANCH   3   5
HETATM    5  N   UNL     1       6.385  26.888  56.974  1.00  0.00    -0.299 N 
HETATM    6  C   UNL     1       7.735  27.007  57.222  1.00  0.00     0.257 C 
HETATM    7  O   UNL     1       8.491  26.042  57.206  1.00  0.00    -0.267 OA
HETATM    8  H   UNL     1       6.026  25.986  57.266  1.00  0.00     0.171 HD
BRANCH   6   9
HETATM    9  C   UNL     1       8.256  28.361  57.518  1.00  0.00     0.032 A 
HETATM   10  C   UNL     1       7.609  29.180  58.448  1.00  0.00     0.020 A 
HETATM   11  C   UNL     1       8.187  30.400  58.814  1.00  0.00     0.038 A 
HETATM   12  C   UNL     1       9.398  30.792  58.239  1.00  0.00     0.068 A 
HETATM   13  C   UNL     1      10.014  29.997  57.272  1.00  0.00     0.038 A 
HETATM   14  C   UNL     1       9.460  28.764  56.931  1.00  0.00     0.020 A 
BRANCH  12  15
HETATM   15  O   UNL     1      10.014  31.973  58.553  1.00  0.00    -0.356 OA
HETATM   16  C   UNL     1       9.618  32.454  59.837  1.00  0.00     0.210 C 
ENDBRANCH  12  15
ENDBRANCH   6   9
ENDBRANCH   3   5
ENDBRANCH   1   3
BRANCH   1  17
HETATM   17  C   UNL     1       6.216  25.452  54.094  1.00  0.00     0.050 A 
HETATM   18  C   UNL     1       6.358  25.675  52.713  1.00  0.00     0.058 A 
HETATM   19  C   UNL     1       7.206  24.842  51.955  1.00  0.00     0.019 A 
HETATM   20  C   UNL     1       7.911  23.803  52.562  1.00  0.00     0.001 A 
HETATM   21  C   UNL     1       7.805  23.606  53.934  1.00  0.00     0.002 A 
HETATM   22  C   UNL     1       6.977  24.435  54.695  1.00  0.00     0.030 A 
BRANCH  18  23
HETATM   23  C   UNL     1       5.797  26.872  52.032  1.00  0.00     0.253 C 
HETATM   24  N   UNL     1       4.904  26.612  51.010  1.00  0.00    -0.357 N 
HETATM   25  H   UNL     1       4.658  25.653  50.796  1.00  0.00     0.162 HD
HETATM   26  O   UNL     1       6.146  28.000  52.361  1.00  0.00    -0.268 OA
BRANCH  24  27
HETATM   27  C   UNL     1       4.364  27.677  50.194  1.00  0.00     0.125 C 
BRANCH  27  28
HETATM   28  C   UNL     1       5.237  27.999  48.989  1.00  0.00     0.046 C 
BRANCH  28  29
HETATM   29  C   UNL     1       4.846  27.199  47.754  1.00  0.00     0.165 C 
BRANCH  29  30
HETATM   30  O   UNL     1       6.005  26.951  46.966  1.00  0.00    -0.401 OA
HETATM   31  H   UNL     1       6.625  27.683  47.123  1.00  0.00     0.209 HD
ENDBRANCH  29  30
ENDBRANCH  28  29
ENDBRANCH  27  28
ENDBRANCH  24  27
ENDBRANCH  18  23
ENDBRANCH   1  17
TORSDOF 10
ENDMDL
