MODEL 1
REMARK VINA RESULT:      -8.9      0.000      0.000
REMARK  4 active torsions:
REMARK  status: ('A' for Active; 'I' for Inactive)
REMARK    1  A    between atoms: C_2  and  N_3 
REMARK       I    between atoms: N_3  and  C_4 
REMARK       I    between atoms: C_4  and  N_5 
REMARK    2  A    between atoms: N_5  and  C_6 
REMARK    3  A    between atoms: C_14  and  C_15 
REMARK       I    between atoms: C_15  and  N_16 
REMARK    4  A    between atoms: N_16  and  C_17 
ROOT
HETATM    1  C   UNL     1       5.187  27.595  56.364  1.00  0.00     0.031 A 
HETATM    2  C   UNL     1       6.441  27.009  56.509  1.00  0.00     0.037 A 
HETATM    3  C   UNL     1       7.443  27.721  57.180  1.00  0.00     0.048 A 
HETATM    4  C   UNL     1       7.207  29.005  57.719  1.00  0.00     0.055 A 
HETATM    5  C   UNL     1       5.929  29.562  57.589  1.00  0.00     0.049 A 
HETATM    6 CL   UNL     1       5.456  31.092  58.243  1.00  0.00    -0.083 Cl
HETATM    7  C   UNL     1       4.930  28.857  56.908  1.00  0.00     0.027 A 
ENDROOT
BRANCH   2   8
HETATM    8  N   UNL     1       6.777  25.742  55.988  1.00  0.00    -0.309 N 
HETATM    9  C   UNL     1       7.404  25.475  54.803  1.00  0.00     0.325 C 
HETATM   10  N   UNL     1       7.788  24.180  54.583  1.00  0.00    -0.306 N 
HETATM   11  O   UNL     1       7.614  26.290  53.907  1.00  0.00    -0.247 OA
HETATM   12  H   UNL     1       8.104  24.029  53.632  1.00  0.00     0.171 HD
HETATM   13  H   UNL     1       6.323  24.949  56.416  1.00  0.00     0.170 HD
BRANCH  10  14
HETATM   14  C   UNL     1       7.951  23.125  55.458  1.00  0.00     0.072 A 
HETATM   15  C   UNL     1       8.419  23.028  56.786  1.00  0.00     0.169 A 
HETATM   16  N   UNL     1       8.409  21.773  57.244  1.00  0.00    -0.185 NA
HETATM   17  N   UNL     1       7.971  21.057  56.197  1.00  0.00    -0.287 N 
HETATM   18  H   UNL     1       7.891  20.051  56.301  1.00  0.00     0.188 HD
HETATM   19  C   UNL     1       7.694  21.821  55.101  1.00  0.00     0.140 A 
ENDBRANCH  10  14
ENDBRANCH   2   8
BRANCH   4  20
HETATM   20  C   UNL     1       8.380  29.646  58.393  1.00  0.00     0.253 C 
HETATM   21  N   UNL     1       8.222  30.083  59.688  1.00  0.00    -0.352 N 
HETATM   22  H   UNL     1       7.311  29.998  60.122  1.00  0.00     0.163 HD
HETATM   23  O   UNL     1       9.424  29.802  57.768  1.00  0.00    -0.268 OA
BRANCH  21  24
HETATM   24  C   UNL     1       9.258  30.817  60.406  1.00  0.00     0.084 C 
HETATM   25  C   UNL     1       9.017  32.331  60.321  1.00  0.00     0.025 C 
HETATM   26  C   UNL     1       7.825  32.782  61.165  1.00  0.00     0.002 C 
HETATM   27  C   UNL     1       7.958  32.326  62.614  1.00  0.00     0.000 C 
HETATM   28  C   UNL     1       8.164  30.817  62.715  1.00  0.00     0.002 C 
HETATM   29  C   UNL     1       9.343  30.348  61.864  1.00  0.00     0.025 C 
ENDBRANCH  21  24
ENDBRANCH   4  20
TORSDOF 4
ENDMDL
MODEL 2
REMARK VINA RESULT:      -8.8      5.943      9.120
REMARK  4 active torsions:
REMARK  status: ('A' for Active; 'I' for Inactive)
REMARK    1  A    between atoms: C_2  and  N_3 
REMARK       I    between atoms: N_3  and  C_4 
REMARK       I    between atoms: C_4  and  N_5 
REMARK    2  A    between atoms: N_5  and  C_6 
REMARK    3  A    between atoms: C_14  and  C_15 
REMARK       I    between atoms: C_15  and  N_16 
REMARK    4  A    between atoms: N_16  and  C_17 
ROOT
HETATM    1  C   UNL     1       4.449  27.312  53.117  1.00  0.00     0.031 A 
HETATM    2  C   UNL     1       4.850  26.756  51.906  1.00  0.00     0.037 A 
HETATM    3  C   UNL     1       5.850  25.775  51.913  1.00  0.00     0.048 A 
HETATM    4  C   UNL     1       6.447  25.333  53.115  1.00  0.00     0.055 A 
HETATM    5  C   UNL     1       6.006  25.884  54.325  1.00  0.00     0.049 A 
HETATM    6 CL   UNL     1       6.584  25.411  55.885  1.00  0.00    -0.083 Cl
HETATM    7  C   UNL     1       5.016  26.873  54.318  1.00  0.00     0.027 A 
ENDROOT
BRANCH   2   8
HETATM    8  N   UNL     1       4.329  27.147  50.655  1.00  0.00    -0.309 N 
HETATM    9  C   UNL     1       4.772  28.163  49.854  1.00  0.00     0.325 C 
HETATM   10  N   UNL     1       4.227  28.248  48.602  1.00  0.00    -0.306 N 
HETATM   11  O   UNL     1       5.587  29.024  50.180  1.00  0.00    -0.247 OA
HETATM   12  H   UNL     1       4.488  29.105  48.128  1.00  0.00     0.171 HD
HETATM   13  H   UNL     1       3.412  26.794  50.425  1.00  0.00     0.170 HD
BRANCH  10  14
HETATM   14  C   UNL     1       3.532  27.320  47.855  1.00  0.00     0.072 A 
HETATM   15  C   UNL     1       3.779  25.975  47.501  1.00  0.00     0.169 A 
HETATM   16  N   UNL     1       2.812  25.458  46.738  1.00  0.00    -0.185 NA
HETATM   17  N   UNL     1       1.962  26.482  46.567  1.00  0.00    -0.287 N 
HETATM   18  H   UNL     1       1.136  26.333  45.997  1.00  0.00     0.188 HD
HETATM   19  C   UNL     1       2.356  27.622  47.207  1.00  0.00     0.140 A 
ENDBRANCH  10  14
ENDBRANCH   2   8
BRANCH   4  20
HETATM   20  C   UNL     1       7.512  24.292  52.961  1.00  0.00     0.253 C 
HETATM   21  N   UNL     1       7.393  23.132  53.691  1.00  0.00    -0.352 N 
HETATM   22  H   UNL     1       6.618  23.042  54.337  1.00  0.00     0.163 HD
HETATM   23  O   UNL     1       8.472  24.515  52.231  1.00  0.00    -0.268 OA
BRANCH  21  24
HETATM   24  C   UNL     1       8.421  22.098  53.704  1.00  0.00     0.084 C 
HETATM   25  C   UNL     1       9.484  22.393  54.772  1.00  0.00     0.025 C 
HETATM   26  C   UNL     1       8.961  22.179  56.192  1.00  0.00     0.002 C 
HETATM   27  C   UNL     1       8.374  20.783  56.370  1.00  0.00     0.000 C 
HETATM   28  C   UNL     1       7.292  20.489  55.336  1.00  0.00     0.002 C 
HETATM   29  C   UNL     1       7.794  20.713  53.910  1.00  0.00     0.025 C 
ENDBRANCH  21  24
ENDBRANCH   4  20
TORSDOF 4
ENDMDL
MODEL 3
REMARK VINA RESULT:      -8.4      2.744      8.707
REMARK  4 active torsions:
REMARK  status: ('A' for Active; 'I' for Inactive)
REMARK    1  A    between atoms: C_2  and  N_3 
REMARK       I    between atoms: N_3  and  C_4 
REMARK       I    between atoms: C_4  and  N_5 
REMARK    2  A    between atoms: N_5  and  C_6 
REMARK    3  A    between atoms: C_14  and  C_15 
REMARK       I    between atoms: C_15  and  N_16 
REMARK    4  A    between atoms: N_16  and  C_17 
ROOT
HETATM    1  C   UNL     1       9.526  30.544  58.435  1.00  0.00     0.031 A 
HETATM    2  C   UNL     1       8.278  30.156  58.915  1.00  0.00     0.037 A 
HETATM    3  C   UNL     1       7.424  29.439  58.068  1.00  0.00     0.048 A 
HETATM    4  C   UNL     1       7.803  29.092  56.752  1.00  0.00     0.055 A 
HETATM    5  C   UNL     1       9.076  29.465  56.300  1.00  0.00     0.049 A 
HETATM    6 CL   UNL     1       9.719  29.068  54.745  1.00  0.00    -0.083 Cl
HETATM    7  C   UNL     1       9.925  30.193  57.142  1.00  0.00     0.027 A 
ENDROOT
BRANCH   2   8
HETATM    8  N   UNL     1       7.803  30.473  60.205  1.00  0.00    -0.309 N 
HETATM    9  C   UNL     1       8.519  30.488  61.370  1.00  0.00     0.325 C 
HETATM   10  N   UNL     1       7.893  30.998  62.475  1.00  0.00    -0.306 N 
HETATM   11  O   UNL     1       9.657  30.047  61.513  1.00  0.00    -0.247 OA
HETATM   12  H   UNL     1       8.423  30.837  63.324  1.00  0.00     0.171 HD
HETATM   13  H   UNL     1       6.800  30.475  60.322  1.00  0.00     0.170 HD
BRANCH  10  14
HETATM   14  C   UNL     1       6.775  31.797  62.591  1.00  0.00     0.072 A 
HETATM   15  C   UNL     1       5.433  31.545  62.953  1.00  0.00     0.169 A 
HETATM   16  N   UNL     1       4.676  32.646  62.921  1.00  0.00    -0.185 NA
HETATM   17  N   UNL     1       5.522  33.598  62.500  1.00  0.00    -0.287 N 
HETATM   18  H   UNL     1       5.165  34.541  62.381  1.00  0.00     0.188 HD
HETATM   19  C   UNL     1       6.787  33.137  62.278  1.00  0.00     0.140 A 
ENDBRANCH  10  14
ENDBRANCH   2   8
BRANCH   4  20
HETATM   20  C   UNL     1       6.777  28.340  55.962  1.00  0.00     0.253 C 
HETATM   21  N   UNL     1       7.083  27.060  55.560  1.00  0.00    -0.352 N 
HETATM   22  H   UNL     1       8.002  26.690  55.771  1.00  0.00     0.163 HD
HETATM   23  O   UNL     1       5.724  28.891  55.662  1.00  0.00    -0.268 OA
BRANCH  21  24
HETATM   24  C   UNL     1       6.208  26.274  54.698  1.00  0.00     0.084 C 
HETATM   25  C   UNL     1       6.586  26.455  53.221  1.00  0.00     0.025 C 
HETATM   26  C   UNL     1       7.901  25.762  52.864  1.00  0.00     0.002 C 
HETATM   27  C   UNL     1       7.882  24.287  53.250  1.00  0.00     0.000 C 
HETATM   28  C   UNL     1       7.541  24.094  54.725  1.00  0.00     0.002 C 
HETATM   29  C   UNL     1       6.236  24.794  55.101  1.00  0.00     0.025 C 
ENDBRANCH  21  24
ENDBRANCH   4  20
TORSDOF 4
ENDMDL
MODEL 4
REMARK VINA RESULT:      -8.3      2.533      8.374
REMARK  4 active torsions:
REMARK  status: ('A' for Active; 'I' for Inactive)
REMARK    1  A    between atoms: C_2  and  N_3 
REMARK       I    between atoms: N_3  and  C_4 
REMARK       I    between atoms: C_4  and  N_5 
REMARK    2  A    between atoms: N_5  and  C_6 
REMARK    3  A    between atoms: C_14  and  C_15 
REMARK       I    between atoms: C_15  and  N_16 
REMARK    4  A    between atoms: N_16  and  C_17 
ROOT
HETATM    1  C   UNL     1       5.774  30.958  56.991  1.00  0.00     0.031 A 
HETATM    2  C   UNL     1       6.393  29.941  57.714  1.00  0.00     0.037 A 
HETATM    3  C   UNL     1       6.206  28.615  57.304  1.00  0.00     0.048 A 
HETATM    4  C   UNL     1       5.421  28.290  56.176  1.00  0.00     0.055 A 
HETATM    5  C   UNL     1       4.833  29.331  55.445  1.00  0.00     0.049 A 
HETATM    6 CL   UNL     1       3.897  29.111  54.008  1.00  0.00    -0.083 Cl
HETATM    7  C   UNL     1       5.009  30.656  55.861  1.00  0.00     0.027 A 
ENDROOT
BRANCH   2   8
HETATM    8  N   UNL     1       7.178  30.165  58.864  1.00  0.00    -0.309 N 
HETATM    9  C   UNL     1       8.542  30.193  58.942  1.00  0.00     0.325 C 
HETATM   10  N   UNL     1       9.087  30.604  60.128  1.00  0.00    -0.306 N 
HETATM   11  O   UNL     1       9.315  29.842  58.052  1.00  0.00    -0.247 OA
HETATM   12  H   UNL     1      10.089  30.454  60.163  1.00  0.00     0.171 HD
HETATM   13  H   UNL     1       6.703  30.080  59.750  1.00  0.00     0.170 HD
BRANCH  10  14
HETATM   14  C   UNL     1       8.534  31.303  61.182  1.00  0.00     0.072 A 
HETATM   15  C   UNL     1       8.273  30.980  62.531  1.00  0.00     0.169 A 
HETATM   16  N   UNL     1       7.706  31.988  63.201  1.00  0.00    -0.185 NA
HETATM   17  N   UNL     1       7.567  32.946  62.271  1.00  0.00    -0.287 N 
HETATM   18  H   UNL     1       7.137  33.824  62.545  1.00  0.00     0.188 HD
HETATM   19  C   UNL     1       8.038  32.579  61.044  1.00  0.00     0.140 A 
ENDBRANCH  10  14
ENDBRANCH   2   8
BRANCH   4  20
HETATM   20  C   UNL     1       5.301  26.828  55.874  1.00  0.00     0.253 C 
HETATM   21  N   UNL     1       5.730  26.386  54.643  1.00  0.00    -0.352 N 
HETATM   22  H   UNL     1       6.068  27.066  53.973  1.00  0.00     0.163 HD
HETATM   23  O   UNL     1       4.791  26.081  56.702  1.00  0.00    -0.268 OA
BRANCH  21  24
HETATM   24  C   UNL     1       5.564  25.007  54.198  1.00  0.00     0.084 C 
HETATM   25  C   UNL     1       5.366  24.941  52.677  1.00  0.00     0.025 C 
HETATM   26  C   UNL     1       6.649  25.252  51.906  1.00  0.00     0.002 C 
HETATM   27  C   UNL     1       7.802  24.359  52.351  1.00  0.00     0.000 C 
HETATM   28  C   UNL     1       8.032  24.441  53.857  1.00  0.00     0.002 C 
HETATM   29  C   UNL     1       6.754  24.147  54.642  1.00  0.00     0.025 C 
ENDBRANCH  21  24
ENDBRANCH   4  20
TORSDOF 4
ENDMDL
MODEL 5
REMARK VINA RESULT:      -8.2      3.531      8.654
REMARK  4 active torsions:
REMARK  status: ('A' for Active; 'I' for Inactive)
REMARK    1  A    between atoms: C_2  and  N_3 
REMARK       I    between atoms: N_3  and  C_4 
REMARK       I    between atoms: C_4  and  N_5 
REMARK    2  A    between atoms: N_5  and  C_6 
REMARK    3  A    between atoms: C_14  and  C_15 
REMARK       I    between atoms: C_15  and  N_16 
REMARK    4  A    between atoms: N_16  and  C_17 
ROOT
HETATM    1  C   UNL     1       9.264  32.024  59.030  1.00  0.00     0.031 A 
HETATM    2  C   UNL     1       7.978  31.542  59.256  1.00  0.00     0.037 A 
HETATM    3  C   UNL     1       7.617  30.306  58.704  1.00  0.00     0.048 A 
HETATM    4  C   UNL     1       8.525  29.539  57.941  1.00  0.00     0.055 A 
HETATM    5  C   UNL     1       9.824  30.030  57.753  1.00  0.00     0.049 A 
HETATM    6 CL   UNL     1      11.074  29.191  56.901  1.00  0.00    -0.083 Cl
HETATM    7  C   UNL     1      10.182  31.270  58.293  1.00  0.00     0.027 A 
ENDROOT
BRANCH   2   8
HETATM    8  N   UNL     1       6.997  32.243  59.986  1.00  0.00    -0.309 N 
HETATM    9  C   UNL     1       5.848  32.804  59.501  1.00  0.00     0.325 C 
HETATM   10  N   UNL     1       4.955  33.282  60.422  1.00  0.00    -0.306 N 
HETATM   11  O   UNL     1       5.571  32.948  58.312  1.00  0.00    -0.247 OA
HETATM   12  H   UNL     1       4.208  33.815  59.991  1.00  0.00     0.171 HD
HETATM   13  H   UNL     1       7.265  32.554  60.908  1.00  0.00     0.170 HD
BRANCH  10  14
HETATM   14  C   UNL     1       4.832  33.036  61.773  1.00  0.00     0.072 A 
HETATM   15  C   UNL     1       5.121  31.918  62.587  1.00  0.00     0.169 A 
HETATM   16  N   UNL     1       4.829  32.131  63.874  1.00  0.00    -0.185 NA
HETATM   17  N   UNL     1       4.315  33.370  63.881  1.00  0.00    -0.287 N 
HETATM   18  H   UNL     1       3.999  33.755  64.766  1.00  0.00     0.188 HD
HETATM   19  C   UNL     1       4.285  33.949  62.646  1.00  0.00     0.140 A 
ENDBRANCH  10  14
ENDBRANCH   2   8
BRANCH   4  20
HETATM   20  C   UNL     1       7.988  28.249  57.405  1.00  0.00     0.253 C 
HETATM   21  N   UNL     1       7.544  28.226  56.102  1.00  0.00    -0.352 N 
HETATM   22  H   UNL     1       7.555  29.087  55.570  1.00  0.00     0.163 HD
HETATM   23  O   UNL     1       7.917  27.272  58.142  1.00  0.00    -0.268 OA
BRANCH  21  24
HETATM   24  C   UNL     1       6.904  27.059  55.507  1.00  0.00     0.084 C 
HETATM   25  C   UNL     1       5.387  27.083  55.747  1.00  0.00     0.025 C 
HETATM   26  C   UNL     1       4.680  28.152  54.914  1.00  0.00     0.002 C 
HETATM   27  C   UNL     1       5.000  28.010  53.430  1.00  0.00     0.000 C 
HETATM   28  C   UNL     1       6.505  28.019  53.173  1.00  0.00     0.002 C 
HETATM   29  C   UNL     1       7.229  26.966  54.011  1.00  0.00     0.025 C 
ENDBRANCH  21  24
ENDBRANCH   4  20
TORSDOF 4
ENDMDL
MODEL 6
REMARK VINA RESULT:      -8.2      4.395      7.418
REMARK  4 active torsions:
REMARK  status: ('A' for Active; 'I' for Inactive)
REMARK    1  A    between atoms: C_2  and  N_3 
REMARK       I    between atoms: N_3  and  C_4 
REMARK       I    between atoms: C_4  and  N_5 
REMARK    2  A    between atoms: N_5  and  C_6 
REMARK    3  A    between atoms: C_14  and  C_15 
REMARK       I    between atoms: C_15  and  N_16 
REMARK    4  A    between atoms: N_16  and  C_17 
ROOT
HETATM    1  C   UNL     1       8.052  31.511  62.236  1.00  0.00     0.031 A 
HETATM    2  C   UNL     1       7.267  31.966  61.180  1.00  0.00     0.037 A 
HETATM    3  C   UNL     1       6.415  33.056  61.395  1.00  0.00     0.048 A 
HETATM    4  C   UNL     1       6.345  33.708  62.647  1.00  0.00     0.055 A 
HETATM    5  C   UNL     1       7.167  33.253  63.686  1.00  0.00     0.049 A 
HETATM    6 CL   UNL     1       7.251  33.975  65.256  1.00  0.00    -0.083 Cl
HETATM    7  C   UNL     1       8.009  32.156  63.476  1.00  0.00     0.027 A 
ENDROOT
BRANCH   2   8
HETATM    8  N   UNL     1       7.252  31.368  59.902  1.00  0.00    -0.309 N 
HETATM    9  C   UNL     1       8.222  31.445  58.942  1.00  0.00     0.325 C 
HETATM   10  N   UNL     1       8.074  30.639  57.845  1.00  0.00    -0.306 N 
HETATM   11  O   UNL     1       9.190  32.203  58.964  1.00  0.00    -0.247 OA
HETATM   12  H   UNL     1       8.741  30.860  57.115  1.00  0.00     0.171 HD
HETATM   13  H   UNL     1       6.357  31.036  59.576  1.00  0.00     0.170 HD
BRANCH  10  14
HETATM   14  C   UNL     1       7.292  29.520  57.646  1.00  0.00     0.072 A 
HETATM   15  C   UNL     1       5.926  29.331  57.342  1.00  0.00     0.169 A 
HETATM   16  N   UNL     1       5.595  28.040  57.245  1.00  0.00    -0.185 NA
HETATM   17  N   UNL     1       6.740  27.398  57.526  1.00  0.00    -0.287 N 
HETATM   18  H   UNL     1       6.735  26.383  57.529  1.00  0.00     0.188 HD
HETATM   19  C   UNL     1       7.781  28.241  57.784  1.00  0.00     0.140 A 
ENDBRANCH  10  14
ENDBRANCH   2   8
BRANCH   4  20
HETATM   20  C   UNL     1       5.376  34.847  62.727  1.00  0.00     0.253 C 
HETATM   21  N   UNL     1       5.778  36.071  62.246  1.00  0.00    -0.352 N 
HETATM   22  H   UNL     1       6.723  36.171  61.898  1.00  0.00     0.163 HD
HETATM   23  O   UNL     1       4.282  34.671  63.252  1.00  0.00    -0.268 OA
BRANCH  21  24
HETATM   24  C   UNL     1       4.962  37.274  62.369  1.00  0.00     0.084 C 
HETATM   25  C   UNL     1       5.254  38.003  63.689  1.00  0.00     0.025 C 
HETATM   26  C   UNL     1       6.622  38.684  63.691  1.00  0.00     0.002 C 
HETATM   27  C   UNL     1       6.787  39.618  62.497  1.00  0.00     0.000 C 
HETATM   28  C   UNL     1       6.533  38.898  61.176  1.00  0.00     0.002 C 
HETATM   29  C   UNL     1       5.174  38.199  61.164  1.00  0.00     0.025 C 
ENDBRANCH  21  24
ENDBRANCH   4  20
TORSDOF 4
ENDMDL
MODEL 7
REMARK VINA RESULT:      -8.2      4.405      7.361
REMARK  4 active torsions:
REMARK  status: ('A' for Active; 'I' for Inactive)
REMARK    1  A    between atoms: C_2  and  N_3 
REMARK       I    between atoms: N_3  and  C_4 
REMARK       I    between atoms: C_4  and  N_5 
REMARK    2  A    between atoms: N_5  and  C_6 
REMARK    3  A    between atoms: C_14  and  C_15 
REMARK       I    between atoms: C_15  and  N_16 
REMARK    4  A    between atoms: N_16  and  C_17 
ROOT
HETATM    1  C   UNL     1       8.357  31.724  62.169  1.00  0.00     0.031 A 
HETATM    2  C   UNL     1       7.292  31.795  61.275  1.00  0.00     0.037 A 
HETATM    3  C   UNL     1       6.121  32.452  61.674  1.00  0.00     0.048 A 
HETATM    4  C   UNL     1       6.003  33.051  62.948  1.00  0.00     0.055 A 
HETATM    5  C   UNL     1       7.099  32.995  63.819  1.00  0.00     0.049 A 
HETATM    6 CL   UNL     1       7.144  33.728  65.385  1.00  0.00    -0.083 Cl
HETATM    7  C   UNL     1       8.265  32.327  63.426  1.00  0.00     0.027 A 
ENDROOT
BRANCH   2   8
HETATM    8  N   UNL     1       7.307  31.211  59.991  1.00  0.00    -0.309 N 
HETATM    9  C   UNL     1       8.228  31.414  59.001  1.00  0.00     0.325 C 
HETATM   10  N   UNL     1       8.143  30.606  57.900  1.00  0.00    -0.306 N 
HETATM   11  O   UNL     1       9.096  32.285  59.002  1.00  0.00    -0.247 OA
HETATM   12  H   UNL     1       8.753  30.912  57.151  1.00  0.00     0.171 HD
HETATM   13  H   UNL     1       6.449  30.775  59.690  1.00  0.00     0.170 HD
BRANCH  10  14
HETATM   14  C   UNL     1       7.497  29.401  57.712  1.00  0.00     0.072 A 
HETATM   15  C   UNL     1       7.920  28.055  57.760  1.00  0.00     0.169 A 
HETATM   16  N   UNL     1       6.930  27.195  57.499  1.00  0.00    -0.185 NA
HETATM   17  N   UNL     1       5.880  27.991  57.244  1.00  0.00    -0.287 N 
HETATM   18  H   UNL     1       4.995  27.557  57.001  1.00  0.00     0.188 HD
HETATM   19  C   UNL     1       6.172  29.320  57.348  1.00  0.00     0.140 A 
ENDBRANCH  10  14
ENDBRANCH   2   8
BRANCH   4  20
HETATM   20  C   UNL     1       4.686  33.701  63.236  1.00  0.00     0.253 C 
HETATM   21  N   UNL     1       4.291  34.745  62.431  1.00  0.00    -0.352 N 
HETATM   22  H   UNL     1       4.922  35.065  61.706  1.00  0.00     0.163 HD
HETATM   23  O   UNL     1       4.021  33.320  64.194  1.00  0.00    -0.268 OA
BRANCH  21  24
HETATM   24  C   UNL     1       3.083  35.522  62.681  1.00  0.00     0.084 C 
HETATM   25  C   UNL     1       3.307  37.006  62.358  1.00  0.00     0.025 C 
HETATM   26  C   UNL     1       3.411  37.268  60.856  1.00  0.00     0.002 C 
HETATM   27  C   UNL     1       2.204  36.717  60.104  1.00  0.00     0.000 C 
HETATM   28  C   UNL     1       1.990  35.234  60.389  1.00  0.00     0.002 C 
HETATM   29  C   UNL     1       1.899  34.953  61.889  1.00  0.00     0.025 C 
ENDBRANCH  21  24
ENDBRANCH   4  20
TORSDOF 4
ENDMDL
MODEL 8
REMARK VINA RESULT:      -8.0      5.330      8.466
REMARK  4 active torsions:
REMARK  status: ('A' for Active; 'I' for Inactive)
REMARK    1  A    between atoms: C_2  and  N_3 
REMARK       I    between atoms: N_3  and  C_4 
REMARK       I    between atoms: C_4  and  N_5 
REMARK    2  A    between atoms: N_5  and  C_6 
REMARK    3  A    between atoms: C_14  and  C_15 
REMARK       I    between atoms: C_15  and  N_16 
REMARK    4  A    between atoms: N_16  and  C_17 
ROOT
HETATM    1  C   UNL     1       5.545  26.278  54.978  1.00  0.00     0.031 A 
HETATM    2  C   UNL     1       6.051  25.668  53.833  1.00  0.00     0.037 A 
HETATM    3  C   UNL     1       5.871  26.303  52.597  1.00  0.00     0.048 A 
HETATM    4  C   UNL     1       5.204  27.543  52.490  1.00  0.00     0.055 A 
HETATM    5  C   UNL     1       4.731  28.154  53.658  1.00  0.00     0.049 A 
HETATM    6 CL   UNL     1       3.950  29.697  53.711  1.00  0.00    -0.083 Cl
HETATM    7  C   UNL     1       4.899  27.515  54.892  1.00  0.00     0.027 A 
ENDROOT
BRANCH   2   8
HETATM    8  N   UNL     1       6.711  24.422  53.837  1.00  0.00    -0.309 N 
HETATM    9  C   UNL     1       7.792  24.056  53.084  1.00  0.00     0.325 C 
HETATM   10  N   UNL     1       8.377  22.855  53.382  1.00  0.00    -0.306 N 
HETATM   11  O   UNL     1       8.254  24.696  52.140  1.00  0.00    -0.247 OA
HETATM   12  H   UNL     1       9.067  22.583  52.691  1.00  0.00     0.171 HD
HETATM   13  H   UNL     1       6.216  23.656  54.268  1.00  0.00     0.170 HD
BRANCH  10  14
HETATM   14  C   UNL     1       8.289  22.062  54.507  1.00  0.00     0.072 A 
HETATM   15  C   UNL     1       8.592  22.273  55.870  1.00  0.00     0.169 A 
HETATM   16  N   UNL     1       8.349  21.195  56.623  1.00  0.00    -0.185 NA
HETATM   17  N   UNL     1       7.928  20.280  55.738  1.00  0.00    -0.287 N 
HETATM   18  H   UNL     1       7.691  19.353  56.079  1.00  0.00     0.188 HD
HETATM   19  C   UNL     1       7.885  20.747  54.457  1.00  0.00     0.140 A 
ENDBRANCH  10  14
ENDBRANCH   2   8
BRANCH   4  20
HETATM   20  C   UNL     1       5.075  28.088  51.101  1.00  0.00     0.253 C 
HETATM   21  N   UNL     1       4.358  27.354  50.184  1.00  0.00    -0.352 N 
HETATM   22  H   UNL     1       3.983  26.457  50.465  1.00  0.00     0.163 HD
HETATM   23  O   UNL     1       5.640  29.137  50.809  1.00  0.00    -0.268 OA
BRANCH  21  24
HETATM   24  C   UNL     1       4.255  27.731  48.779  1.00  0.00     0.084 C 
HETATM   25  C   UNL     1       4.361  26.497  47.871  1.00  0.00     0.025 C 
HETATM   26  C   UNL     1       3.116  25.613  47.937  1.00  0.00     0.002 C 
HETATM   27  C   UNL     1       1.848  26.407  47.642  1.00  0.00     0.000 C 
HETATM   28  C   UNL     1       1.712  27.618  48.560  1.00  0.00     0.002 C 
HETATM   29  C   UNL     1       2.957  28.504  48.517  1.00  0.00     0.025 C 
ENDBRANCH  21  24
ENDBRANCH   4  20
TORSDOF 4
ENDMDL
MODEL 9
REMARK VINA RESULT:      -7.8      3.079      8.949
REMARK  4 active torsions:
REMARK  status: ('A' for Active; 'I' for Inactive)
REMARK    1  A    between atoms: C_2  and  N_3 
REMARK       I    between atoms: N_3  and  C_4 
REMARK       I    between atoms: C_4  and  N_5 
REMARK    2  A    between atoms: N_5  and  C_6 
REMARK    3  A    between atoms: C_14  and  C_15 
REMARK       I    between atoms: C_15  and  N_16 
REMARK    4  A    between atoms: N_16  and  C_17 
ROOT
HETATM    1  C   UNL     1       9.311  31.414  59.526  1.00  0.00     0.031 A 
HETATM    2  C   UNL     1       7.959  31.121  59.684  1.00  0.00     0.037 A 
HETATM    3  C   UNL     1       7.304  30.402  58.676  1.00  0.00     0.048 A 
HETATM    4  C   UNL     1       7.983  29.959  57.519  1.00  0.00     0.055 A 
HETATM    5  C   UNL     1       9.351  30.238  57.396  1.00  0.00     0.049 A 
HETATM    6 CL   UNL     1      10.342  29.717  56.078  1.00  0.00    -0.083 Cl
HETATM    7  C   UNL     1      10.003  30.968  58.396  1.00  0.00     0.027 A 
ENDROOT
BRANCH   2   8
HETATM    8  N   UNL     1       7.192  31.537  60.792  1.00  0.00    -0.309 N 
HETATM    9  C   UNL     1       7.492  31.370  62.116  1.00  0.00     0.325 C 
HETATM   10  N   UNL     1       6.689  32.011  63.019  1.00  0.00    -0.306 N 
HETATM   11  O   UNL     1       8.395  30.661  62.558  1.00  0.00    -0.247 OA
HETATM   12  H   UNL     1       6.876  31.720  63.972  1.00  0.00     0.171 HD
HETATM   13  H   UNL     1       6.233  31.785  60.602  1.00  0.00     0.170 HD
BRANCH  10  14
HETATM   14  C   UNL     1       5.808  33.060  62.859  1.00  0.00     0.072 A 
HETATM   15  C   UNL     1       4.412  33.133  62.657  1.00  0.00     0.169 A 
HETATM   16  N   UNL     1       3.974  34.391  62.545  1.00  0.00    -0.185 NA
HETATM   17  N   UNL     1       5.094  35.125  62.636  1.00  0.00    -0.287 N 
HETATM   18  H   UNL     1       5.016  36.134  62.562  1.00  0.00     0.188 HD
HETATM   19  C   UNL     1       6.219  34.372  62.812  1.00  0.00     0.140 A 
ENDBRANCH  10  14
ENDBRANCH   2   8
BRANCH   4  20
HETATM   20  C   UNL     1       7.146  29.217  56.524  1.00  0.00     0.253 C 
HETATM   21  N   UNL     1       7.328  27.858  56.412  1.00  0.00    -0.352 N 
HETATM   22  H   UNL     1       8.049  27.417  56.970  1.00  0.00     0.163 HD
HETATM   23  O   UNL     1       6.361  29.837  55.815  1.00  0.00    -0.268 OA
BRANCH  21  24
HETATM   24  C   UNL     1       6.648  27.051  55.406  1.00  0.00     0.084 C 
HETATM   25  C   UNL     1       7.601  26.010  54.802  1.00  0.00     0.025 C 
HETATM   26  C   UNL     1       7.932  24.882  55.779  1.00  0.00     0.002 C 
HETATM   27  C   UNL     1       6.670  24.222  56.324  1.00  0.00     0.000 C 
HETATM   28  C   UNL     1       5.728  25.242  56.959  1.00  0.00     0.002 C 
HETATM   29  C   UNL     1       5.400  26.384  55.998  1.00  0.00     0.025 C 
ENDBRANCH  21  24
ENDBRANCH   4  20
TORSDOF 4
ENDMDL
MODEL 10
REMARK VINA RESULT:      -7.7      3.519      4.749
REMARK  4 active torsions:
REMARK  status: ('A' for Active; 'I' for Inactive)
REMARK    1  A    between atoms: C_2  and  N_3 
REMARK       I    between atoms: N_3  and  C_4 
REMARK       I    between atoms: C_4  and  N_5 
REMARK    2  A    between atoms: N_5  and  C_6 
REMARK    3  A    between atoms: C_14  and  C_15 
REMARK       I    between atoms: C_15  and  N_16 
REMARK    4  A    between atoms: N_16  and  C_17 
ROOT
HETATM    1  C   UNL     1       8.555  28.911  56.919  1.00  0.00     0.031 A 
HETATM    2  C   UNL     1       7.210  29.127  56.632  1.00  0.00     0.037 A 
HETATM    3  C   UNL     1       6.540  30.164  57.293  1.00  0.00     0.048 A 
HETATM    4  C   UNL     1       7.196  30.997  58.225  1.00  0.00     0.055 A 
HETATM    5  C   UNL     1       8.558  30.782  58.475  1.00  0.00     0.049 A 
HETATM    6 CL   UNL     1       9.524  31.747  59.537  1.00  0.00    -0.083 Cl
HETATM    7  C   UNL     1       9.226  29.737  57.825  1.00  0.00     0.027 A 
ENDROOT
BRANCH   2   8
HETATM    8  N   UNL     1       6.465  28.336  55.733  1.00  0.00    -0.309 N 
HETATM    9  C   UNL     1       5.685  27.253  56.033  1.00  0.00     0.325 C 
HETATM   10  N   UNL     1       4.913  26.747  55.023  1.00  0.00    -0.306 N 
HETATM   11  O   UNL     1       5.652  26.677  57.119  1.00  0.00    -0.247 OA
HETATM   12  H   UNL     1       4.484  25.864  55.274  1.00  0.00     0.171 HD
HETATM   13  H   UNL     1       6.696  28.435  54.756  1.00  0.00     0.170 HD
BRANCH  10  14
HETATM   14  C   UNL     1       4.519  27.302  53.823  1.00  0.00     0.072 A 
HETATM   15  C   UNL     1       3.681  28.386  53.483  1.00  0.00     0.169 A 
HETATM   16  N   UNL     1       3.578  28.561  52.161  1.00  0.00    -0.185 NA
HETATM   17  N   UNL     1       4.318  27.565  51.652  1.00  0.00    -0.287 N 
HETATM   18  H   UNL     1       4.382  27.480  50.643  1.00  0.00     0.188 HD
HETATM   19  C   UNL     1       4.892  26.777  52.607  1.00  0.00     0.140 A 
ENDBRANCH  10  14
ENDBRANCH   2   8
BRANCH   4  20
HETATM   20  C   UNL     1       6.344  32.051  58.861  1.00  0.00     0.253 C 
HETATM   21  N   UNL     1       6.119  31.970  60.216  1.00  0.00    -0.352 N 
HETATM   22  H   UNL     1       6.498  31.181  60.725  1.00  0.00     0.163 HD
HETATM   23  O   UNL     1       5.839  32.923  58.161  1.00  0.00    -0.268 OA
BRANCH  21  24
HETATM   24  C   UNL     1       5.221  32.875  60.923  1.00  0.00     0.084 C 
HETATM   25  C   UNL     1       4.356  32.111  61.936  1.00  0.00     0.025 C 
HETATM   26  C   UNL     1       5.158  31.632  63.146  1.00  0.00     0.002 C 
HETATM   27  C   UNL     1       5.904  32.781  63.815  1.00  0.00     0.000 C 
HETATM   28  C   UNL     1       6.794  33.529  62.827  1.00  0.00     0.002 C 
HETATM   29  C   UNL     1       6.009  34.001  61.603  1.00  0.00     0.025 C 
ENDBRANCH  21  24
ENDBRANCH   4  20
TORSDOF 4
ENDMDL
