MODEL 1
REMARK VINA RESULT:      -9.2      0.000      0.000
REMARK  7 active torsions:
REMARK  status: ('A' for Active; 'I' for Inactive)
REMARK    1  A    between atoms: C_7  and  S_8 
REMARK    2  A    between atoms: S_8  and  C_9 
REMARK    3  A    between atoms: C_9  and  C_10 
REMARK    4  A    between atoms: C_18  and  C_19 
REMARK    5  A    between atoms: C_26  and  C_27 
REMARK    6  A    between atoms: C_27  and  O_28 
REMARK    7  A    between atoms: O_28  and  C_29 
ROOT
HETATM    1  C   UNL     1       3.083  28.897  52.243  1.00  0.00     0.070 C 
HETATM    2  C   UNL     1       4.372  28.530  52.938  1.00  0.00     0.037 A 
HETATM    3  N   UNL     1       4.531  29.053  54.216  1.00  0.00    -0.192 N 
HETATM    4  C   UNL     1       5.672  28.952  54.920  1.00  0.00     0.726 A 
HETATM    5  N   UNL     1       6.726  28.258  54.396  1.00  0.00    -0.082 N 
HETATM    6  N   UNL     1       7.809  28.332  55.198  1.00  0.00    -0.128 NA
HETATM    7  C   UNL     1       7.304  29.010  56.237  1.00  0.00     0.226 A 
HETATM    8  N   UNL     1       6.004  29.428  56.090  1.00  0.00    -0.035 NA
HETATM    9  C   UNL     1       6.682  27.542  53.114  1.00  0.00     0.203 A 
HETATM   10  C   UNL     1       5.366  27.791  52.385  1.00  0.00     0.070 A 
HETATM   11  H   UNL     1       3.773  29.613  54.598  1.00  0.00     0.184 HD
ENDROOT
BRANCH   7  12
HETATM   12  S   UNL     1       8.195  29.345  57.695  1.00  0.00    -0.083 SA
BRANCH  12  13
HETATM   13  C   UNL     1       7.357  30.835  58.300  1.00  0.00     0.123 C 
BRANCH  13  14
HETATM   14  C   UNL     1       7.792  31.163  59.711  1.00  0.00    -0.027 A 
HETATM   15  C   UNL     1       7.063  32.023  60.551  1.00  0.00     0.041 A 
HETATM   16 CL   UNL     1       5.579  32.756  60.053  1.00  0.00    -0.084 Cl
HETATM   17  C   UNL     1       7.526  32.322  61.836  1.00  0.00     0.024 A 
HETATM   18  C   UNL     1       8.724  31.778  62.298  1.00  0.00     0.002 A 
HETATM   19  C   UNL     1       9.463  30.932  61.476  1.00  0.00     0.001 A 
HETATM   20  C   UNL     1       9.001  30.627  60.193  1.00  0.00     0.009 A 
ENDBRANCH  13  14
ENDBRANCH  12  13
ENDBRANCH   7  12
BRANCH   9  21
HETATM   21  C   UNL     1       6.964  26.058  53.349  1.00  0.00    -0.028 A 
HETATM   22  C   UNL     1       7.886  25.348  52.556  1.00  0.00     0.012 A 
HETATM   23  C   UNL     1       8.108  23.987  52.777  1.00  0.00     0.043 A 
HETATM   24  C   UNL     1       7.415  23.333  53.787  1.00  0.00     0.116 A 
HETATM   25  F   UNL     1       7.628  22.026  53.995  1.00  0.00    -0.206 F 
HETATM   26  C   UNL     1       6.503  24.011  54.584  1.00  0.00     0.043 A 
HETATM   27  C   UNL     1       6.278  25.372  54.368  1.00  0.00     0.012 A 
ENDBRANCH   9  21
BRANCH  10  28
HETATM   28  C   UNL     1       5.309  27.195  51.034  1.00  0.00     0.294 C 
HETATM   29  O   UNL     1       4.888  26.068  50.825  1.00  0.00    -0.259 OA
BRANCH  28  30
HETATM   30  O   UNL     1       5.709  28.095  50.107  1.00  0.00    -0.313 OA
BRANCH  30  31
HETATM   31  C   UNL     1       4.776  28.435  49.065  1.00  0.00     0.124 C 
HETATM   32  C   UNL     1       4.691  29.952  48.983  1.00  0.00     0.040 C 
HETATM   33  C   UNL     1       5.312  27.843  47.767  1.00  0.00     0.040 C 
ENDBRANCH  30  31
ENDBRANCH  28  30
ENDBRANCH  10  28
TORSDOF 7
ENDMDL
MODEL 2
REMARK VINA RESULT:      -9.2      4.100      7.842
REMARK  7 active torsions:
REMARK  status: ('A' for Active; 'I' for Inactive)
REMARK    1  A    between atoms: C_7  and  S_8 
REMARK    2  A    between atoms: S_8  and  C_9 
REMARK    3  A    between atoms: C_9  and  C_10 
REMARK    4  A    between atoms: C_18  and  C_19 
REMARK    5  A    between atoms: C_26  and  C_27 
REMARK    6  A    between atoms: C_27  and  O_28 
REMARK    7  A    between atoms: O_28  and  C_29 
ROOT
HETATM    1  C   UNL     1       2.804  31.305  54.577  1.00  0.00     0.070 C 
HETATM    2  C   UNL     1       3.665  30.081  54.770  1.00  0.00     0.037 A 
HETATM    3  N   UNL     1       3.779  29.249  53.663  1.00  0.00    -0.192 N 
HETATM    4  C   UNL     1       4.383  28.046  53.699  1.00  0.00     0.726 A 
HETATM    5  N   UNL     1       4.968  27.623  54.858  1.00  0.00    -0.082 N 
HETATM    6  N   UNL     1       5.448  26.367  54.735  1.00  0.00    -0.128 NA
HETATM    7  C   UNL     1       5.199  26.132  53.440  1.00  0.00     0.226 A 
HETATM    8  N   UNL     1       4.524  27.130  52.780  1.00  0.00    -0.035 NA
HETATM    9  C   UNL     1       5.044  28.431  56.083  1.00  0.00     0.203 A 
HETATM   10  C   UNL     1       4.268  29.735  55.937  1.00  0.00     0.070 A 
HETATM   11  H   UNL     1       3.307  29.528  52.807  1.00  0.00     0.184 HD
ENDROOT
BRANCH   7  12
HETATM   12  S   UNL     1       5.691  24.682  52.612  1.00  0.00    -0.083 SA
BRANCH  12  13
HETATM   13  C   UNL     1       7.383  24.467  53.226  1.00  0.00     0.123 C 
BRANCH  13  14
HETATM   14  C   UNL     1       7.586  23.071  53.772  1.00  0.00    -0.027 A 
HETATM   15  C   UNL     1       7.617  22.790  55.149  1.00  0.00     0.041 A 
HETATM   16 CL   UNL     1       7.388  24.017  56.345  1.00  0.00    -0.084 Cl
HETATM   17  C   UNL     1       7.842  21.486  55.604  1.00  0.00     0.024 A 
HETATM   18  C   UNL     1       8.050  20.450  54.695  1.00  0.00     0.002 A 
HETATM   19  C   UNL     1       8.032  20.712  53.329  1.00  0.00     0.001 A 
HETATM   20  C   UNL     1       7.802  22.011  52.871  1.00  0.00     0.009 A 
ENDBRANCH  13  14
ENDBRANCH  12  13
ENDBRANCH   7  12
BRANCH   9  21
HETATM   21  C   UNL     1       6.510  28.648  56.461  1.00  0.00    -0.028 A 
HETATM   22  C   UNL     1       7.450  29.119  55.525  1.00  0.00     0.012 A 
HETATM   23  C   UNL     1       8.788  29.288  55.890  1.00  0.00     0.043 A 
HETATM   24  C   UNL     1       9.190  28.987  57.184  1.00  0.00     0.116 A 
HETATM   25  F   UNL     1      10.475  29.147  57.530  1.00  0.00    -0.206 F 
HETATM   26  C   UNL     1       8.281  28.523  58.126  1.00  0.00     0.043 A 
HETATM   27  C   UNL     1       6.943  28.355  57.768  1.00  0.00     0.012 A 
ENDBRANCH   9  21
BRANCH  10  28
HETATM   28  C   UNL     1       4.206  30.537  57.176  1.00  0.00     0.294 C 
HETATM   29  O   UNL     1       3.345  30.375  58.027  1.00  0.00    -0.259 OA
BRANCH  28  30
HETATM   30  O   UNL     1       5.260  31.383  57.240  1.00  0.00    -0.313 OA
BRANCH  30  31
HETATM   31  C   UNL     1       5.479  32.078  58.482  1.00  0.00     0.124 C 
HETATM   32  C   UNL     1       6.953  31.954  58.839  1.00  0.00     0.040 C 
HETATM   33  C   UNL     1       5.086  33.534  58.260  1.00  0.00     0.040 C 
ENDBRANCH  30  31
ENDBRANCH  28  30
ENDBRANCH  10  28
TORSDOF 7
ENDMDL
MODEL 3
REMARK VINA RESULT:      -8.8      4.746      6.920
REMARK  7 active torsions:
REMARK  status: ('A' for Active; 'I' for Inactive)
REMARK    1  A    between atoms: C_7  and  S_8 
REMARK    2  A    between atoms: S_8  and  C_9 
REMARK    3  A    between atoms: C_9  and  C_10 
REMARK    4  A    between atoms: C_18  and  C_19 
REMARK    5  A    between atoms: C_26  and  C_27 
REMARK    6  A    between atoms: C_27  and  O_28 
REMARK    7  A    between atoms: O_28  and  C_29 
ROOT
HETATM    1  C   UNL     1      11.011  29.626  56.832  1.00  0.00     0.070 C 
HETATM    2  C   UNL     1       9.733  30.026  57.525  1.00  0.00     0.037 A 
HETATM    3  N   UNL     1       9.809  31.177  58.302  1.00  0.00    -0.192 N 
HETATM    4  C   UNL     1       8.813  31.597  59.103  1.00  0.00     0.726 A 
HETATM    5  N   UNL     1       7.636  30.904  59.131  1.00  0.00    -0.082 N 
HETATM    6  N   UNL     1       6.787  31.416  60.047  1.00  0.00    -0.128 NA
HETATM    7  C   UNL     1       7.486  32.479  60.467  1.00  0.00     0.226 A 
HETATM    8  N   UNL     1       8.743  32.606  59.928  1.00  0.00    -0.035 NA
HETATM    9  C   UNL     1       7.347  29.740  58.282  1.00  0.00     0.203 A 
HETATM   10  C   UNL     1       8.572  29.324  57.476  1.00  0.00     0.070 A 
HETATM   11  H   UNL     1      10.695  31.675  58.328  1.00  0.00     0.184 HD
ENDROOT
BRANCH   7  12
HETATM   12  S   UNL     1       6.876  33.646  61.605  1.00  0.00    -0.083 SA
BRANCH  12  13
HETATM   13  C   UNL     1       5.883  32.601  62.704  1.00  0.00     0.123 C 
BRANCH  13  14
HETATM   14  C   UNL     1       5.784  33.210  64.085  1.00  0.00    -0.027 A 
HETATM   15  C   UNL     1       4.596  33.767  64.587  1.00  0.00     0.041 A 
HETATM   16 CL   UNL     1       3.125  33.772  63.679  1.00  0.00    -0.084 Cl
HETATM   17  C   UNL     1       4.566  34.351  65.858  1.00  0.00     0.024 A 
HETATM   18  C   UNL     1       5.719  34.395  66.640  1.00  0.00     0.002 A 
HETATM   19  C   UNL     1       6.907  33.857  66.154  1.00  0.00     0.001 A 
HETATM   20  C   UNL     1       6.940  33.269  64.888  1.00  0.00     0.009 A 
ENDBRANCH  13  14
ENDBRANCH  12  13
ENDBRANCH   7  12
BRANCH   9  21
HETATM   21  C   UNL     1       6.128  30.037  57.407  1.00  0.00    -0.028 A 
HETATM   22  C   UNL     1       5.069  29.118  57.282  1.00  0.00     0.012 A 
HETATM   23  C   UNL     1       3.978  29.404  56.459  1.00  0.00     0.043 A 
HETATM   24  C   UNL     1       3.940  30.604  55.760  1.00  0.00     0.116 A 
HETATM   25  F   UNL     1       2.894  30.874  54.968  1.00  0.00    -0.206 F 
HETATM   26  C   UNL     1       4.972  31.527  55.868  1.00  0.00     0.043 A 
HETATM   27  C   UNL     1       6.064  31.247  56.691  1.00  0.00     0.012 A 
ENDBRANCH   9  21
BRANCH  10  28
HETATM   28  C   UNL     1       8.381  28.086  56.693  1.00  0.00     0.294 C 
HETATM   29  O   UNL     1       8.273  28.081  55.476  1.00  0.00    -0.259 OA
BRANCH  28  30
HETATM   30  O   UNL     1       8.422  27.006  57.506  1.00  0.00    -0.313 OA
BRANCH  30  31
HETATM   31  C   UNL     1       8.016  25.740  56.951  1.00  0.00     0.124 C 
HETATM   32  C   UNL     1       8.884  24.654  57.569  1.00  0.00     0.040 C 
HETATM   33  C   UNL     1       6.548  25.541  57.306  1.00  0.00     0.040 C 
ENDBRANCH  30  31
ENDBRANCH  28  30
ENDBRANCH  10  28
TORSDOF 7
ENDMDL
MODEL 4
REMARK VINA RESULT:      -8.8      4.044      8.424
REMARK  7 active torsions:
REMARK  status: ('A' for Active; 'I' for Inactive)
REMARK    1  A    between atoms: C_7  and  S_8 
REMARK    2  A    between atoms: S_8  and  C_9 
REMARK    3  A    between atoms: C_9  and  C_10 
REMARK    4  A    between atoms: C_18  and  C_19 
REMARK    5  A    between atoms: C_26  and  C_27 
REMARK    6  A    between atoms: C_27  and  O_28 
REMARK    7  A    between atoms: O_28  and  C_29 
ROOT
HETATM    1  C   UNL     1       5.910  30.571  56.995  1.00  0.00     0.070 C 
HETATM    2  C   UNL     1       5.370  29.799  55.817  1.00  0.00     0.037 A 
HETATM    3  N   UNL     1       4.968  30.568  54.731  1.00  0.00    -0.192 N 
HETATM    4  C   UNL     1       4.330  30.061  53.660  1.00  0.00     0.726 A 
HETATM    5  N   UNL     1       4.103  28.716  53.587  1.00  0.00    -0.082 N 
HETATM    6  N   UNL     1       3.382  28.399  52.491  1.00  0.00    -0.128 NA
HETATM    7  C   UNL     1       3.293  29.597  51.897  1.00  0.00     0.226 A 
HETATM    8  N   UNL     1       3.841  30.643  52.599  1.00  0.00    -0.035 NA
HETATM    9  C   UNL     1       4.570  27.749  54.590  1.00  0.00     0.203 A 
HETATM   10  C   UNL     1       5.213  28.451  55.781  1.00  0.00     0.070 A 
HETATM   11  H   UNL     1       5.087  31.576  54.792  1.00  0.00     0.184 HD
ENDROOT
BRANCH   7  12
HETATM   12  S   UNL     1       2.553  29.849  50.342  1.00  0.00    -0.083 SA
BRANCH  12  13
HETATM   13  C   UNL     1       3.837  29.229  49.222  1.00  0.00     0.123 C 
BRANCH  13  14
HETATM   14  C   UNL     1       3.421  27.915  48.598  1.00  0.00    -0.027 A 
HETATM   15  C   UNL     1       3.990  26.685  48.967  1.00  0.00     0.041 A 
HETATM   16 CL   UNL     1       5.196  26.560  50.199  1.00  0.00    -0.084 Cl
HETATM   17  C   UNL     1       3.595  25.501  48.335  1.00  0.00     0.024 A 
HETATM   18  C   UNL     1       2.638  25.529  47.321  1.00  0.00     0.002 A 
HETATM   19  C   UNL     1       2.072  26.741  46.937  1.00  0.00     0.001 A 
HETATM   20  C   UNL     1       2.459  27.924  47.570  1.00  0.00     0.009 A 
ENDBRANCH  13  14
ENDBRANCH  12  13
ENDBRANCH   7  12
BRANCH   9  21
HETATM   21  C   UNL     1       5.498  26.732  53.923  1.00  0.00    -0.028 A 
HETATM   22  C   UNL     1       5.103  25.396  53.719  1.00  0.00     0.012 A 
HETATM   23  C   UNL     1       5.978  24.483  53.128  1.00  0.00     0.043 A 
HETATM   24  C   UNL     1       7.246  24.898  52.739  1.00  0.00     0.116 A 
HETATM   25  F   UNL     1       8.084  24.018  52.175  1.00  0.00    -0.206 F 
HETATM   26  C   UNL     1       7.657  26.210  52.927  1.00  0.00     0.043 A 
HETATM   27  C   UNL     1       6.786  27.128  53.516  1.00  0.00     0.012 A 
ENDBRANCH   9  21
BRANCH  10  28
HETATM   28  C   UNL     1       5.596  27.538  56.878  1.00  0.00     0.294 C 
HETATM   29  O   UNL     1       4.934  26.560  57.186  1.00  0.00    -0.259 OA
BRANCH  28  30
HETATM   30  O   UNL     1       6.786  27.909  57.403  1.00  0.00    -0.313 OA
BRANCH  30  31
HETATM   31  C   UNL     1       7.978  27.444  56.741  1.00  0.00     0.124 C 
HETATM   32  C   UNL     1       9.111  28.400  57.085  1.00  0.00     0.040 C 
HETATM   33  C   UNL     1       8.264  26.041  57.261  1.00  0.00     0.040 C 
ENDBRANCH  30  31
ENDBRANCH  28  30
ENDBRANCH  10  28
TORSDOF 7
ENDMDL
MODEL 5
REMARK VINA RESULT:      -8.8      3.674      5.229
REMARK  7 active torsions:
REMARK  status: ('A' for Active; 'I' for Inactive)
REMARK    1  A    between atoms: C_7  and  S_8 
REMARK    2  A    between atoms: S_8  and  C_9 
REMARK    3  A    between atoms: C_9  and  C_10 
REMARK    4  A    between atoms: C_18  and  C_19 
REMARK    5  A    between atoms: C_26  and  C_27 
REMARK    6  A    between atoms: C_27  and  O_28 
REMARK    7  A    between atoms: O_28  and  C_29 
ROOT
HETATM    1  C   UNL     1       4.947  25.064  57.024  1.00  0.00     0.070 C 
HETATM    2  C   UNL     1       5.310  26.471  56.618  1.00  0.00     0.037 A 
HETATM    3  N   UNL     1       4.348  27.438  56.886  1.00  0.00    -0.192 N 
HETATM    4  C   UNL     1       4.440  28.711  56.462  1.00  0.00     0.726 A 
HETATM    5  N   UNL     1       5.552  29.113  55.778  1.00  0.00    -0.082 N 
HETATM    6  N   UNL     1       5.435  30.391  55.360  1.00  0.00    -0.128 NA
HETATM    7  C   UNL     1       4.263  30.728  55.914  1.00  0.00     0.226 A 
HETATM    8  N   UNL     1       3.613  29.715  56.575  1.00  0.00    -0.035 NA
HETATM    9  C   UNL     1       6.713  28.251  55.517  1.00  0.00     0.203 A 
HETATM   10  C   UNL     1       6.458  26.821  55.984  1.00  0.00     0.070 A 
HETATM   11  H   UNL     1       3.494  27.142  57.352  1.00  0.00     0.184 HD
ENDROOT
BRANCH   7  12
HETATM   12  S   UNL     1       3.583  32.328  55.834  1.00  0.00    -0.083 SA
BRANCH  12  13
HETATM   13  C   UNL     1       4.938  33.335  56.497  1.00  0.00     0.123 C 
BRANCH  13  14
HETATM   14  C   UNL     1       5.039  33.181  57.998  1.00  0.00    -0.027 A 
HETATM   15  C   UNL     1       4.232  33.905  58.892  1.00  0.00     0.041 A 
HETATM   16 CL   UNL     1       3.021  35.013  58.350  1.00  0.00    -0.084 Cl
HETATM   17  C   UNL     1       4.389  33.753  60.274  1.00  0.00     0.024 A 
HETATM   18  C   UNL     1       5.357  32.888  60.782  1.00  0.00     0.002 A 
HETATM   19  C   UNL     1       6.171  32.172  59.910  1.00  0.00     0.001 A 
HETATM   20  C   UNL     1       6.014  32.316  58.530  1.00  0.00     0.009 A 
ENDBRANCH  13  14
ENDBRANCH  12  13
ENDBRANCH   7  12
BRANCH   9  21
HETATM   21  C   UNL     1       7.960  28.871  56.148  1.00  0.00    -0.028 A 
HETATM   22  C   UNL     1       7.999  29.226  57.510  1.00  0.00     0.012 A 
HETATM   23  C   UNL     1       9.143  29.811  58.056  1.00  0.00     0.043 A 
HETATM   24  C   UNL     1      10.249  30.044  57.248  1.00  0.00     0.116 A 
HETATM   25  F   UNL     1      11.344  30.609  57.774  1.00  0.00    -0.206 F 
HETATM   26  C   UNL     1      10.236  29.700  55.902  1.00  0.00     0.043 A 
HETATM   27  C   UNL     1       9.095  29.114  55.352  1.00  0.00     0.012 A 
ENDBRANCH   9  21
BRANCH  10  28
HETATM   28  C   UNL     1       7.542  25.878  55.641  1.00  0.00     0.294 C 
HETATM   29  O   UNL     1       8.281  25.387  56.479  1.00  0.00    -0.259 OA
BRANCH  28  30
HETATM   30  O   UNL     1       7.525  25.606  54.316  1.00  0.00    -0.313 OA
BRANCH  30  31
HETATM   31  C   UNL     1       6.843  24.411  53.892  1.00  0.00     0.124 C 
HETATM   32  C   UNL     1       5.703  24.820  52.971  1.00  0.00     0.040 C 
HETATM   33  C   UNL     1       7.861  23.546  53.159  1.00  0.00     0.040 C 
ENDBRANCH  30  31
ENDBRANCH  28  30
ENDBRANCH  10  28
TORSDOF 7
ENDMDL
MODEL 6
REMARK VINA RESULT:      -8.8      5.422      7.377
REMARK  7 active torsions:
REMARK  status: ('A' for Active; 'I' for Inactive)
REMARK    1  A    between atoms: C_7  and  S_8 
REMARK    2  A    between atoms: S_8  and  C_9 
REMARK    3  A    between atoms: C_9  and  C_10 
REMARK    4  A    between atoms: C_18  and  C_19 
REMARK    5  A    between atoms: C_26  and  C_27 
REMARK    6  A    between atoms: C_27  and  O_28 
REMARK    7  A    between atoms: O_28  and  C_29 
ROOT
HETATM    1  C   UNL     1       3.507  25.919  47.609  1.00  0.00     0.070 C 
HETATM    2  C   UNL     1       3.970  26.659  48.841  1.00  0.00     0.037 A 
HETATM    3  N   UNL     1       4.965  26.028  49.578  1.00  0.00    -0.192 N 
HETATM    4  C   UNL     1       5.390  26.469  50.776  1.00  0.00     0.726 A 
HETATM    5  N   UNL     1       4.872  27.624  51.290  1.00  0.00    -0.082 N 
HETATM    6  N   UNL     1       5.349  27.867  52.529  1.00  0.00    -0.128 NA
HETATM    7  C   UNL     1       6.227  26.864  52.659  1.00  0.00     0.226 A 
HETATM    8  N   UNL     1       6.260  25.973  51.614  1.00  0.00    -0.035 NA
HETATM    9  C   UNL     1       3.903  28.475  50.585  1.00  0.00     0.203 A 
HETATM   10  C   UNL     1       3.451  27.835  49.277  1.00  0.00     0.070 A 
HETATM   11  H   UNL     1       5.325  25.143  49.232  1.00  0.00     0.184 HD
ENDROOT
BRANCH   7  12
HETATM   12  S   UNL     1       7.278  26.674  54.033  1.00  0.00    -0.083 SA
BRANCH  12  13
HETATM   13  C   UNL     1       6.574  25.207  54.833  1.00  0.00     0.123 C 
BRANCH  13  14
HETATM   14  C   UNL     1       7.416  23.982  54.552  1.00  0.00    -0.027 A 
HETATM   15  C   UNL     1       8.457  23.565  55.399  1.00  0.00     0.041 A 
HETATM   16 CL   UNL     1       8.844  24.399  56.862  1.00  0.00    -0.084 Cl
HETATM   17  C   UNL     1       9.230  22.445  55.076  1.00  0.00     0.024 A 
HETATM   18  C   UNL     1       8.983  21.733  53.903  1.00  0.00     0.002 A 
HETATM   19  C   UNL     1       7.962  22.139  53.049  1.00  0.00     0.001 A 
HETATM   20  C   UNL     1       7.185  23.253  53.370  1.00  0.00     0.009 A 
ENDBRANCH  13  14
ENDBRANCH  12  13
ENDBRANCH   7  12
BRANCH   9  21
HETATM   21  C   UNL     1       4.498  29.871  50.392  1.00  0.00    -0.028 A 
HETATM   22  C   UNL     1       5.716  30.066  49.715  1.00  0.00     0.012 A 
HETATM   23  C   UNL     1       6.248  31.350  49.572  1.00  0.00     0.043 A 
HETATM   24  C   UNL     1       5.568  32.438  50.102  1.00  0.00     0.116 A 
HETATM   25  F   UNL     1       6.083  33.668  49.965  1.00  0.00    -0.206 F 
HETATM   26  C   UNL     1       4.363  32.272  50.771  1.00  0.00     0.043 A 
HETATM   27  C   UNL     1       3.827  30.992  50.916  1.00  0.00     0.012 A 
ENDBRANCH   9  21
BRANCH  10  28
HETATM   28  C   UNL     1       2.387  28.586  48.580  1.00  0.00     0.294 C 
HETATM   29  O   UNL     1       1.291  28.796  49.076  1.00  0.00    -0.259 OA
BRANCH  28  30
HETATM   30  O   UNL     1       2.840  29.046  47.392  1.00  0.00    -0.313 OA
BRANCH  30  31
HETATM   31  C   UNL     1       2.769  30.466  47.158  1.00  0.00     0.124 C 
HETATM   32  C   UNL     1       4.091  30.910  46.548  1.00  0.00     0.040 C 
HETATM   33  C   UNL     1       1.610  30.709  46.200  1.00  0.00     0.040 C 
ENDBRANCH  30  31
ENDBRANCH  28  30
ENDBRANCH  10  28
TORSDOF 7
ENDMDL
MODEL 7
REMARK VINA RESULT:      -8.8      2.912      3.926
REMARK  7 active torsions:
REMARK  status: ('A' for Active; 'I' for Inactive)
REMARK    1  A    between atoms: C_7  and  S_8 
REMARK    2  A    between atoms: S_8  and  C_9 
REMARK    3  A    between atoms: C_9  and  C_10 
REMARK    4  A    between atoms: C_18  and  C_19 
REMARK    5  A    between atoms: C_26  and  C_27 
REMARK    6  A    between atoms: C_27  and  O_28 
REMARK    7  A    between atoms: O_28  and  C_29 
ROOT
HETATM    1  C   UNL     1       1.749  28.922  50.145  1.00  0.00     0.070 C 
HETATM    2  C   UNL     1       2.914  28.791  51.096  1.00  0.00     0.037 A 
HETATM    3  N   UNL     1       2.736  29.378  52.343  1.00  0.00    -0.192 N 
HETATM    4  C   UNL     1       3.717  29.485  53.258  1.00  0.00     0.726 A 
HETATM    5  N   UNL     1       4.945  28.950  52.991  1.00  0.00    -0.082 N 
HETATM    6  N   UNL     1       5.825  29.224  53.978  1.00  0.00    -0.128 NA
HETATM    7  C   UNL     1       5.027  29.848  54.855  1.00  0.00     0.226 A 
HETATM    8  N   UNL     1       3.735  30.049  54.435  1.00  0.00    -0.035 NA
HETATM    9  C   UNL     1       5.265  28.191  51.774  1.00  0.00     0.203 A 
HETATM   10  C   UNL     1       4.097  28.200  50.793  1.00  0.00     0.070 A 
HETATM   11  H   UNL     1       1.843  29.823  52.537  1.00  0.00     0.184 HD
ENDROOT
BRANCH   7  12
HETATM   12  S   UNL     1       5.551  30.374  56.430  1.00  0.00    -0.083 SA
BRANCH  12  13
HETATM   13  C   UNL     1       5.099  28.951  57.459  1.00  0.00     0.123 C 
BRANCH  13  14
HETATM   14  C   UNL     1       5.954  27.749  57.125  1.00  0.00    -0.027 A 
HETATM   15  C   UNL     1       7.334  27.702  57.387  1.00  0.00     0.041 A 
HETATM   16 CL   UNL     1       8.172  29.007  58.150  1.00  0.00    -0.084 Cl
HETATM   17  C   UNL     1       8.088  26.580  57.026  1.00  0.00     0.024 A 
HETATM   18  C   UNL     1       7.480  25.497  56.393  1.00  0.00     0.002 A 
HETATM   19  C   UNL     1       6.116  25.532  56.118  1.00  0.00     0.001 A 
HETATM   20  C   UNL     1       5.359  26.648  56.481  1.00  0.00     0.009 A 
ENDBRANCH  13  14
ENDBRANCH  12  13
ENDBRANCH   7  12
BRANCH   9  21
HETATM   21  C   UNL     1       5.713  26.779  52.156  1.00  0.00    -0.028 A 
HETATM   22  C   UNL     1       7.071  26.410  52.149  1.00  0.00     0.012 A 
HETATM   23  C   UNL     1       7.452  25.108  52.481  1.00  0.00     0.043 A 
HETATM   24  C   UNL     1       6.482  24.174  52.819  1.00  0.00     0.116 A 
HETATM   25  F   UNL     1       6.850  22.925  53.134  1.00  0.00    -0.206 F 
HETATM   26  C   UNL     1       5.136  24.514  52.836  1.00  0.00     0.043 A 
HETATM   27  C   UNL     1       4.750  25.814  52.506  1.00  0.00     0.012 A 
ENDBRANCH   9  21
BRANCH  10  28
HETATM   28  C   UNL     1       4.399  27.555  49.498  1.00  0.00     0.294 C 
HETATM   29  O   UNL     1       5.351  27.877  48.804  1.00  0.00    -0.259 OA
BRANCH  28  30
HETATM   30  O   UNL     1       3.531  26.545  49.264  1.00  0.00    -0.313 OA
BRANCH  30  31
HETATM   31  C   UNL     1       3.480  26.009  47.928  1.00  0.00     0.124 C 
HETATM   32  C   UNL     1       3.111  24.536  48.024  1.00  0.00     0.040 C 
HETATM   33  C   UNL     1       2.419  26.794  47.167  1.00  0.00     0.040 C 
ENDBRANCH  30  31
ENDBRANCH  28  30
ENDBRANCH  10  28
TORSDOF 7
ENDMDL
MODEL 8
REMARK VINA RESULT:      -8.6      5.323      7.134
REMARK  7 active torsions:
REMARK  status: ('A' for Active; 'I' for Inactive)
REMARK    1  A    between atoms: C_7  and  S_8 
REMARK    2  A    between atoms: S_8  and  C_9 
REMARK    3  A    between atoms: C_9  and  C_10 
REMARK    4  A    between atoms: C_18  and  C_19 
REMARK    5  A    between atoms: C_26  and  C_27 
REMARK    6  A    between atoms: C_27  and  O_28 
REMARK    7  A    between atoms: O_28  and  C_29 
ROOT
HETATM    1  C   UNL     1       4.181  32.041  52.521  1.00  0.00     0.070 C 
HETATM    2  C   UNL     1       4.569  30.622  52.186  1.00  0.00     0.037 A 
HETATM    3  N   UNL     1       4.395  29.697  53.209  1.00  0.00    -0.192 N 
HETATM    4  C   UNL     1       4.823  28.424  53.136  1.00  0.00     0.726 A 
HETATM    5  N   UNL     1       5.415  27.978  51.988  1.00  0.00    -0.082 N 
HETATM    6  N   UNL     1       5.855  26.709  52.124  1.00  0.00    -0.128 NA
HETATM    7  C   UNL     1       5.407  26.421  53.354  1.00  0.00     0.226 A 
HETATM    8  N   UNL     1       4.793  27.458  54.013  1.00  0.00    -0.035 NA
HETATM    9  C   UNL     1       5.565  28.790  50.772  1.00  0.00     0.203 A 
HETATM   10  C   UNL     1       5.107  30.226  51.004  1.00  0.00     0.070 A 
HETATM   11  H   UNL     1       4.001  30.027  54.086  1.00  0.00     0.184 HD
ENDROOT
BRANCH   7  12
HETATM   12  S   UNL     1       5.562  24.853  54.093  1.00  0.00    -0.083 SA
BRANCH  12  13
HETATM   13  C   UNL     1       7.351  24.574  53.987  1.00  0.00     0.123 C 
BRANCH  13  14
HETATM   14  C   UNL     1       7.680  23.109  54.163  1.00  0.00    -0.027 A 
HETATM   15  C   UNL     1       8.029  22.552  55.406  1.00  0.00     0.041 A 
HETATM   16 CL   UNL     1       8.078  23.492  56.855  1.00  0.00    -0.084 Cl
HETATM   17  C   UNL     1       8.359  21.197  55.510  1.00  0.00     0.024 A 
HETATM   18  C   UNL     1       8.356  20.382  54.378  1.00  0.00     0.002 A 
HETATM   19  C   UNL     1       8.022  20.919  53.139  1.00  0.00     0.001 A 
HETATM   20  C   UNL     1       7.687  22.271  53.032  1.00  0.00     0.009 A 
ENDBRANCH  13  14
ENDBRANCH  12  13
ENDBRANCH   7  12
BRANCH   9  21
HETATM   21  C   UNL     1       4.836  28.110  49.612  1.00  0.00    -0.028 A 
HETATM   22  C   UNL     1       5.518  27.704  48.450  1.00  0.00     0.012 A 
HETATM   23  C   UNL     1       4.825  27.106  47.396  1.00  0.00     0.043 A 
HETATM   24  C   UNL     1       3.454  26.910  47.498  1.00  0.00     0.116 A 
HETATM   25  F   UNL     1       2.791  26.339  46.483  1.00  0.00    -0.206 F 
HETATM   26  C   UNL     1       2.759  27.299  48.635  1.00  0.00     0.043 A 
HETATM   27  C   UNL     1       3.447  27.897  49.692  1.00  0.00     0.012 A 
ENDBRANCH   9  21
BRANCH  10  28
HETATM   28  C   UNL     1       5.345  31.122  49.854  1.00  0.00     0.294 C 
HETATM   29  O   UNL     1       6.453  31.544  49.562  1.00  0.00    -0.259 OA
BRANCH  28  30
HETATM   30  O   UNL     1       4.196  31.320  49.169  1.00  0.00    -0.313 OA
BRANCH  30  31
HETATM   31  C   UNL     1       4.300  31.553  47.751  1.00  0.00     0.124 C 
HETATM   32  C   UNL     1       3.326  30.619  47.047  1.00  0.00     0.040 C 
HETATM   33  C   UNL     1       3.939  33.012  47.505  1.00  0.00     0.040 C 
ENDBRANCH  30  31
ENDBRANCH  28  30
ENDBRANCH  10  28
TORSDOF 7
ENDMDL
MODEL 9
REMARK VINA RESULT:      -8.5      3.021      4.881
REMARK  7 active torsions:
REMARK  status: ('A' for Active; 'I' for Inactive)
REMARK    1  A    between atoms: C_7  and  S_8 
REMARK    2  A    between atoms: S_8  and  C_9 
REMARK    3  A    between atoms: C_9  and  C_10 
REMARK    4  A    between atoms: C_18  and  C_19 
REMARK    5  A    between atoms: C_26  and  C_27 
REMARK    6  A    between atoms: C_27  and  O_28 
REMARK    7  A    between atoms: O_28  and  C_29 
ROOT
HETATM    1  C   UNL     1       9.600  24.801  57.475  1.00  0.00     0.070 C 
HETATM    2  C   UNL     1       8.327  25.464  57.011  1.00  0.00     0.037 A 
HETATM    3  N   UNL     1       8.128  26.762  57.466  1.00  0.00    -0.192 N 
HETATM    4  C   UNL     1       6.986  27.448  57.274  1.00  0.00     0.726 A 
HETATM    5  N   UNL     1       5.976  26.880  56.550  1.00  0.00    -0.082 N 
HETATM    6  N   UNL     1       4.882  27.672  56.530  1.00  0.00    -0.128 NA
HETATM    7  C   UNL     1       5.342  28.746  57.186  1.00  0.00     0.226 A 
HETATM    8  N   UNL     1       6.619  28.633  57.678  1.00  0.00    -0.035 NA
HETATM    9  C   UNL     1       6.070  25.568  55.896  1.00  0.00     0.203 A 
HETATM   10  C   UNL     1       7.378  24.866  56.246  1.00  0.00     0.070 A 
HETATM   11  H   UNL     1       8.851  27.178  58.047  1.00  0.00     0.184 HD
ENDROOT
BRANCH   7  12
HETATM   12  S   UNL     1       4.420  30.206  57.408  1.00  0.00    -0.083 SA
BRANCH  12  13
HETATM   13  C   UNL     1       5.726  31.463  57.436  1.00  0.00     0.123 C 
BRANCH  13  14
HETATM   14  C   UNL     1       5.938  31.991  58.837  1.00  0.00    -0.027 A 
HETATM   15  C   UNL     1       7.188  31.962  59.479  1.00  0.00     0.041 A 
HETATM   16 CL   UNL     1       8.608  31.351  58.706  1.00  0.00    -0.084 Cl
HETATM   17  C   UNL     1       7.325  32.431  60.790  1.00  0.00     0.024 A 
HETATM   18  C   UNL     1       6.218  32.924  61.480  1.00  0.00     0.002 A 
HETATM   19  C   UNL     1       4.972  32.950  60.863  1.00  0.00     0.001 A 
HETATM   20  C   UNL     1       4.832  32.488  59.552  1.00  0.00     0.009 A 
ENDBRANCH  13  14
ENDBRANCH  12  13
ENDBRANCH   7  12
BRANCH   9  21
HETATM   21  C   UNL     1       5.865  25.733  54.390  1.00  0.00    -0.028 A 
HETATM   22  C   UNL     1       4.930  24.952  53.683  1.00  0.00     0.012 A 
HETATM   23  C   UNL     1       4.778  25.107  52.304  1.00  0.00     0.043 A 
HETATM   24  C   UNL     1       5.555  26.038  51.627  1.00  0.00     0.116 A 
HETATM   25  F   UNL     1       5.409  26.183  50.303  1.00  0.00    -0.206 F 
HETATM   26  C   UNL     1       6.481  26.822  52.302  1.00  0.00     0.043 A 
HETATM   27  C   UNL     1       6.636  26.672  53.681  1.00  0.00     0.012 A 
ENDBRANCH   9  21
BRANCH  10  28
HETATM   28  C   UNL     1       7.479  23.491  55.716  1.00  0.00     0.294 C 
HETATM   29  O   UNL     1       6.843  22.556  56.175  1.00  0.00    -0.259 OA
BRANCH  28  30
HETATM   30  O   UNL     1       8.296  23.463  54.638  1.00  0.00    -0.313 OA
BRANCH  30  31
HETATM   31  C   UNL     1       7.871  22.685  53.503  1.00  0.00     0.124 C 
HETATM   32  C   UNL     1       8.081  23.525  52.250  1.00  0.00     0.040 C 
HETATM   33  C   UNL     1       8.729  21.427  53.471  1.00  0.00     0.040 C 
ENDBRANCH  30  31
ENDBRANCH  28  30
ENDBRANCH  10  28
TORSDOF 7
ENDMDL
MODEL 10
REMARK VINA RESULT:      -8.4      2.865      4.827
REMARK  7 active torsions:
REMARK  status: ('A' for Active; 'I' for Inactive)
REMARK    1  A    between atoms: C_7  and  S_8 
REMARK    2  A    between atoms: S_8  and  C_9 
REMARK    3  A    between atoms: C_9  and  C_10 
REMARK    4  A    between atoms: C_18  and  C_19 
REMARK    5  A    between atoms: C_26  and  C_27 
REMARK    6  A    between atoms: C_27  and  O_28 
REMARK    7  A    between atoms: O_28  and  C_29 
ROOT
HETATM    1  C   UNL     1       9.050  24.932  57.040  1.00  0.00     0.070 C 
HETATM    2  C   UNL     1       8.076  26.078  56.919  1.00  0.00     0.037 A 
HETATM    3  N   UNL     1       8.437  27.242  57.588  1.00  0.00    -0.192 N 
HETATM    4  C   UNL     1       7.626  28.308  57.710  1.00  0.00     0.726 A 
HETATM    5  N   UNL     1       6.399  28.291  57.109  1.00  0.00    -0.082 N 
HETATM    6  N   UNL     1       5.692  29.402  57.406  1.00  0.00    -0.128 NA
HETATM    7  C   UNL     1       6.596  30.090  58.115  1.00  0.00     0.226 A 
HETATM    8  N   UNL     1       7.783  29.439  58.343  1.00  0.00    -0.035 NA
HETATM    9  C   UNL     1       5.913  27.191  56.264  1.00  0.00     0.203 A 
HETATM   10  C   UNL     1       6.890  26.020  56.262  1.00  0.00     0.070 A 
HETATM   11  H   UNL     1       9.327  27.251  58.080  1.00  0.00     0.184 HD
ENDROOT
BRANCH   7  12
HETATM   12  S   UNL     1       6.327  31.702  58.714  1.00  0.00    -0.083 SA
BRANCH  12  13
HETATM   13  C   UNL     1       7.895  32.045  59.557  1.00  0.00     0.123 C 
BRANCH  13  14
HETATM   14  C   UNL     1       7.657  32.452  60.995  1.00  0.00    -0.027 A 
HETATM   15  C   UNL     1       8.353  31.877  62.072  1.00  0.00     0.041 A 
HETATM   16 CL   UNL     1       9.574  30.676  61.844  1.00  0.00    -0.084 Cl
HETATM   17  C   UNL     1       8.070  32.263  63.387  1.00  0.00     0.024 A 
HETATM   18  C   UNL     1       7.086  33.216  63.646  1.00  0.00     0.002 A 
HETATM   19  C   UNL     1       6.381  33.787  62.591  1.00  0.00     0.001 A 
HETATM   20  C   UNL     1       6.663  33.409  61.276  1.00  0.00     0.009 A 
ENDBRANCH  13  14
ENDBRANCH  12  13
ENDBRANCH   7  12
BRANCH   9  21
HETATM   21  C   UNL     1       5.611  27.720  54.862  1.00  0.00    -0.028 A 
HETATM   22  C   UNL     1       4.292  27.955  54.430  1.00  0.00     0.012 A 
HETATM   23  C   UNL     1       4.043  28.418  53.137  1.00  0.00     0.043 A 
HETATM   24  C   UNL     1       5.105  28.646  52.272  1.00  0.00     0.116 A 
HETATM   25  F   UNL     1       4.863  29.086  51.030  1.00  0.00    -0.206 F 
HETATM   26  C   UNL     1       6.415  28.424  52.674  1.00  0.00     0.043 A 
HETATM   27  C   UNL     1       6.670  27.963  53.967  1.00  0.00     0.012 A 
ENDBRANCH   9  21
BRANCH  10  28
HETATM   28  C   UNL     1       6.402  24.835  55.528  1.00  0.00     0.294 C 
HETATM   29  O   UNL     1       5.257  24.421  55.625  1.00  0.00    -0.259 OA
BRANCH  28  30
HETATM   30  O   UNL     1       7.368  24.360  54.709  1.00  0.00    -0.313 OA
BRANCH  30  31
HETATM   31  C   UNL     1       6.960  23.850  53.426  1.00  0.00     0.124 C 
HETATM   32  C   UNL     1       7.492  24.791  52.354  1.00  0.00     0.040 C 
HETATM   33  C   UNL     1       7.558  22.456  53.282  1.00  0.00     0.040 C 
ENDBRANCH  30  31
ENDBRANCH  28  30
ENDBRANCH  10  28
TORSDOF 7
ENDMDL
